# total energy = -381171.86837520247 ev
CRYSTAL
PRIMVEC
9.21939200318950 0.00000000000000 0.00000000000000

0.00000000000000 9.21939200318950 0.00000000000000

0.00000000000000 0.00000000000000 13.49351210708943

PRIMCOORD
 96 1
Ni 3.6972158962977297 8.288113556141015 1.9933155249850032 -0.3575754008248874 0.017039986201422268 -1.2801365802749631
Ni 7.21647908820637 2.45653465664625 7.226410217269054 -0.031578546137229484 -0.7947817232095409 0.18530943213620343
Ni 7.730755212765078 8.794304273915492 7.395173031712281 -0.2935765293754234 0.9525261012432822 2.3592216350881174
Ni 4.826941753226037 3.7087770138660603 5.347114600908112 -1.2178703752458895 -1.1462846925881032 -0.10072116657116204
Ni 3.6332425352079003 6.0646543486534314 3.004668076386725 1.4435258152993076 -0.6385298705609261 -0.07492888809840645
Ni 9.032791506178311 1.779029196722875 0.6819031099075005 1.0451246387073096 -1.2507686686358073 -1.7202899011030823
Ni 8.961645458112278 1.480781865514346 9.280446501846193 -0.09719618413703905 -1.6548794940180724 -1.7257488673351244
Ni 0.5740860082212172 7.278885152656155 8.445117036087906 -0.5163960426419428 0.6676728106734695 0.37686484518211866
Ni 0.3923588847472203 5.678592308642392 13.244287214791548 -0.16305010651737079 1.1744732392071773 -0.42531419893275785
Ni 5.0223098891036235 0.9456330374670423 12.726851604594351 1.134717042355162 -0.39497106786452624 -0.7866696356253678
Ni 0.37604240478515366 8.570190073781083 12.658790365091605 1.942097685275636 0.3575404338218939 1.6600780074998764
Ni 6.674378838590868 5.876431241576049 8.175772498800203 0.8635836724746031 1.281510063583722 2.270751775080483
Ni 0.20097537009214733 1.6459841507670703 11.535238734985874 0.2412219270331071 -0.5498558649622852 0.5966594555793853
Ni 4.0865969174288646 0.7774473569630327 10.544261961843935 0.6208915886538726 0.26921481270160735 -0.48290459575271677
Ni 7.078787468682433 2.9112903864512543 4.810301672604761 -1.5938674731110742 -0.36235790981519533 -0.00944931833835792
Ni 4.719462081286963 8.055102642726352 4.182719220362814 -0.6617371619153248 -1.4391256293490828 2.3882882134367707
Ni 5.000128031950989 4.952436117133625 9.369894886911151 -1.2949399638363825 1.566070505503464 -1.3077782532516316
Ni 7.797310003614981 8.01230622506113 0.9276275648905274 0.668221484088088 0.41974158994098676 -0.48021316496348265
Ni 6.678352396542982 5.390338798362149 10.890168018058628 -1.4740615219943194 0.2656407221971038 0.7465005196056499
Ni 1.733955589233586 7.284969951376328 3.126622193766212 -0.9897986124414954 0.34689452407227356 0.5098829241137736
Ni 2.1645104150378986 2.3184005063062996 9.98248660776067 -0.3539213490120679 -0.2174741897942061 0.5757319613980988
Ni 8.060800226982515 6.678739611006993 6.477115195718026 0.31913072369544393 -0.3122936461689525 1.235146388717518
Ni 0.14611353411617845 3.63533533719196 9.376682203301748 0.5241566604239682 1.0497377119992888 -0.3585171959128664
Ni 8.715404717177234 2.0467695598025317 3.280434842141811 -0.0877574073216424 0.7188621890630911 -0.18456561199164342
P 6.410123405687311 2.298357548097726 11.214970885984716 0.1121296655184198 0.1309704523740067 1.0062019935001831
Ni 8.777266837499004 6.242597833650521 2.0700263980623967 -0.016802673379635577 -0.2946903312648925 -1.1605301467635238
P 1.7686297225465777 7.2233475352465675 0.710840937517928 0.10682779368953216 0.5430840934560905 0.30459679174532706
Ni 5.761714346916768 8.112917449960007 0.09438813529869923 1.6610501416051588 -0.20563245996427165 2.6165075575626227
P 2.258308509248581 0.4108732677621498 11.526266422691217 -1.1179740185688682 0.3012790402260037 1.3376313320573223
P 7.02031808461676 7.5411491968876545 10.020673329425762 0.7496652904868767 -0.22625810663442322 0.07832145871972318
P 9.005160988353522 4.986206750030591 7.6399995179144815 -0.4262346538644982 0.01579428671977925 0.41848946270144055
Ni 1.3095593172854496 6.313955927732561 6.5696668281302735 0.49483117198697363 -1.236664368023941 -1.0198704921262112
Ni 1.9440009971755927 9.080400446467673 9.423855066349494 -0.5669123062239398 0.10671620781233233 -0.32648047919229584
Ni 1.5699979219008973 4.826545319370025 1.8572603475411122 2.2471248796901624 0.6009529407484167 -0.4105339552997897
Ni 9.00825870406561 8.550561988212522 10.423509131242081 -0.856741452741789 -0.6711152606961152 -1.1265630457894598
Ni 4.513076771969061 2.9784997541331766 10.215492911479334 0.5335496716030941 -0.09950014967986735 0.459281557017138
Ni 3.7159128232742646 3.563608467429909 3.2426934171103317 -0.03270520354250497 0.17676514211061814 -1.2845766183241876
Ni 1.079655338974875 3.341439559007555 12.978167620825538 1.695541747624125 0.3330861574342715 -0.10546073813867644
Ni 4.573473008962788 1.9722492142644006 1.1955938030741906 0.017318950894421786 0.1659575099721529 1.7076716981184394
Ni 8.142696086120857 8.192591435626284 3.2737286564008192 -1.3377583445534895 1.7283762776556426 -0.8298140322233256
Ni 6.5461370958672 1.017442881757096 9.409875702259495 -0.3396221587805764 -0.2609412598389055 -0.30129600950686813
Ni 3.52343957648476 5.280886176535018 11.024280669608062 1.26896153749475 0.8536887819583941 -1.2262951089744751
Ni 2.018318516089718 5.14210666875505 4.530730063771165 -0.8338118405288092 -0.16006351308522113 -0.7591560035861312
Ni 1.5805817839172 2.2896544420494775 2.2013852172213535 0.8188382499381124 0.6158738237243071 -0.6645849157767652
Ni 5.915447708521164 5.381174722713886 4.000488718085602 -0.7983825531869218 -1.2248617189620583 0.9679213527524299
Ni 3.229912573980366 1.0532141227181189 3.4265557517715894 0.539160332921652 -0.6292309617575034 -0.3376125845497153
Ni 7.360071118610477 0.1369264099879157 11.916228265518368 -0.8118548766417438 1.2956704142445041 0.40933967788137243
Ni 1.1974699493462442 2.665796416268234 7.190368848122424 -0.2765314009676786 0.6035019324225155 -0.048715462927832236
Ni 5.483270269724805 7.534880010327475 6.820700730966252 1.149660808149188 0.6831050860681397 -2.0355472578860496
Ni 8.925127446399232 8.688576286456469 5.461418466805781 0.22066158638325226 -2.792948740674919 0.42122794467852614
Ni 8.686815382584417 3.958373613489198 1.0667426585393058 -0.7627555480119316 -0.13225394707212063 0.6355378778121377
Ni 6.568254417275833 4.653395918213073 6.371420398070204 0.9236392430056029 -0.1942584137993751 -0.3226893875809797
Ni 8.688502531320466 5.784016056165406 9.978573897795757 0.8906087949131951 0.8853447183007784 -0.38493579511571124
Ni 6.543371278267122 0.38982539582554787 5.500846118634108 0.40972894289999107 -0.0464498068221071 -1.0679344375129738
Ni 8.836409237180694 6.387923109750676 4.357473717667011 1.4037091975230018 -2.0089147429001857 0.5313050985432913
Ni 2.3811661270440947 0.8094331155687474 0.33801794441926636 0.4714413323081235 0.26170590591907184 -1.1757713891933104
P 2.8586937550897504 4.188213056055771 6.252245927378796 -0.8583653614984572 -1.6482738157760968 0.6586317835171237
Ni 7.2224901317905426 5.529772882974136 0.07001667254600227 -1.088665499412738 -0.4918764602340238 0.7582005816513975
P 3.060736730775528 7.037871806985263 5.030448768361456 -0.603261020056303 -0.5533479372759438 -0.4407629293876603
Ni 6.612120284413087 3.067015136727708 0.06269094366259279 0.7220097335531371 -0.9015041016694603 -0.3949409859575392
P 0.6567083554491799 0.3042095120150995 3.8067090834496606 1.119391467741685 0.7853226346791701 0.34579434902955924
P 5.3083415259118025 2.029888853050049 3.6374862213456214 -0.07327438321411897 0.4266647994233813 0.45216808590080837
P 1.6575176101594002 4.579622343426964 10.807574250945864 -2.395799177101835 -1.1727817104373675 7.276221946439081e-05
Ni 6.776483604993788 3.5924559449987337 9.217877254158005 1.2435513249517613 -0.8665342704624948 0.8474733971763018
Ni 1.5506371987003438 6.824203177987152 10.986997448358995 -1.0978204264391287 -0.4475758385444356 0.20836142885966052
Ni 4.255486959481694 5.612415512864499 7.045003006697466 -0.22131618924811564 -0.38155016647293 0.0028235854917241696
Ni 3.4382800525783246 2.6980642882691566 12.553756597850201 -0.539907752610638 -0.020993314422215456 -0.8443160824942427
Ni 5.088505123665516 4.4310057443827136 12.443110064759036 0.46968963972433947 0.008396194483495217 0.03389459586491582
Ni 8.6547226790315 1.5738516277570076 5.6879472257050585 1.939300067925841 1.1904089366008272 0.3095255965055121
Ni 1.882775014901842 0.4730138137223268 5.64078726980611 -0.2879452992315751 0.38495379283784026 -1.1808434043995792
Ni 3.5333780810610445 7.822534260127702 10.441684240631403 -2.926395165393244 -1.2570426745699772 1.6892399737758135
Ni 5.235720375125727 4.961176100749876 1.2794589243437886 -0.626788670864598 -0.2756258584342737 0.6149829364789214
Ni 0.9073605754563479 9.05583998617897 1.8119765379142174 -0.6726417246429707 -0.3730308161480092 -1.2607219231937772
Ni 2.845961774737386 6.306018031220334 8.888230517674977 -0.4611995999754573 1.4165798828380831 -0.2336214889780299
Ni 5.368276793305518 7.8320025757119724 11.447935702439377 3.0982381876118965 -0.413173706915482 -0.5667289865685401
Ni 5.726016861091747 0.08983836534656911 2.7908630003870107 0.19731519834782793 1.3839096462985714 -0.9049190408882801
Ni 2.683230286540733 5.566825619423195 13.032883790407903 0.6832148721731266 -0.4060841470585523 1.6562372935975476
Ni 1.8975629196702648 2.665031206732212 4.62705980302512 -0.5026128728149215 0.49789284163143277 0.8495644753773754
Ni 5.878404191464105 7.007844247240405 2.523610343144168 1.2101953751991352 0.22566701001764358 -2.4996169803204498
Ni 2.795845159823953 4.1127615519256135 8.578702338414926 0.1710740052631118 -1.0367664965506016 -0.6553903937616906
Ni 2.8937735416507535 1.1228389711041098 7.641753968212131 1.3701565583785371 0.6695165487504275 1.172632843564329
Ni 9.027951325378172 4.071901206580445 5.530032869828543 0.16544611755337313 0.5202416416402783 0.19275046179528094
Ni 3.0003589325658018 8.011421163429103 6.884862167652886 0.30049948174750185 -0.5021469889220965 1.1916584927372125
Ni 6.895137180037181 3.802722618348747 2.715029813428042 0.1692726903883149 -0.7183687943664402 -1.5729525773352782
Ni 5.078631154833234 8.003271220900869 9.022356076373214 1.8372362712838552 0.5502656988061942 -1.6066407136163428
Ni 8.480706655026523 3.9846857582579505 11.71204454701013 -0.935924488130859 -0.2118357605615061 -0.035307931272674675
Ni 7.263949737615728 1.0863209593910657 1.6436719272534042 -0.7889190937811768 0.3912421969497133 -0.5283632423061481
Ni 4.2255054966968375 0.5931424914857621 5.621451438963957 -0.19316878027962214 1.1037825575598346 -0.05240139641985169
P 3.3582649494080368 3.7818314760761496 0.9095262106372097 -0.19148393637803152 0.4553536827176416 0.3939171726787151
Ni 7.957653669283566 7.005059990856324 12.134431913441409 -0.3967204464554651 0.8416128246304666 -1.47573839547611
P 6.821833794243085 7.071181470282215 4.806483922377451 -0.8067116418779076 1.6221730049239869 -0.3346095360573334
Ni 3.7368592818988633 7.987128065508409 12.992524979987548 -4.040101152714378 0.022142083314677995 -0.2172872705943806
P 5.397594459866355 0.5774501643621134 7.432307820750143 0.3663801436007109 0.3534068712694946 0.8916218095587418
P 0.05958585243690399 4.398618020285788 3.202455380725181 -1.2400062879129805 -0.8456774816181436 1.6753040804210115
P 0.8293543778029171 0.1097209061343377 7.503202179414569 -0.9915528761284407 0.358566303983247 0.31711317904478287
Ni 4.873527341003369 2.8549414625456433 7.665502200065611 -0.32809616041884787 -0.12759870768829637 0.2703316999148699
