# total energy = -381174.3185699759 ev
CRYSTAL
PRIMVEC
9.13377336788743 0.00000000000000 0.00000000000000
0.00000000000000 9.13377336788743 0.00000000000000
0.00000000000000 0.00000000000000 13.36820057987407
PRIMCOORD
 96 1
Ni 7.031306516565371 4.6989427159017465 5.926136394753245 -0.4091383605038437 0.0668150007420204 0.21993936350524698
Ni 2.4318488588444698 0.23904089296334435 2.371304729514911 -0.9245417002152143 -0.511621504071435 -0.19947338234141132
Ni 0.8149262094165373 1.620815463584807 8.344483709987456 -0.8735253570683472 -0.9953357402096408 1.9973062121269793
Ni 2.2778169068465086 0.7239830559740978 6.607767970946498 1.0534799526505405 -1.5192278341183125 0.19404115558224647
Ni 8.599876797190717 5.733607415283687 4.177803409522403 -0.19855961227789026 1.1237366320842583 1.6259589543289803
Ni 7.45324117160248 7.978414865623991 0.4126081591769861 0.05665425815893469 -0.4336867392671692 -0.2147321082726947
Ni 3.2110510543464894 7.858406218962392 4.985442694644349 0.7675306008030718 -1.1149393455076024 -1.1524178020690345
Ni 4.358901471776267 6.871903905899549 6.780912343458913 -0.8482514129929067 2.1460537859787494 -0.07436967316082677
Ni 4.441059762111991 0.32917205396433347 1.2807404244983218 0.7019831539195652 1.100500287264137 -0.38037337255600945
Ni 2.491839481515403 6.960337098454356 2.812508905966281 -0.21400037231299276 -0.8128524646683226 0.35517836134762054
Ni 4.556766401575356 1.2031006117867311 3.8650273919095595 2.7957165332280436 -3.4338285995252606 0.5473205001349413
Ni 7.592713889048452 1.5908292860225854 9.498747862989635 2.488949730414591 0.3734509344045633 -0.09942018837155137
Ni 8.982262214078444 0.7655883064808526 0.9647347046661672 -0.16599067720293348 -0.30433428211255975 0.21576980550858965
Ni 2.947861378301586 2.586574977609025 0.39698758017396707 0.21673114098059448 -0.13503202403789002 0.21641515240207243
Ni 6.875831428394753 0.6139631037328597 5.674173039403354 0.6242327372119637 1.4776122154600553 -0.08325746256875984
Ni 8.316190933984794 9.172135092288455 3.4707991246328045 -0.29452449511098955 -1.107730486463989 -0.2831401645334478
Ni 5.293405213757255 3.4069978917641994 4.04249021241205 1.9635630542382636 0.09559747219135149 -0.8184852374740679
Ni 1.6321504761814312 2.921391703438559 6.618462706038673 2.6914780975322423 1.2524943930776622 0.3358446940160152
Ni 2.0836602889847526 5.117680550303225 10.79451425785275 0.611408845974418 0.21721630814712914 0.9212481170656068
Ni 1.4886314971880747 7.4802040702207195 6.694941616170866 1.72859096476961 0.22618071642926854 0.06852786966806908
Ni 4.763728569526126 0.0010375966405934758 5.94415732936496 -1.119131786322395 0.48101920580454577 1.917334619398343
Ni 1.348601619574179 8.982170876345998 4.527141008056298 -1.4603513714970786 -1.238207801251661 -0.5286190670706961
Ni 4.867625240184144 7.2481240258471304 2.3662117375536877 -0.8880472048336061 -0.17707701692408212 0.07534437836927023
Ni 8.248664948387017 0.14955274959877937 12.025738670837116 0.4325117451224616 0.32314730105400474 0.004914663692797987
P 6.604467025295878 7.476020802074664 11.67204334908819 1.0140561994372794 1.2169751171251297 0.28012914562126595
Ni 7.896229173968532 3.1654826596288768 0.5553005316917007 0.736207622320074 0.45284351470127815 0.7447053753784401
P 0.2787828537281883 2.984752688436772 10.356611940429323 -0.5957397719785934 -0.20619784554943846 0.6606572985875848
Ni 3.8990799253203043 6.836930688145742 9.436586142418447 -0.45744398958776705 0.7695288621800231 0.6144805429212062
P 8.229420088160516 0.10498176291948322 8.068925078214633 -0.29701332297111427 2.004723587636973 -0.703230396063105
P 7.18713782189253 2.8858704592900732 4.812311109414477 1.1784970156545898 -1.5359166076279032 -0.11551863659531073
P 6.0942179167561426 4.9432072137837135 1.7016383962721622 -1.053694639764508 -0.6953967589512992 -0.9745501709228571
Ni 1.3630695163937219 6.40321346562302 9.14721815887702 -0.2987758141881757 0.17546030725626557 -0.4065901401606933
Ni 1.8796209284722731 5.612183033769164 13.34417783102545 0.29798442863513197 -0.3399561450812274 0.8871480900581044
Ni 4.546509174221602 8.502118022153113 12.391733531637298 1.7138644571927129 -0.8596460279830936 -0.44950750834950975
Ni 5.308941762046423 5.96407078179297 4.544479649806638 0.37846587112065144 0.6038600870928826 -1.1365638657559136
Ni 3.367494322481041 4.339875822107638 4.073825448282507 -2.8577030022331686 2.3533376655035143 0.35395837289759036
Ni 8.568739764199668 3.2557334730593706 7.409645671905713 0.7052862501508693 2.461071001726452 0.6902203569566823
Ni 8.754219297478997 6.203092493832501 1.1354266590623896 1.3614952831591132 -2.5279461662824465 -0.8034810507557516
Ni 0.8764978882361207 7.896795467909701 0.2996051165940417 0.92398942725617 1.6950172425792227 1.3555627197247622
Ni 0.4302409084258039 4.28933865474493 12.191744999558827 -1.6726499306276161 0.07843792969292943 -0.4410987154605242
Ni 1.3280962986399152 1.087613182881239 10.725588064816565 -0.5683001877104019 0.19328319437029937 -1.3029422653155691
Ni 3.586969759776997 4.665056417164055 1.6966650567404442 0.3909601469329202 0.6220730105564836 0.44274730680754076
Ni 5.339293290538432 2.780558053779133 1.358022193298722 -1.4172023469134303 1.6533561153950107 -0.7088942792171017
Ni 1.757940801306901 8.618838510446633 8.911349425361546 0.4385206703207028 0.5231192202983893 -0.6239337179143061
Ni 7.31049856333492 5.2346476504743515 12.62376516701269 -0.3632428835233099 -0.8866765497383245 -0.14167395483443987
Ni 5.298766738651872 2.3520927508720915 9.706022405985372 -1.5618600669665426 -1.5422888297028343 -0.023593471049223883
Ni 9.001954629193934 6.773487499188327 12.081738747977456 -1.1664511402336493 -0.43370473698929823 -0.3364558452374528
Ni 6.695393737946477 1.1247328373475407 0.353437749343424 -0.6632744244954577 -0.2763989891548724 -0.6102965867468457
Ni 3.0748025588558834 1.833595845092427 8.851927836763757 0.3234244659747914 0.11247856421740629 -1.0517040916970404
Ni 1.1944691960705265 4.65062505543749 3.055623461796744 0.5948501702847884 -0.13829012596387152 -1.4946061789148903
Ni 4.204695978086657 4.452148162831009 12.746058170362778 0.044195977790923886 0.28422234185403306 -1.0062212767738927
Ni 2.9516518941981205 2.8158874886894814 11.105017792682318 -0.4915699847371985 -0.07604911774577872 0.449230086318407
Ni 0.7570582756476638 2.118195085622815 12.667894079066945 -0.05171799719958191 -0.5816452415587402 0.5673442515550359
Ni 8.552317239905767 7.275452275395156 8.103481795908483 1.1085964340087102 -1.2263673569733073 -1.2128032451356274
Ni 7.520009054020951 2.4612413411457883 11.783493650219542 0.27718240428811625 0.27856385801667505 -1.0192765672959543
Ni 5.743070004365156 5.815637832793986 10.745479596188787 -0.4325734515983325 -0.5892395089662303 0.37317171260124765
P 1.9703192967917555 5.245388967810074 5.861408083900306 2.780905179246824 -0.6432951531600534 -1.8377528059089574
Ni 0.23431051179993448 3.531472953542438 5.0833914521654435 -1.6584780100026082 0.41272453519320534 -1.7875916116735342
P 0.3679010792763445 7.187603644328007 2.8660081559922332 0.03565580153039665 1.0760992327119532 0.6542647647976797
Ni 6.552121370830727 2.491136180975564 7.510295286175254 -1.7232320144505417 0.5586631788412701 -1.9374139066467213
P 6.4401413108511845 -0.2319457779068918 2.089596328216458 -0.39117406271593924 0.029199761492407775 0.886133532750661
P 3.8605262684545907 8.689972336476051 8.155965370349628 0.017686618646485665 0.40135511701399906 -0.49193251028293994
P 5.790163739214626 3.6712379517322384 11.413421473042943 -0.5323453668823477 0.5269509353396538 0.706501610615209
Ni 6.08931308052376 0.4323024010471239 10.672970223908722 0.31073632898416165 -2.695876997930886 1.122432311450538
Ni 2.9336400933596494 5.359186648665304 7.836171874752914 -0.7680134539767611 -0.40918438325043077 -0.519405518892228
Ni 4.81454888385942 1.7568904173837647 12.111161371730482 -0.1306521498026395 0.8940926396967376 1.310192519120079
Ni 5.533084557470401 6.552340581388599 0.1429097563179375 -0.6889278633975039 -0.6613201289825643 0.2822076254168495
Ni 6.612596083483626 7.059867825501425 6.480676083133665 -0.29507034031213053 -0.14606128526885814 0.24623429264603403
Ni 8.511123922572349 7.926553301140806 5.756681153254349 0.8243530091087544 0.8018216607754578 -1.2133303212836908
Ni 1.4681353100270558 3.804015613389874 8.781384052485942 0.009603070307402817 0.8619019138968059 0.9830404677820554
Ni 0.1711020608149078 5.668501879595744 6.575296493684405 -2.4392042835603474 -1.2621344872705877 0.4697071232258362
Ni 0.39428672342552085 2.0802077226982707 2.742700390434663 0.6706334359636903 0.8772344304888182 0.8504144820824967
Ni 8.42501984219493 5.674511902390731 10.108351416752818 -0.14086277178705417 -0.3225528620031155 0.09758699181755452
Ni 5.4191042011502795 5.2870389738057275 8.04514347281751 1.9159395388230291 0.5750717021062806 0.2056885100131877
Ni 2.5246753963299584 0.47452052773859543 12.716834662866487 0.2438056285998833 0.7371206210526466 1.0445057741763881
Ni 1.5874680574685502 8.058682464898071 11.345832464409778 1.1686378634723227 -1.707949891480491 -0.34505644242227024
Ni -0.14426064138082287 1.2984389369145013 6.3191480434338105 -0.13875626696701263 -1.2518616445896698 -1.6869115827529528
Ni 4.32312448197693 4.695325741696862 6.066034746032416 -0.13980527705681728 -1.18887861599923 0.4851854213670934
Ni 7.1185157835053925 6.584290520198422 2.5877760687906983 -0.7522543913702915 1.133009315635436 1.0851975954687954
Ni 6.939256349805678 1.9695246585194701 2.666394108616792 0.8031156969965331 -1.1195354495187169 1.5517420046959343
Ni 8.787530168502274 8.19973532511537 10.100798699656808 -0.7904116191663032 0.6932665999821738 0.02413725936783585
Ni 6.006469757194686 0.4386028778312909 8.088429337601282 -0.8716312253694278 -1.7567260324429292 0.1955035990603859
Ni 3.170688910378333 7.538568881254101 0.588489923530825 0.08954766645284577 -0.34801912459502 0.39707680135361934
Ni 6.377154810556003 7.277269896270843 9.005087513416852 -0.2296056829504175 0.5697695731670768 0.6597828664024314
Ni 6.866898598161474 3.8864479169229385 9.464485252794264 1.3716115456575089 1.073005681388294 0.21737314543996758
Ni 4.123880352417898 4.41848107465119 9.711743801545829 -0.9919624528620336 -0.9063434320396326 0.8654551784657031
Ni 7.913966961609663 4.145162044077958 2.65457683279285 -0.4537626840814379 -0.13009216353411143 0.7460490338905281
Ni 6.013247016942223 8.22972150267759 4.2045133026217645 0.39075882955539154 -0.023112931868379552 -0.37600481117466855
P 4.544965566543254 3.327698472454054 7.804155259398404 -0.9279898066648148 -1.1197426804335169 -0.21541627882391284
Ni 3.227172164123316 2.371702962028378 2.905939185863242 -3.0243991901435594 2.111063385946493 -2.01563072146778
P 7.67272574267168 5.354373150165367 8.06331054780114 -0.9275658317535187 -0.7397027799575261 -0.4927534635223385
Ni 3.6448687483749027 0.1014086308261719 10.424135185895127 -0.0171482296445124 0.5605166871102412 -0.6553999068433874
P 3.217937919372964 6.6437605177944095 11.8845844257368 1.0927514965566536 -0.044231201904233505 -0.03617516436897641
P 1.7340194491791339 1.8432959122782566 4.55131079881632 0.7165409971290821 1.3981985521174178 0.19028554519455615
P 1.1105937563648058 3.4707790303316663 1.1233180158719427 -0.42045969905393393 0.5721707264094017 -0.13163174010708945
Ni 4.010484557585433 2.3569062493720274 5.807039298661462 -0.2637023675238104 -0.04919780188088946 0.7484391313892594
