# total energy = -381169.99454869627 ev
CRYSTAL
PRIMVEC
9.19878313451407 0.00000000000000 0.00000000000000
0.00000000000000 9.19878313451407 0.00000000000000
0.00000000000000 0.00000000000000 13.46334894460863
PRIMCOORD
 96 1
Ni 3.5231523608240827 8.623049751345489 4.062282925156129 0.43583052508304937 1.511668533713816 -0.19724886388626675
Ni 6.864858723148798 1.1027409304996585 8.239838562149782 2.0231573688621287 -0.5337101084403582 -0.5329791438116046
Ni 5.297643632840337 8.048788114117679 12.653959306540557 -0.23098507979644736 -0.32311310538195964 -0.08862104087351834
Ni 8.560599212242208 2.031818033081975 10.489092832977198 0.08582599462688445 -0.69505068846579 1.0066943597555693
Ni 6.352155343054461 8.36686363939581 1.2946891797714846 -0.42550034680163495 -0.7889165226780155 -0.044128871998414324
Ni 5.343196007216453 3.969219755461921 13.59111662028038 -1.3014939629048166 -0.01765885073234378 0.8328921569280172
Ni 0.5360305743957078 3.2448707716426943 6.184753126857196 1.0339616801119549 0.3250956830296272 -0.5856031977652237
Ni 0.7318809474983795 6.026003286132098 1.4107033135344342 -0.8070695394379584 -2.314221416228343 0.24357268665347082
Ni 8.879824585419575 6.28669680184678 9.259256914479234 -1.3695878303592608 1.1596508294823642 1.7010156262545029
Ni 5.7611611191969745 3.62611434111323 2.4301612206316223 -0.20643104460616707 -1.225339172819109 -0.21261274793684673
Ni 1.0152053096266553 8.029102718082765 0.5543287939249825 -1.5213004003766253 -0.21101737842526883 -3.0710521141154077
Ni 7.570515779518051 3.179495019483758 4.296221779951399 -0.682383634521083 -0.7549031418470483 0.31976218663185574
Ni 4.61089927471771 1.8386343872272102 12.548877926603538 -1.4696909037304495 -0.44871612279646594 -0.5467844251258132
Ni 1.7673622150409944 6.374232422719783 8.363432493264492 1.3478951758771753 -0.8338594059372929 -1.24895475535552
Ni 4.47155610689675 6.750214288203417 10.30985546232268 2.128389278819451 2.69980435800975 -0.18649265381102723
Ni 8.501690204668574 1.3331060580241034 5.641277977222677 -0.6025678506440203 -0.7467432317440752 0.9582830583317172
Ni 8.34147499778069 4.546305419130253 2.5645388852845232 -0.986224521936992 1.1345666328202266 -0.2798784630630406
Ni 3.226997535896977 5.3580612408577695 0.6889410275493274 -1.111353427928557 -2.5694630545793102 1.3597772720267418
Ni 2.744410971979418 2.8832758030742958 6.105480772927258 1.2930201211058505 -2.951688392742394 1.836635404475063
Ni 6.676982775196904 2.990975156708293 12.105058714578284 0.3077620768471861 0.7771051318653842 -1.6055024862468414
Ni 0.0355928518120966 1.561843000923231 7.9669364213801765 0.09016961630756083 0.5507488090902 0.438286957043342
Ni 8.291737177051356 8.887772334099092 9.57398960194471 1.7763664323816761 1.1951155980478771 1.7704840054589703
Ni 1.110651884046399 4.855439727143931 10.388697313199144 0.18941959764983504 -0.0805331216590613 0.2244022843726071
Ni 5.346700743613322 8.464251157069464 6.737060028236162 0.3366715607926847 -0.33017926820012167 0.20785492153688717
P 2.9844072255078595 8.128118420381737 9.051315660746523 0.19053854174562668 1.4622005088906753 -1.5905926590145447
Ni 8.196548168561042 5.369486129584574 11.68843570506575 1.1601344539870018 -3.0453770779468066 -2.613230429473248
P 3.3587241112334003 2.1595431377290586 8.457110141676052 0.940290992629671 -1.028119876619197 -0.22587244116023034
Ni 5.212297322367479 4.081067760316361 7.656458171141874 0.4173018701512426 0.2540486464841302 -0.7823918341856203
P 2.859846502279472 0.20141195742169413 12.941294338141365 -1.7184934713242919 0.7682664505278318 0.8286837752736245
P 7.508451589308914 2.241853849747936 2.2688302013423205 0.273173026018407 0.4920937184511525 -0.19880746662263826
P 4.59176580567443 6.900632790989812 1.1505856416476896 0.5125720409101624 1.1046379635815942 0.22589300998552064
Ni 1.4816664066053353 1.6128042598173502 4.416423199824204 0.7503191220207917 -1.6800439090988422 -0.02130287524283428
Ni 3.7354694757221267 5.151346184924802 11.92956432880536 -1.0853580323060599 0.2762249254708533 -0.34525133204189573
Ni 2.4618059546969038 7.361022691060529 2.137010718295639 1.6327746916992332 1.1770476848025728 0.7011020368661925
Ni 0.4505885965776326 2.433869250137077 1.7838261972014087 0.05416902984323574 1.2832869529784865 -0.24845598288770115
Ni 1.5110381213434079 0.7254445588976186 9.798005729308736 0.4030993533986154 -1.3187517215439999 -0.9294262820010252
Ni 3.7865319212313784 -0.003514855058383199 11.182725239955404 -0.10697511790067384 -0.49951057974051394 -2.2971937713220956
Ni 0.6718285311737444 3.580837930232931 3.8320861353641327 0.8813672217102693 0.35199302164110347 0.15371391671810947
Ni 9.035697966639946 5.233399331014249 7.377457237114724 0.19633123716800382 0.22216002530564966 -1.8344458530229117
Ni 2.772237291140918 6.927300063468884 5.323071829223192 -0.13534826972672817 0.5260770173751327 0.24285971974684625
Ni 7.667084605487449 3.3583009672064814 6.7233004883347505 -3.198598371299214 -0.20273019871581216 0.8932909697310487
Ni 7.740444901458676 7.652982870851225 4.677840659776244 1.0268284115012831 0.15874093761905567 1.2588393614590836
Ni 6.251631040311692 2.9902208564863946 9.462284178229774 0.34974459192655893 -0.5450702706481838 0.4177147893189451
Ni 5.751254029697161 5.060066659291888 10.312736521219005 2.3002207310738774 0.3027522823374205 -0.421425662511629
Ni 0.7926628273302894 8.552403096416457 5.483757093932282 0.333447140318116 -0.04550904017539259 -1.4595563863996088
Ni 3.9147445613877383 5.72586538808204 2.944461509488417 0.47482464695805965 -0.1201121695032641 0.9325419448118715
Ni 1.8655868219852911 3.566138274689104 8.171121811934826 -2.867592493432739 0.21981106545749884 -0.8413032638098479
Ni 2.401710304091257 6.893347354700257 10.5737105998211 -3.1387178928934976 -0.3714544727998248 1.7851439214639901
Ni 3.3895768300656886 5.02405342308783 6.509812368336124 -0.3061811055133114 0.03016546783978676 -0.20212701791417448
Ni 6.857223733097873 7.507908861100475 8.711028753568439 -1.9640394796540497 -1.317086418026435 -1.1827992425743694
Ni 6.069311157408905 5.328726321252472 3.864291075325921 1.0713169808319614 0.6821506925746703 2.035842934749597
Ni 6.202169183078177 0.9847297409053166 10.807838029671844 0.546808079274897 0.3615680669240483 0.6396806963359176
Ni 3.0197121554059874 3.7794396593888933 4.189363195101322 0.9084211405042678 0.9566120983871979 -1.8492430659367443
Ni 8.178546149850611 6.753323476922949 -0.127962433253486 0.5212507996310829 1.4928583429858484 2.1648292668140394
Ni 0.7494782197482801 8.512121624810439 7.760354747803519 -0.13885679710061893 -0.6115258311682565 1.3807158219516222
Ni 1.3976907148283653 5.862770878356621 3.565431808139814 0.09536787267904866 -0.20581115163398103 0.8963348987636949
P 6.287359114236739 8.037758773068212 10.74503149765896 0.44703642110119785 0.1304660019337624 -0.2384633904513635
Ni 3.1091887195329004 7.125138293619754 12.862048660682692 0.031205221958210773 3.244724219122999 0.003671792424632386
P 1.2389013193355343 5.4708843167307615 5.827327966710584 1.8703554224353272 -0.030779447274701832 0.12904675298873258
Ni 8.652771019844929 3.715462122275428 9.01419673080256 -0.23921440968477514 -0.0837166615933655 0.2935281926359912
P 7.00627161718838 5.105435058004124 8.425309948174794 -0.0815376516641757 -0.21842189841945608 0.30234090583161477
P 4.618653848950155 3.549129724563612 11.171106256903212 0.49870325334787013 -3.318286565891182 -0.5058146675816708
P 4.088160022158846 1.4899361126966373 4.780915785098676 -0.7144149519250148 -0.36624876022916925 0.9255405737933738
Ni 8.02238760635123 7.246737008659711 2.347954454862836 1.8257820067003265 -0.021774672672930245 1.0883682798872933
Ni 6.8254051420302275 6.274361233583781 6.511064322728812 -0.032108450498770515 -0.548419389626075 0.008478212674340239
Ni 8.380790597151352 0.3165135718918105 1.350212115251451 0.06073331332431476 0.09246689698216978 -2.6019540852284804
Ni 8.369365708424548 1.9640873924254048 13.116384897332079 0.8900747767865962 -0.8554042219876044 -0.06657588814802082
Ni 6.475639808649164 5.820934812390835 1.4768490038466981 -0.907011918861567 -0.4748842965514015 0.36942870061904765
Ni 8.6144580878424 5.361133634444528 4.838431177018438 -1.731658033730708 0.007964249152399188 0.10270194444661666
Ni 7.453866009836403 8.922194180810607 12.621741488282296 0.9488106000649079 0.2489864014698744 -0.9312525365764865
Ni 2.146646443691233 2.78796721040246 10.57011571534893 0.620696441923931 -0.3367813468976716 1.0487293253394325
Ni 4.4818587440739 6.601166404112909 7.872868744561195 -0.18931572508211914 -0.12303345691511715 0.5026324131989472
Ni 1.205288965545081 5.911892380611963 12.642798422891415 0.2656839167302134 -2.1489596467716345 -0.12593237572946697
Ni 5.1361221987389225 1.7225273457540025 6.980234461358092 -1.9094444180169892 0.6704557727352453 0.16441201986190393
Ni 5.840794985306431 7.720593927326274 3.5568153079221023 -1.6198793237938036 0.07696854423625454 -0.5881537321012194
Ni 6.196843087608918 0.604552310406952 5.128930590037944 1.4081759750451037 -0.47232373491307683 2.7041500365729556
Ni 2.851981542648701 -0.0003063194803563479 6.946684659293356 0.7863729303205554 0.14207993202360694 0.06207980004988018
Ni 5.228257211208868 3.258576958601582 5.1743017483851395 0.6688403486190093 0.7724689186449536 -0.1558088515739252
Ni 8.124641280334448 4.214496110543653 0.3496190727282808 -0.1591345735130485 0.3126703127820809 -0.9438278021383358
Ni 3.4770112643235587 4.379779846971366 9.304991424762589 1.834386460539886 1.3100871038904665 1.440867551740854
Ni 6.306143029518651 5.773864638787729 12.61780992834523 -2.4112659052788668 0.6251030556320589 -0.5391014546592586
Ni 4.225773818739355 0.10157664354014823 1.1101220341344311 -0.7828435770110582 -0.8403879510844302 0.634274694828998
Ni 0.11404559415945842 7.281002476056931 11.314086623599032 -0.34783323383645903 2.334737276793508 -0.6796106997616359
Ni 1.81876501552842 0.6907053541659145 1.3571056833769477 1.6520741633587934 1.8870336544219566 0.32040727641502237
Ni 2.280313962281566 3.0274483320720447 13.166482390484292 0.25546969520137286 -0.08920133885702058 0.744623357187595
Ni 6.072181177765398 1.431910188309615 0.7886126030900222 1.5045805165187829 1.2504907323840722 -0.07334097478599627
Ni 3.701581158435857 1.789108138511337 2.7026862112902776 -1.2608612769851189 1.2287569402514062 -0.7618949997838491
Ni 5.831090269036883 1.14061232090888 3.208154748402624 0.2727919885299044 0.1993124312835148 -3.194095598332854
P 2.5388917578616543 3.7622195372499423 2.0846383660595778 -0.566446936551747 -0.47685401868326266 -0.4739980372917063
Ni 4.935643917811408 0.2615618808481843 9.042214384654493 -2.1501924907374708 -0.9856313684376833 -0.9137165845752523
P 0.7606703792602793 8.615396363728177 2.695834037689153 1.089159665440337 -1.7859350499067177 0.8267374501805309
Ni 0.7227097606540768 0.3186844847255672 12.075331926808929 0.38352065993573947 0.497049519794531 -0.06534947194008746
P 4.971261606338127 6.683090767237643 5.428974660499424 -0.7006639208875094 -0.3146287220600324 -0.7253405976985831
P 0.4410485385272552 3.3875255014134518 12.067361181171428 -0.2976550703201713 0.6589724546859941 -0.6745055173245867
P 8.072530173541095 8.254960441842208 6.752138673647578 -0.5514409500612181 0.7520080796874404 0.05939736812171062
Ni 8.445513235703523 0.4543729759835966 3.4973608125050695 -1.375550989921231 1.3886345625780665 2.7137572206454164
