# total energy = -381163.1921598811 ev
CRYSTAL
PRIMVEC
9.36308457590736 0.00000000000000 0.00000000000000

0.00000000000000 9.36308457590736 0.00000000000000

0.00000000000000 0.00000000000000 13.70382071194248

PRIMCOORD
 96 1
Ni 9.095216286965545 5.271220106033076 13.474062317767096 0.28977258224830094 -0.7429786224953204 1.2240366519576018
Ni 2.493408202929097 4.459759000539864 8.643712421657789 -2.4581286312686763 1.100108708252673 0.37907033747386976
Ni 0.4744050343697393 9.291372913094394 1.8073965162359884 0.6214508035914522 -1.2977051852863457 -0.9202834391594925
Ni 9.229361202600295 7.706549094075431 13.519627769846142 0.6645054686890814 1.0151705155473807 -0.3385430667837847
Ni 5.850972952489981 0.5151438162449956 12.259232965817127 -0.2175973456356317 -0.365722455412054 -0.4890058235544481
Ni 1.2740723982747932 9.241636206746115 9.54423144433893 1.4914095263544636 0.35574760358752927 -0.9629547527757738
Ni 8.735954723979201 1.0184882730509661 8.739625989521212 1.0494338076056249 0.8039425637732025 0.31193240617479184
Ni 8.783640914760786 3.270441245688381 12.369288536931386 -0.44941803395949703 -1.398610957064488 0.13198809500524367
Ni 8.33030843899561 3.0000634465130704 1.3207043057102164 0.004904122169836716 -0.3750319057384379 -0.019938133684823726
Ni 8.674242632198043 4.551451689784725 5.8316887430782876 -1.2767866899661235 0.23918021401272999 -0.998093505460436
Ni 4.989522337359446 7.716661225637204 10.909022771041524 -0.07951625035877273 0.2449610823605652 -0.04344367300593163
Ni 2.0215555454702274 0.33721992510711174 13.779739882869297 0.18146023359344232 -1.9459373707367003 -1.1651943850084125
Ni 7.108435238366083 6.4494238792513885 0.15046945394766867 0.3211732080467694 0.7180656613037246 0.7988993449223403
Ni 7.158471563427304 9.424693877268554 7.456097811927681 -2.2204741098718532 0.18824974571145 -0.5358078715096515
Ni 3.3147754521189348 0.1341289983906249 11.51447073105859 1.1378568735357242 2.9330903180252323 0.87176723672666
Ni 1.4340594279007421 4.073775193593056 5.238491443186613 2.155556840373178 0.24082494870500457 0.762120485531094
Ni 7.263572190076292 4.930010570501453 12.214914676630698 -1.5964190358883343 0.1369968610737447 -2.3791068040478187
Ni 4.73812351103202 7.637505706911988 3.8392898436111738 -0.13714984171184122 0.01599817520046922 1.5217590851805984
Ni 4.574541056850774 8.593523478314664 0.3676405875554472 0.4204324453604243 0.7205246643671784 -2.9534783947632812
Ni 2.2664376647911775 7.149576632886855 13.72615869391059 0.2336770248063137 -0.33828004293038516 -0.3701090145155239
Ni 5.37817462346839 5.354308120365648 9.951646416037354 0.1344807795201103 0.5276225074853818 -0.2389210468140724
Ni 6.262892504275784 3.441214548980222 9.001053615955875 -0.19783276141419476 -0.12173325004645486 -1.4315087362337733
Ni 0.8211275542194844 6.350961679711007 9.33923606617831 0.6103220406681423 0.3637632748031542 -1.1727847957611608
Ni 0.07815554127077438 4.372729127515156 7.993535133032476 -0.3194112310503402 -0.42343986472818046 1.1121191024499881
P 8.162737310698331 3.598261569985433 9.911782146280496 0.2389030490919434 -0.0003802661575541838 0.495581676999753
Ni 9.535271908513502 8.61732443982395 4.494893976174638 0.4724540898433541 -0.262270005952658 0.24142735817569394
P 5.196512052578084 4.877661563499716 3.0078104628595628 -0.3542468506722867 0.45645462909130424 0.2529592700746934
Ni 6.49119260045238 1.1400960181660726 9.7730717905073 -0.22183683763827602 -0.9900618934052109 -0.7295644059719436
P 8.127073320773519 6.705204629255583 5.4107619037346835 0.13586480435183051 0.28130902486198006 -0.03432654119601185
P 6.910190644331425 8.430418541457168 9.644461394285667 0.774515259651021 -1.1293154117236164 0.31424819879216204
P 5.58334790023982 0.6840201585605259 1.6013871159937563 -0.9004854305969588 0.23567065819757477 0.7374237541153622
Ni 7.271512085969241 5.201015696356985 2.5503357583879707 2.0367235375823376 0.41855554005268564 2.2532109379832423
Ni 2.839243102341753 3.668643878272333 0.3857862458579631 -0.45138004278187427 -0.4839399789957666 -0.22900147370751528
Ni 2.2984313254824555 7.718178045371471 11.276449880264002 -0.6766647297594346 -1.362230875773557 -0.20707022085206273
Ni 6.889573131647142 2.5751292068838745 3.4691493124196215 0.462966462067893 2.4054912075786183 -0.2237541092656469
Ni 8.045127602784037 1.0121213754009606 5.25378416955684 -0.34738920432050496 -0.20197326594512957 -0.2285134783275032
Ni 1.0032170817757322 9.133370857441681 6.83998810727229 -0.3507894882513055 1.8211735613940379 0.2388115178194016
Ni 0.6212125858601768 6.861952031547852 6.5066697795927615 -0.0336066323108518 -1.859340302271746 -0.4330398497117897
Ni 7.203058573146901 7.869157787439618 12.111861756622968 -0.1357123379343663 0.650646451318802 -1.416685812288328
Ni 3.149891529153349 6.549103279813092 9.452991928397395 1.1245627275299794 -0.02030734409878438 0.2210534225050322
Ni 2.721652120597018 7.77630407568211 7.597261295913085 0.33965224068756344 -0.2026715775637348 -1.0688340665091076
Ni 2.35711914087986 7.1510934526211205 4.941995319019111 0.38558319889172304 2.1364342606111144 1.3777320567329499
Ni 7.392071165589053 9.067707543883609 0.8614206532592402 0.26623001904167054 0.243335116721368 -0.6820884718781672
Ni 2.7157627402707623 5.881974126194641 3.329686164630161 0.40936770290583047 -1.8163915666243622 -2.43415875071664
Ni 3.9178704689309334 1.6234371806492907 13.651048027810083 1.0923720017300478 0.25421371130708476 -1.8662198030003987
Ni 2.471189602747534 2.1322178444781925 8.759907367461913 0.011272487590025748 -1.1179897022981522 0.7390556332918304
Ni 6.123869421470955 3.7720591496610263 5.507058421765585 0.18754474922462538 -2.024101992163585 1.1238541314987291
Ni 5.938564610601454 0.6333153092460551 3.7168047774522353 -1.5839083050158336 -1.0993016389703454 -0.05563532997611709
Ni -0.06491145785028483 8.179796851166435 10.896442530331896 -0.3009334839611269 0.8031583773090103 0.2607522837565509
Ni 3.2810028053195666 0.3282585166647289 4.918781422925495 0.3067806867705233 -1.138598122577123 0.9659881402854589
Ni 0.8527054939465561 3.8938447933869424 10.491782178175578 -0.04089905220720698 0.35402059359409355 -0.28173788486928253
Ni 6.7200451186309635 8.406430318252294 5.254099705513906 -0.5227808631223642 -1.0494947427505474 1.0215645919991825
Ni 3.789483850435527 9.216337151672121 9.148287187803774 -0.019210768600495944 1.323735033691204 0.15758754074090278
Ni 1.1869488944022901 1.7008324394359762 4.01987846867728 0.0900343762812772 -0.08419231567820339 0.16898009884856058
Ni 4.569185372356945 3.110407400638535 1.9606739593090052 1.7493832189246132 0.6485857121350315 -0.008870820127068593
Ni 8.27622726130968 0.6986790040911859 3.0582540821086877 -1.3413398912571608 1.371030219232742 -0.33604549717291154
P 1.9572405161203918 5.085063254448649 12.901119242870264 -0.5771504390121802 0.6750611327177406 -0.7600648885536458
Ni 3.645526421951945 2.4959549619890993 4.327241389039778 0.4771054725724364 1.5792060144441575 -0.7472996184681775
P 0.3933928159327639 1.8212417096993168 6.228921360079092 1.0498107313290694 0.9467909985317177 0.16097008405989052
Ni 8.683287372094963 7.853100097042912 7.997618374304782 -0.6090236335716931 0.1385192112555421 1.8821475299742485
P 2.455075733842152 3.6010517692497004 2.6793843469772822 -0.8955931355016641 -0.2739086186328509 0.6611908024935517
P 9.050179849176535 1.1361260702195988 13.650458153468978 -0.3675265985003283 0.1517817326924031 -0.8791614723082021
P 2.0010878421424154 9.00860775275591 3.2841478654969736 0.399555344801099 -0.09197838738152546 0.8070024336454489
Ni 0.2439514286938756 6.3293423169553265 3.656248090332859 -0.5287519931041346 -0.38049061486016406 1.011656074636219
Ni 5.726565645025828 7.166139929861648 1.827774333949918 -0.6466139331206412 -0.5364136234144503 -0.0012138178024430706
Ni 1.1955161169754596 2.2012050531329588 1.1006362336716853 -0.4530546022708198 0.943206366504253 1.1355575359785863
Ni 3.372573774462294 7.979286390615155 1.976447011928416 -1.9648282941039323 -0.7034535678175046 1.8824169815855516
Ni -0.033939309708441515 3.7987439412823734 3.5650216827100145 -0.9411872791916951 -0.35787930521855144 -1.5302424400612613
Ni 0.5530427745066538 6.181836279340344 11.586607681433156 0.2735998291431804 -1.5372440681900752 0.5180222653914562
Ni 2.670810570244767 2.3186836778603412 6.483113194596219 -0.6513753590650266 -0.255709836236637 -0.37736569607793713
Ni 7.570522198400018 7.769646922403942 3.036163756188602 0.041850103266566636 0.31256541177310043 1.2249277963133034
Ni 7.180727615947985 5.656099068975913 7.377671677506782 -0.20193007141201996 0.10453462677998127 0.16944341163822432
Ni 6.527493280142192 4.353066649478374 0.7751510627186206 -0.8596943647225258 -1.2654962046539688 -1.0495831886992957
Ni 4.919505189378944 4.157415629927614 12.937065061646935 -0.25270987306804865 -0.6069387260182064 -0.7460940281958506
Ni 3.190620947943826 1.3669354731170804 2.042746078943011 -0.6856209105114579 -2.164574470490756 1.9620221921137049
Ni 5.303672557878545 7.507274560715036 8.46016318918443 1.0174973639083444 0.4054927933314565 1.6817215539115813
Ni 4.148913948947901 4.934682749806384 4.995289061275091 -1.2471642391140005 -0.41095407355634384 0.30790117352821167
Ni 1.4628040981735615 2.191130373910303 12.28731192076213 0.8086124584450461 -0.3837230057545327 -0.23191504780988445
Ni 3.963037989906856 5.504772892770927 1.2300930527573795 0.5019235600573807 0.8620980890680121 0.04479478771718737
Ni 8.477140334506474 0.9093652651807381 11.310489374979582 -0.22680060940145455 0.8300531448173254 0.8840537674034968
Ni 6.273472790076528 2.1098868872792758 0.2516806551792868 0.9703749564992449 0.5358996598925093 -0.710834433662608
Ni 5.0831344589840874 1.697620901356635 7.321430436162241 0.11947813546369102 1.2349023910275119 0.5072724830741199
Ni 8.029781506830567 6.486052266908478 10.147844239739232 -2.2057298616831433 -1.0535501437668435 -0.7861649280748073
Ni 4.995861145755113 6.555339094276187 6.602500952310125 -1.2415522922438615 -0.22379396136464685 -1.941383947038063
Ni 4.282674978106694 4.252010875454094 7.581392739828924 2.312102827223444 -0.13921263777814089 -1.6243787543260542
Ni 7.705153994443298 2.492490620620714 6.882442206279134 -0.10088237473937463 1.0539658911480236 1.437288576140344
Ni 1.038703173089734 5.2452656350245235 1.6614101072807061 1.0222904144216136 -0.9407131677687541 0.03416970390317341
Ni 6.286693465785069 5.798670760912141 4.726050749517436 0.8972306711050869 1.9225477881681663 -0.30927877060202863
P 5.261529313286376 6.811896980317074 12.877508351982001 -1.0373881892950005 -0.4947591810984577 -0.18003532822145768
Ni 3.6811904118767558 5.632822440214275 11.578536702353295 -0.5635765569824874 0.6198101826642357 1.0025440850326217
P 4.502098869912402 9.102819111806435 6.930954221138266 0.004744970884153119 -1.4872551378664578 -0.5105241572421981
Ni 3.230863486325773 3.427095017132857 10.632315526555328 -0.7900264679127427 1.2527080517503653 2.1911663620466717
P 8.674813780369588 6.674858871485483 1.6384153073709287 1.4428835537296183 0.13189759217396638 -0.2255842204958502
P 4.538418275771772 2.18632711141846 9.849936162386994 1.3623113513025056 -1.9845823368024078 -1.3408629516207424
P 2.467257107140177 5.685471065928954 6.628675455810994 1.1976941574083309 -0.8501856539011422 0.3945573773658753
Ni 6.4403791393544685 2.6935347770044196 11.43071325616429 -0.017613085096072893 1.285715102804005 0.6219575680245418
