# total energy = -381167.8463025949 ev
CRYSTAL
PRIMVEC
9.24891476658086 0.00000000000000 0.00000000000000
0.00000000000000 9.24891476658086 0.00000000000000
0.00000000000000 0.00000000000000 13.53672165552036
PRIMCOORD
 96 1
Ni 6.378227373197659 9.077328929408987 10.38692994494171 -0.7327091222485124 0.6983267881139005 0.5856165675016624
Ni 1.5705489727158348 7.372106508338145 11.397635630771864 -1.6461873655607133 0.6133394873382275 -0.8650882820445877
Ni 4.027680420015434 1.34065794652862 6.783535167202381 -1.6010377656072685 2.5578619800052724 -0.41491897174136283
Ni 0.9446009171035747 1.9477844605295596 0.2500527355525799 0.6404700250064325 -1.0330679646530918 -0.7599389044987429
Ni 8.4917523868844 8.474549405362504 10.987608115546376 -0.27666484122174934 -0.09093169128456598 -0.22452826842751009
Ni 7.763761054319953 4.57119289804455 11.272515386510387 0.07574264224895343 -0.13913319069045715 -0.3077139972180701
Ni 3.7444878978547353 7.796252492000823 10.451824955612878 0.6796214983949134 -0.07488929310972264 -0.1442607417250096
Ni 5.934085235744479 3.6538485328469017 12.65709180495122 -0.22147148387905727 -0.04117030359072264 0.3755672094166177
Ni 2.89651039363247 0.06594198782615814 8.707022728560963 -1.1226881362150858 0.4740152636828868 -0.5168166751191292
Ni 2.2312359523045666 4.941103245339274 2.043070480331264 -0.4581602989285013 1.0631652982591044 -2.299917855121478
Ni 5.326089323752647 0.6571936644700115 1.2546791096868524 0.7603055438095422 -0.906497955339626 -2.343990677070976
Ni 2.5972525064698724 6.565147941239324 13.200685673430549 0.6843942371932084 1.236067872090523 2.0360702202690546
Ni 8.035401681899552 0.7588142660159877 8.965519723322947 -0.11243177013987088 1.4379488354321621 1.393006209283201
Ni 4.000174147409996 6.344653812485574 3.0906229178200624 2.000265294755303 -2.7546935538484623 0.5548980553718831
Ni 2.893449002834757 4.191432456491321 7.934413706125671 -2.193504780371861 -0.0027613647952210506 0.5861868381828356
Ni 8.936014760229936 7.305264601102267 3.8635427037925245 -1.9456447791969458 -0.6767596034660861 0.3562713373014832
Ni 1.772647009938913 6.857774356492675 8.721276231154185 1.0257955993613945 -0.274224864321689 0.17056981193318368
Ni 8.275235291493239 2.200862516112146 6.800185988510912 0.037873892227638 1.2892110317724055 -0.4053575533051728
Ni 8.029815337362335 6.073854836152477 6.556835941511514 1.2673548551292626 -0.24686395581023293 0.45746815795748313
Ni 0.6683154845130644 9.24190411930178 1.838679637130079 -0.4488871011566915 0.9966025227372062 -0.16883406018899955
Ni 8.78956744333871 0.07628504924332753 5.589569633807102 -0.03792402873928307 -0.9750733904161786 -0.3511640979819049
Ni 5.030660487315892 6.144072597289157 12.697214522230862 -0.37015092349705286 0.008069921492328037 -1.4869489194799488
Ni 0.35948959499326233 6.893465918693208 1.5527300134684785 1.4213014566834685 1.1668041526976938 -1.3307631441825791
Ni 6.26373505692909 2.1667710161714444 8.369010963508638 0.9645436945294485 -0.6490816779348434 -1.1162038140423227
P 8.046232161126508 0.5380759659116046 3.395226677735163 1.5087608731487177 0.7923553731562354 0.6107580997642965
Ni 7.032847064679744 4.846967790538281 8.699360927543363 0.7671068830020918 1.1194156361114012 0.005354579443694004
P 3.6526369250085318 2.17687083112946 8.796716854476571 -0.2941342016511064 -0.13118411104670955 1.3911321321889396
Ni 5.6992275423114265 2.443424555570864 10.578839377624723 1.0333798394665559 0.49566498074217863 0.26267829713467017
P 8.816176571208866 6.4667857323762306 11.90944560355227 -0.08828628324191892 -0.33544051659906104 0.07603420534744325
P 1.9610566532628493 1.2866165373713985 12.004121194977392 0.2087434947894276 0.3738026613170272 -0.9834479876331191
P 4.171667525570736 6.266297006327782 8.973695764003246 0.4082297326466453 -1.49338156247917 0.4276994113354828
Ni 6.7744786298334345 1.5349591485780651 5.241256427454194 -0.14414529919306787 -1.0105379018713756 -0.0860926180247098
Ni 4.263888455008807 4.894109509257151 5.274312973829143 -1.200951488003364 0.6658946357271243 -0.06901766482029403
Ni 5.4169136670564155 4.91127549511986 10.48741292996769 -0.8898729451884351 0.09165622815541634 -0.007826438022954263
Ni 2.4446176655796403 1.4915724892666624 3.544401499599943 2.794307054475026 0.07143270201968989 -0.505225370737104
Ni 0.8536535632330107 2.939591838755581 2.246513309765785 0.4292500436520542 0.047595747501092224 0.15241036741533753
Ni 3.195352079629216 8.896151937456084 12.711144312806198 0.1067591452351258 -0.40081981333581934 0.3979226942936824
Ni 4.2939381791833435 0.7607343407277863 10.953860675236113 -1.2093134868148143 -0.24762963033166388 -0.4183647641981182
Ni 1.6734061541701324 3.3145150978701268 5.939642908645826 0.6826808540465275 -1.5217313172664566 2.1720905763621428
Ni 6.009815350100003 3.54528477096303 6.067064282908727 -0.4535626522554898 -0.23106529821507946 0.5906934678039376
Ni 6.495050415995001 8.434547848866702 3.1535414353991738 -0.7589258898531962 -1.454931743143404 0.15134258827245547
Ni 8.023720302511299 1.9701020919340393 11.115909061606445 -0.5599412742227453 -0.776992774657236 0.16230962880692046
Ni 8.816065584231307 6.787390114889654 9.438600790283578 -0.8976155652483316 -0.7661915702766741 -0.2920498083182519
Ni 3.433890841151362 3.007608358170643 11.010566696746269 -1.05362342020694 0.565567105049955 -0.45800731829040475
Ni 1.23377748713775 2.6687373689337037 9.633475425050419 0.2640759488131452 0.7640071610308454 0.33685179512429086
Ni 7.669653346263351 1.3736210788641219 1.3607243920715786 1.8450688799543964 -1.968612443736713 -0.5175504679613602
Ni 0.581167584840992 1.8659500624082013 4.479368747051256 -0.8882518646452444 -0.23347133655341082 0.9486254806372952
Ni 0.570406472475011 4.746395091038773 4.588948964671288 -2.9410643373696446 -0.36452817799363674 -0.4732755573033849
Ni 5.4041501646369445 5.355038427066375 1.2004702951718103 0.41104483349793725 -1.8533115795791633 2.147616245369863
Ni 9.093995473872672 8.972843938950467 13.074428737540554 0.4286021256554102 0.2166807473586333 0.7002206627025037
Ni 5.537242048561713 5.921673192087284 6.829858356961742 0.5983535554523567 0.19401415899905294 0.69147968328508
Ni 1.4979542404763977 8.735951484262136 3.901635284274286 0.8232952572682015 -0.6021338484303952 0.9518319033897348
Ni 6.649978987754818 7.519118009031973 8.378215483514333 0.5290019043314115 -0.115117287391834 -0.03241723998844094
Ni 8.91772040676203 4.977719699019479 2.2492889090962795 -1.3217768815235689 -0.9544078916470271 0.37461512991599355
Ni 4.101061310012593 2.0149500797833233 13.11211529066274 0.2732149349999359 0.03025597067106402 -0.18570255380956407
Ni 7.43811601324232 5.516062033677229 0.06927714650185454 1.101371891235813 0.804005555800654 -0.4342187005112393
P 8.350641693830877 3.227612294440167 8.67012140830502 0.27878137334411984 -1.3058031318031318 1.636125353339021
Ni 3.815232847134829 3.2423088200521515 1.6313374652172619 -0.23210325256129058 -0.13936150465117936 -0.33556135844764146
P 6.990043087000535 6.429808571018954 2.6196801999604333 0.7173802052009258 -1.6157131082312561 -1.290239730147236
Ni 4.950426151454366 3.8889282002350756 8.346458409668323 0.7478202668583379 1.3745603438731875 0.344410067087523
P 3.42997855019235 4.576696002348597 13.29848924783992 0.3737270708840854 -1.0732314242458547 0.03044211853994112
P 7.1447681826348255 0.2617655612511432 7.063609880185107 -1.2835651463405378 -1.1893696967030354 0.004598675114275951
P 3.9823329907671274 2.649629110963685 4.982352480441155 0.5968980539527526 -0.4626466168346291 -0.07497902461005153
Ni 1.9377863836343077 6.295181367237931 3.916349382824384 0.1727195112863348 1.7480591007965507 0.5929794356246368
Ni 1.1070766033375146 4.859416829854663 13.33103155455217 -1.1064315651469074 -0.6439055330505427 0.2984693386913505
Ni 0.16356798307143208 8.680624475948171 8.046335748972231 1.1818615612514485 -2.505526660936666 -1.8098887325088377
Ni 2.522151318320525 3.7746486090068316 3.8885452951624915 0.8371005385824101 0.2166069566979044 -0.38806457055268007
Ni 0.9352040196701096 1.6826458200520533 7.723539373651987 1.548876510222681 -0.7777245106169379 -0.7134669861894486
Ni 5.857476474483266 8.377426551082172 12.882113277497965 -0.32306939662821776 0.9885436569884716 -1.367850793063496
Ni 0.5283035625373927 4.676482544090383 8.09080360642337 -0.20905434116162705 0.32610818345454157 -0.6179605310500066
Ni 1.8710832101203796 9.181656688315963 6.328525554863058 1.2259289838843082 0.053813703386346036 -0.06959564881095111
Ni 6.771481981439298 5.35905245608815 4.558775305038477 -0.5414745828771255 1.114708717554035 -0.6359253430585435
Ni 4.0599036391671985 8.591908885218055 3.299833370521817 -0.07617715868321075 2.0812349897311515 1.1503539775614706
Ni 6.80597118471626 7.779576698622341 5.469430855055138 1.7842550911011335 -1.1470228563057085 0.25147702910221204
Ni 5.832800369805623 1.3079722816370194 3.2337064043997246 -1.2003004846829264 2.0860545226069815 1.0769034737808034
Ni 6.272281054201258 3.0284276653780546 1.5336430280024924 -0.7554160769277247 1.257872369560124 -0.8042549528072988
Ni 3.158578394397466 0.8553017198497858 1.4435965184331283 -1.9228825457997658 -0.82584759137641 0.016024914673346595
Ni 1.057030725372475 0.27829799645027603 10.060383134671394 0.3358531786564474 0.5624596697692248 1.237261635288308
Ni 8.348699421723568 3.294824158267914 0.1447751130959814 -0.8261869769936997 0.3739528137416463 -0.10742428962295049
Ni 7.38911526264931 7.9002010454011335 0.9543520479737542 0.47455596667770533 -0.04587542237587583 0.5735742916251477
Ni 4.515468186394325 7.420681808850507 1.195886532998557 0.3125322445423198 2.207618336955108 -1.5377703730071905
Ni 3.6890406536484126 7.403099621821946 7.237150968081839 -0.3264730229931281 1.197764348524634 -0.21966168436382819
Ni 0.8793442738638535 5.027284633415089 10.386116965331077 0.5188995257900869 1.1700481135562881 0.2774271733090706
Ni 5.1301048192102 9.044513779710233 5.710614806209145 -1.55677236803099 -0.4395359989590946 -0.685061181353246
Ni 8.086807150339709 2.809801817413242 3.461474804641093 -1.7633314535745888 1.0908913034194632 -0.3683552650492108
Ni 2.017280806312096 5.569298787247137 6.30211527866103 -0.08127771313456969 1.85580889207972 -0.0030621838650915
Ni 3.146582551906123 5.559420946244241 11.109046366827279 -0.03769700033014153 -0.8812301819117725 -0.5179723859901273
Ni 5.266692792928127 3.8578056019441207 3.4284182582661438 -0.19079539495143916 -0.5118768146153507 0.2535655362001246
P 6.5250723934251464 1.2736588077411968 12.674662893282026 -0.3993370581427058 0.4855278923081767 0.048540885023180914
Ni 0.5129207674474918 3.246396840392301 11.682163696229209 1.1970315841236676 -0.698031625470985 1.7032185474430925
P 0.780068272218845 7.393758217877262 5.863187679370239 -0.7223007824309948 -0.6663870019825104 -0.1317726365603279
Ni 6.6466678762575935 6.821056164749706 11.003784467525835 0.8226108296066671 -0.10285492508471318 0.08825337312145447
P 2.518461001316634 7.635450859345089 1.9869471404533012 -1.7050121490084054 0.40293043192091904 -0.6596113738215736
P 8.055277599797698 3.9816300732425773 5.495759740806954 0.47637013706830855 -0.7837182663065277 0.2991277982109558
P 3.8756005140130054 7.144481466276127 5.113090515550158 0.40574321877936576 0.1710431520251764 0.11840521411448642
Ni 5.110811582944247 0.026484267520401117 8.310924079019333 1.3487238424260577 -0.3970685738235033 0.4696413029849073
