# total energy = -340887.6954223343 ev
CRYSTAL
PRIMVEC
9.12235314334355 0.00000000000000 0.00000000000000
0.00000000000000 9.12235314334355 0.00000000000000
0.00000000000000 0.00000000000000 13.35148592687103
PRIMCOORD
 96 1
Ni 6.520083267141333 1.8557237958878479 11.363035605648731 0.015945724695978988 1.9514816975936975 0.8857414395185648
Ni 4.915497851307128 0.759509784247884 5.903693167994197 -0.8610272246013364 -2.028313459141771 0.19474075275243233
Ni 2.831624005105382 1.6737784638802229 4.643619801545822 0.45095221121583623 -0.935000690765009 0.31752764087438223
Ni 3.7498800652651982 4.605237500998212 4.731392346092213 -0.7331374680351825 0.6634158351693284 0.33863871182138455
Ni 3.8333587182209152 2.6839239865275197 2.4315997005746044 -0.32591252250396774 -0.3584827431305052 0.2587558221518124
Ni 5.266535119844878 4.515300222067995 2.4972222596285047 0.21624545959342759 0.8599447901704351 0.06801724858023771
Ni 5.3678479730550395 4.802909769700806 11.836986547234238 -0.5792523158465315 -0.6424418040208225 0.07583982994845004
Ni 5.7449569266706435 8.183398392048742 12.245555759886928 0.5603891603934413 -0.23783835527285493 0.951026376769304
Ni 1.883592584520753 6.818156153746956 0.02915047923942671 0.42456883612630103 0.07360991217666678 0.5707301373081333
Ni 2.110866888939804 1.7895046349430823 -0.06396685197145487 0.6470019125876793 -1.0120563953984312 1.8233679979421953
Ni 8.020682980315476 8.801519913808816 6.772140268149259 -0.9290002502072001 0.9586008466824523 0.5039205358827515
Ni 8.514713133246284 2.3320383391541366 1.34299920480797 1.3738201232730531 0.7942299644711289 -1.0458257785393925
Ni 7.195082660301132 0.9339465074424993 4.7366130687549335 -0.28378551142693065 -0.2640291547356098 -1.0521869448707297
Ni 0.7762456531925411 7.747130978765581 2.4854863524022424 0.6241558612274413 -0.9110997157776953 -0.23746194577004268
Ni 7.984376015091593 4.366715335242215 3.712087068725996 0.933160809342793 -1.8495857939881437 -0.022885903459238004
Ni 7.876011582957295 4.374925453006409 12.659986084387947 -0.5182981447606623 -0.9711005218113599 0.2361378276419804
Ni 8.334893309504277 7.161284342171864 8.852689016656505 -1.3687596780310103 -0.21643494989641437 0.5352514847855492
Ni 7.082740882227736 0.7897239298554274 0.04900710516978506 -0.57858562879681 -0.8913870678401166 1.5352293517528917
Ni 1.9153201285028298 6.453426233249144 9.334037274347553 1.3843140808258416 0.2609991096600344 -0.046018632821959456
Ni 0.14008741493983923 5.340754584433198 1.2332992601840294 1.5721982156677567 -1.4296014919087316 0.12876804540604922
Ni 6.716286836999443 1.8923500434692273 6.819578328590775 0.8498424116291105 1.190404308615137 1.1463890793764515
Ni 3.6171042163120277 3.64886824970639 0.039052793498352605 0.1091207034887669 1.5683688146193375 1.3455503297940825
Ni 6.351930932977555 5.733371538270058 4.456151796988816 -1.3264997409205348 0.6624688978750269 1.6487870079670894
Ni 5.562354785241883 2.8664531491317096 9.351300415299733 -0.6808643696630791 0.28298795522629977 -0.053714458804320395
P 0.38762155329500114 5.705019264924372 12.20899884218889 0.11226310577249052 0.8050589367658328 -0.02899175924665975
P 3.9128873922967475 6.323724617281011 12.627995816637416 1.959618467768219 0.9074124967340953 1.7733813816114232
P 2.5274847537073266 8.667777095430086 1.1644528615547214 -0.21596520934884741 0.11431638875709345 1.0494870294410634
P 6.415541100943921 7.710331406475847 5.811140510438431 -0.48843349599074587 0.9985203085852093 -0.9328327365794128
P 4.58729383250691 1.7348343729866174 12.724500277543681 -0.5651621563020525 -1.8586579314927407 -0.44808825940447994
P 4.079388580554615 6.2905831085728785 8.300191878420948 -0.9874481099314478 0.7854000248843248 0.7827566737242068
P 4.893841385115797 1.0832611825139864 3.6870662787219595 0.2644145630994865 0.05457706391493181 -0.3892071687975555
P 0.40401898294071215 6.012871314022458 3.740298857834383 0.21503498422509415 -0.5254419548942951 -0.5694553843607676
Ni 0.5676666991578687 0.206087639410893 4.645329330511388 0.6015710339483897 -0.8771845510874894 0.19877404228154155
Ni 2.1741851416078872 6.751909625742976 4.896203162325963 -0.7861009076060913 -1.2629508125242959 -0.9499423996765058
Ni 5.849982577580835 5.5003957631814275 9.375359709290052 -0.35355728080442983 0.7404509709774602 -0.04966291444276608
Ni 8.586460440152273 2.3767743586159265 10.03273380408074 0.5901941595700158 0.4356695740251529 -0.32517975810300126
Ni 2.6084456372153575 5.41615995492079 6.986044851906972 -0.7541914604920043 -0.3784260190216515 -0.2499600782370534
Ni 0.8106624668600452 -0.3169324393452851 8.864732347181272 -1.525341146104902 1.706098954314681 -0.0467843073433904
Ni 1.2304047375544973 1.1804233650766942 11.195528221847095 0.9723919869292738 -0.008670788301120549 -1.383772349389759
Ni 4.282944766988215 6.9797403936993785 1.516781855287371 0.14967599920330996 1.2830049029616937 -1.101679909394535
Ni 5.7774781153699255 7.68204298960166 7.993080564392254 -0.17349444177914636 0.7743676783295631 0.18782242836604426
Ni 5.196466325904011 2.9304099665147865 4.883479304262075 1.7656544452808107 -0.1651563542270962 0.005614775083616136
Ni 0.7716425138327494 7.662283972849165 6.7259045338425425 1.0716285985351095 -1.3823579855407353 -0.2491869475164547
Ni 5.2071394789974645 4.880157855508806 7.115767449287169 0.1107150445590803 -0.4841338401741275 -0.8301716726730606
Ni 0.5110935143507247 7.50576263885133 11.037353005237428 0.4837774852759733 -0.18282857469587868 0.3041082821446827
Ni 4.790704061291369 0.6251265766835457 10.477845338666553 -0.7805254704008429 -0.5178849684826435 -0.2317471547734525
Ni 8.09658095786892 7.608234030901551 4.382171338050965 0.05494935965268602 -0.2848196091183998 0.5283766120425868
Ni 7.486441495046258 6.100829042336197 6.715223170631326 1.131468196400561 -0.3840927303891256 0.7309098642562445
Ni 2.6408482353247122 5.686573867014149 2.472775265632655 -1.2661083843166712 -0.8077789068001571 0.42225715727398894
Ni 2.6774288711407346 5.165204021928573 11.509487686326434 -0.18746401658536102 1.4402746553518615 -1.6243101058716476
Ni 1.7811576818828179 3.594125008925354 3.5825505673484543 -1.2336885732250689 0.08348731919137879 0.29954791646750994
Ni 1.5703401024044414 1.0036139178482268 2.557770965904133 0.1927841432466938 1.2604049061739908 -1.0574911306924626
Ni 1.2155353020482336 3.4089594862835506 8.021572409739932 -0.7026323574677898 0.7357723345548682 0.4069215553581831
Ni 3.9640455483207515 2.7618927382281555 7.079985931600194 0.1708768016506412 0.04776081232404678 -0.11801954864029351
Ni 4.272782465666756 7.145730730185251 5.944869645287555 0.6836923260301774 0.23077296378564127 0.17167487207190435
Ni 0.46901939751514843 9.07059284000069 0.3420280326445068 0.6812729179554073 0.3071704660097742 0.09495855305577194
P 0.5076042143009419 5.756916331547154 7.863304145128936 -0.5195767543627696 -1.2461882483539763 -0.9320138402225433
P 8.81968251877383 1.5165911981081805 7.751766046361123 -1.0222821868914975 0.512457112598853 0.9561035341818954
P 1.8174099129882728 3.40758201096978 10.261765073701328 -1.2312326554854087 -0.918626877392676 -1.7349125361122637
P 4.392896488556924 6.395107030064148 3.741286808672008 -1.1889966296343328 -0.1185437965748797 -0.9449986825179855
P 7.069969587927877 4.089769818349786 10.584417228422335 -0.09029688591404449 -0.9321979312088914 -0.36992055265380164
P 6.52988979669301 7.939083532092453 10.095833120275111 -0.6772283155723885 0.07151317754863813 0.27106806386026217
P 2.506375628700275 8.701256131201857 5.719389707717634 0.20760449608897794 0.921220349151465 0.28252567087790054
P 7.316656259682714 4.208196205921758 1.5545137320609956 -0.3838063094969584 0.8125557593635104 0.40954716590648826
Ni 5.929310559889099 3.0131314641655833 0.34926661980660506 0.32436574684213815 0.44002245167721 0.016848439015906467
Ni 1.690864631182819 1.2688828228093563 7.067835869544494 0.6424939974149967 -0.9957556013558786 -1.4139658422540036
Ni 7.027888173209844 0.8131017840713182 9.167771442798927 -0.19984079298315907 -0.8994333351833608 -1.1880856877842894
Ni 2.9320884794799107 1.5687072012046739 9.003761569164839 0.09856092569504962 0.04309785963073868 1.6668970873042388
Ni 6.522883829534231 2.2659651358585124 2.5824980161392737 -0.3157378959638111 -0.18766559107320582 1.0161614187057402
Ni 4.145060400315101 7.340666292966446 10.71945359646658 -0.14594892806070994 -0.8609179527169818 -2.048930621171491
Ni 8.36454095698609 7.2253232607325835 -0.0774423919284197 -0.9984084655976934 0.22976149180199137 0.10475754142406474
Ni 7.461564838220748 3.957285884694898 8.315158923105075 0.8026413284632757 -0.013320114147673836 -0.7211769532391966
Ni 3.217554274140959 8.764647362694511 12.475975451644974 0.5261158410328681 0.8039731599008217 -0.20037018312406785
Ni 0.05793515212069319 4.802955381466162 9.994107936706126 0.3787445787033348 0.756066308917214 0.47511569583591723
Ni 9.36719702776183 2.352071026498772 5.531200125032685 -1.1839595814310577 0.8289015477113852 0.5976986954771771
Ni 3.587264999415716 2.9797892636898817 11.236089852543445 1.3802694784428229 -1.4747968574984471 -1.0330936756847047
Ni 1.2230794880382214 3.7646035431223206 12.335584262347858 -1.8919218357521934 -1.8823161943416291 1.2278953635820595
Ni 2.925274081735629 8.398330152762288 7.891235877998033 1.872476582543388 -0.7177784690806089 0.028680912874460278
Ni 5.809670899358641 8.060118912642825 3.3218227697462313 -0.010659793706691317 0.6986610315248677 0.3905749956793596
Ni 3.147622315496163 8.525951872230157 3.585127632091104 1.224083188924821 -0.1291141158915583 -1.0474291184707702
Ni 3.5299310103624233 4.240863352270182 9.120052413882812 -0.07718888777717675 0.46208303102167514 -0.26165885473122036
Ni 7.235832211470751 6.254467712763493 11.220054580314667 0.9423213927961384 0.5048980693046724 0.31070958951128425
Ni 8.084502962402482 9.26493544983225 2.4782231348868513 -0.6894981340786771 -0.040203054581446886 -0.31961820485482373
Ni 4.838240643146056 0.5573511423048116 1.4317733837215925 -0.07217523661266924 -0.3877259562663387 -0.6147487089809284
Ni 6.238312025474173 5.923490498629592 0.5255050077328076 -1.291561277172137 -0.877833754635714 -2.048874314012258
Ni 8.009389507213173 0.04166361094736651 11.257785544852982 0.3645729151886431 -0.7984599433920765 -0.19296951978462248
Ni 0.44469008187391823 4.769138818630751 5.590293815993437 0.12386109502273508 0.764461989180077 1.0316572003484943
Ni 7.504823036484983 6.363954194325564 2.3402749117422386 0.48857747776777793 0.9132900385607948 1.2679109847430485
P 8.9562441442516 2.03215010428732 3.473082330492525 -1.1124119511000583 -0.4345794262847677 0.172707941322109
P 1.9119083684541534 3.423573495903817 1.440705079613729 0.08433321213144185 0.5146415218446814 -0.3490802188696827
P 4.962532703742892 1.061659450441083 8.22048349398961 -0.12929897820885475 -0.16556464540910842 -0.49708088725309874
P 8.860204011116666 1.6184422701495509 12.567739937895377 -0.3272502674787848 1.5265981584404547 -0.07038394904020136
P 6.535646001481018 7.968639956043553 1.1450943161020577 -0.19304228200408688 0.907856012029417 0.17098993018973777
P 2.2020448078877215 3.281775639763104 5.938781386847751 0.0025806162429826526 1.192595916949817 0.12679549506071067
P 6.981044890188577 4.032052690467497 6.143526215886545 0.34611779380724905 -0.4324119863198037 -1.6866912392120306
P 2.3428392051905886 8.705224354787884 10.238025974303813 1.7741398570440028 -0.5004968549131832 0.6749248642501925
