# total energy = -340897.6272619292 ev
CRYSTAL
PRIMVEC
8.99762307318233 0.00000000000000 0.00000000000000

0.00000000000000 8.99762307318233 0.00000000000000

0.00000000000000 0.00000000000000 13.16893086128602

PRIMCOORD
 96 1
Ni 6.452312299238588 2.090102794889547 11.220126542824827 -0.4356754875624239 0.15626882192947927 0.7872861861634441
Ni 4.814241077617755 0.39573614651916966 6.096371738726507 -0.5697937415367929 -0.8509063341172507 -0.5595556087485525
Ni 2.8960198716163674 1.5311074814385348 4.775410036777854 -0.3696338746513183 -0.26305290686526955 0.5238532702509366
Ni 3.532358750899061 4.251925641343116 4.82031537278911 -1.6380505953861917 0.6474096895490592 0.41124280844135624
Ni 4.856511909664897 4.232229844972066 2.724769915850751 0.7589940240869703 0.8803277247021613 -0.3396059608306603
Ni 7.509568972049889 6.263578162793106 2.5422756308366647 -0.07217857904677892 -1.3375194890698063 -0.03051436653877326
Ni 4.947954750468456 4.439858989356883 11.573500981306289 0.7762983196933728 0.6524022576676441 -0.02290338696073475
Ni 5.382944826100454 7.933752902665153 12.396507243070813 0.9003044249344044 -0.24452579459535947 0.32700601267846263
Ni 1.7980129650158978 6.53491047680197 0.35902674514217114 0.3422665383819589 0.3085100107568042 -0.2698863848473352
Ni 2.744706848513599 1.575537742964459 0.2542305322991998 0.5053539258951685 -0.648917127332521 -0.4372469458146018
Ni 0.4677027329486862 0.14952069663537962 4.868013570926257 0.7711843955055752 -0.32545178081746534 -0.1627973670766164
Ni 8.579485300180545 2.376839039180384 1.4428929877057548 0.9781761977112188 0.6030656162160453 0.08183024320393004
Ni 6.989110477172295 0.5811564584770048 4.7034020612833265 -1.7812972940243903 -0.09380387062603845 0.5765873674198586
Ni 0.8996408149173408 7.407526931554647 2.6958641527526983 0.12036156650990883 0.17185382085192985 -0.5636984272723324
Ni 7.661367866785383 3.784346175827177 3.8887455935034225 0.11862247233161508 0.5552531247184567 -0.8976808712686281
Ni 7.558651004578022 3.7738999357235725 12.76683050367386 0.06438325137207622 0.487060012681987 -0.6361351450765044
Ni 7.7576334334248855 8.753913216329101 6.888667314253632 0.1518210705707708 -0.0984151441458047 0.2914877651671947
Ni 6.949970817869383 0.7243266329202019 0.5178734778390374 -0.421045653464391 -0.7139529246869317 -1.3315128778644099
Ni 1.8665208652302328 6.385459961624651 9.1914127289679 -0.2473488658664514 0.7116273618775486 -0.4882005540443335
Ni 0.316416702714403 4.897478086401944 1.443196207595067 -0.7301681009942135 -0.9580660572249047 -0.2875141252314274
Ni 6.254409585131114 2.101349823424866 6.910198625681647 0.9384346561472225 0.0651880066615587 1.0011867996737789
Ni 3.4789848522818514 4.420388133556538 0.5735597655231089 -0.34067373997354233 -0.894009335954312 -0.09712393613820693
Ni 5.971947211683697 5.550795479961555 4.566261193897343 0.2124289140608148 -0.2469259193964199 0.7032321958353179
Ni 5.366749105009594 3.019440263951544 9.154329026481248 0.434254181734865 -0.046254145871533245 -0.20193855605245223
P 0.1962831419983877 5.499248098778481 12.41612835917239 0.042660257872687825 0.28432827130427807 -0.01833376531218133
P 3.9413097060660895 6.101602956638856 12.555903730522488 -0.20306032836172125 0.7888229345229447 -0.5120038271115182
P 2.5113085123486587 8.46869757029624 1.4011080272913374 -0.4958701547744492 0.19103784997954842 -0.1473949164786171
P 6.378144894265279 7.508642216898578 5.658346764914539 -1.1643261234708464 0.5406847399859785 1.1872248824458909
P 4.738310138570109 1.1898096523171575 12.443164416246733 0.1366603036699324 -0.7178257773787766 -0.40779932997744606
P 3.9341835887861114 6.28635114617142 8.118356230470182 -0.21458118451712724 -0.6886404140640721 0.09687248224903316
P 4.791819001529742 0.9611710586283642 3.746112577143072 1.1443432525910162 -0.7953280826313142 0.1479307343774291
P 0.2907977712355118 5.489719616203359 3.671550176527604 0.5875081280974205 -0.5080443282431379 0.14531849356556265
Ni 1.4253854132065358 1.0801916134005243 2.626253143979619 -0.0497899269389336 -0.04597029608252728 0.020680411167486965
Ni 1.9931444112922685 6.498919985488949 4.798876736876226 -1.4521919756147377 -0.6380791561767526 -0.32204661179065824
Ni 5.854042362142241 5.706112445222897 9.187462772546295 -0.5583795861625802 -0.3895802358662581 0.12717113323257453
Ni 8.593512594169797 2.414503088339461 10.009940873850804 0.11095569981497666 -0.4566893708099296 0.6180134957751292
Ni 2.3693800098557607 5.196514081099006 7.068739439202353 -0.8278476525255744 -0.08568792638712339 -0.9771025050310655
Ni 0.38924796069771483 8.943565110303066 8.988980611528683 0.5136256789856573 0.10184422443201172 0.184760758721585
Ni 1.2366332815153978 0.8866095577751788 11.304907543686346 -0.31903610709910857 1.3826400355575283 0.31151563035234736
Ni 3.981088196589806 6.6834342368279795 1.5534332829622843 0.7937972478090844 1.1982117204746978 0.13679271548273864
Ni 5.543390436373901 7.7752237860541245 7.898132213650374 0.07834125621406508 0.4625250036551002 -0.29377758964263595
Ni 5.209659608051086 2.820826737640638 4.825662660035942 1.2235599694314991 -0.8652739156928323 -0.31018637001796256
Ni 0.8770873735360362 7.49837592925154 6.829578125615914 -0.3774045197356726 -0.37336248845581504 0.5607665983375181
Ni 4.8848994096880425 4.634738502194063 6.869467286900419 0.7162664033114569 0.17704204992108863 0.6414920385130436
Ni 7.820049942984492 7.227520489252573 9.115901978906335 0.630579762475914 -0.33808361064886294 -0.46769626344339454
Ni 4.45080909633887 0.3183520913847606 10.366727210908738 0.6236812355838678 -0.42489433778651986 0.08050355397270652
Ni 8.230278560593133 7.107204276793143 4.743553953154416 0.5418725896464925 -0.13777719088319498 0.1489352643825435
Ni 7.164852046253775 5.907569220347531 6.9927284213115355 -0.2128073804461561 1.0951282243189462 -0.4690365795213729
Ni 2.346085164353408 5.110928692756642 2.696891681279685 -0.2164915141659626 -0.3270738898019206 -0.19949909337302416
Ni 2.3165909567223872 5.1032627181069685 11.267758158553045 -0.22577422501946923 0.030187065106341563 1.0401950626161762
Ni 1.266847298972679 3.2536393885481996 4.016550527442808 -0.8439481576318626 0.24350172420621935 -1.3005174579241603
Ni 3.621606171732525 2.309419851328268 2.548503785358383 -0.2272364113872925 0.39822814134924317 -0.09082010540736617
Ni 1.1350861102757093 3.2465042736453933 8.14982991512342 -0.9760591513682159 0.5022099809495479 -0.19614457507849445
Ni 3.6478702327682018 2.6515814522411576 7.036067271188393 0.08649268167660587 -0.475357122422762 0.4643615426432067
Ni 4.054184884446551 6.782687014246463 5.787929629124787 1.3003220540839024 1.2174988508390838 1.23752980134803
Ni 0.5399077563831516 7.370816630415366 11.140718022554061 0.3602452343475667 -0.7419229275372964 0.5512478602138056
P 0.15829967722890828 5.694388542677681 7.973748235899031 0.36470327011892023 -0.265151184155195 0.1303641862485755
P 8.33135785544575 1.6003441891019585 7.950530769953001 0.5146494922644813 0.8045606569731757 -0.4183022863912989
P 1.7433164158429342 3.2177208782178046 10.235208958028133 0.27300667564387177 -0.46278185686091267 1.0887824846065763
P 3.9927671110208807 6.1092239431743875 3.721829792654177 0.1762601774497416 -0.3593036963699038 -0.4967769828594347
P 6.844815599875565 4.260896271302887 10.498653056103464 0.3850844048784336 -1.0844134090046034 -0.34373052452199515
P 6.055823051688693 7.767017954034756 10.216456112529483 0.13801707480814296 -0.25519870092817337 0.1784831532429894
P 2.4636391066045626 8.512201076670852 5.678429459067204 0.2298388820071461 0.25156856037475384 0.5652256625501362
P 6.780338634688287 3.988295292475238 1.7030718484567142 0.8516018175223785 0.3658121869123829 0.3011386579933975
Ni 5.225999291107199 2.7186227399344873 0.661824645943727 -0.01582719684024371 0.8263528131476026 -0.8815903934646688
Ni 1.454645682644022 1.1180626078846505 6.991529937950811 -0.25134513151003807 -0.06955502538100279 -0.4156458226050584
Ni 6.747569292347783 0.6905450580115177 9.133206207129636 -0.5478971985740176 0.18496259031974596 -0.1773233286069333
Ni 2.6272248872450708 1.4159918949738375 9.250896913247779 -0.4944635042349097 0.34527215797750216 -0.8403514414195399
Ni 6.5045434997566085 1.9592953542123726 2.527262197385438 -1.0149679126182714 -0.15354036725472267 1.6016648576683061
Ni 3.9153335689609166 6.855288832847654 10.410355784240666 0.6846914567186531 -0.04640352696520396 -0.02637334778720619
Ni 8.228110133491523 7.3339263768195195 0.3199941575509172 -0.5254378411292371 -0.6477717008741684 -0.027092742451733987
Ni 7.630128120325681 4.017015704543029 8.32944046202105 -0.04502464433980633 -0.9707446811338378 -0.39360504075493497
Ni 3.0429060642876338 8.366286627265039 12.24023113121598 -0.48224716467437595 -0.1492168001787043 0.9300875697341079
Ni 0.08266206068546356 4.849448775744717 10.21030623732637 -0.32782439481469994 0.3643050062392371 0.08486748736835706
Ni 8.507063434035919 2.2948437023464945 5.717606908385993 0.2766051916284075 0.4154910421947489 1.411961410229465
Ni 3.796825878689967 2.5735360718288716 11.01010852957911 -1.0577559543180752 -0.04086614208674252 0.6501222033842159
Ni 1.0629971561757285 3.2128171737764055 12.533819065290535 -0.17097527490171846 0.5856034548755399 -0.41843264132157615
Ni 3.069467046876643 8.401377356295233 7.904637494955201 0.2372313178164753 -0.44373486753179064 0.04025679063751776
Ni 5.772487908826936 7.730478607729211 3.555452949412344 -1.2544186066835687 1.0357485968090485 -0.4904073318876651
Ni 3.224802007383641 8.248615715917117 3.56153714196881 0.3999075859341952 0.40516189235459904 -0.31117444496284474
Ni 3.3662806287351263 4.273214016954768 9.136998705151743 0.2027111725524186 0.322991749312747 -0.057065891775056554
Ni 7.213619161982918 6.27438430780984 11.430684413440243 -0.04157885188305097 -0.8694288184014705 0.045569975320315065
Ni 0.6393449850696141 9.14032512631135 0.3817475423080813 0.12693921972742656 0.015441531366050825 0.25604330831665584
Ni 4.699035514924774 0.3472911456872779 1.3589937538814063 -0.6278695626336025 -1.1919652253443536 0.8884578100084634
Ni 6.109808788658223 5.588945400753357 0.4235388010584783 -0.8654955447853352 0.963825071195869 0.1303425889820207
Ni 7.7462244476786575 8.854317689469601 11.188099504367655 0.08525392417349834 0.5949375877922721 0.8848114715051276
Ni 0.07302650639868503 4.7052528722990985 5.897349720339199 0.37275210856532576 0.46857738049676717 -0.032386386750505515
Ni 7.921588116601352 8.855568359042728 2.583559423659548 0.5558352224741717 -0.7281808953608556 -0.38291310825872765
P 8.469885256509569 1.6848678579505882 3.6529556891907315 0.7874412236840697 0.29354439058590737 -1.1287731660669011
P 1.9027542923596166 3.0831164407071063 1.478541569351302 -1.342300198287901 1.040464514227479 0.8199584795854846
P 4.692998110007015 1.0828369145120311 8.286312156518374 -0.17606245961663872 -0.026092069101361515 -0.8492867962359566
P 8.392154792896271 1.698544244649536 12.424438563616567 0.221306933276735 -0.4152668419990848 -0.9100003120659296
P 6.2806106628069935 7.659532351728419 1.3964463589040186 0.21997098807413085 0.26610377787645134 -0.8000355154093125
P 1.8183475926077544 3.2020650144966405 6.04902984645336 0.19878329825292215 -0.1636805410125181 -0.10080781274769736
P 6.8001783930245905 3.9891230737754375 5.972228837278221 0.4341731919852845 -0.09202749545190603 -0.005996583903067091
P 2.228450243496799 8.382689293680947 10.184245522566611 0.5116017065770931 -0.2368659640572566 -0.8664172852686562
