# total energy = -381166.1728607195 ev
CRYSTAL
PRIMVEC
9.26758153188453 0.00000000000000 0.00000000000000

0.00000000000000 9.26758153188453 0.00000000000000

0.00000000000000 0.00000000000000 13.56404235340965

PRIMCOORD
 96 1
Ni 5.681546458006344 5.774592976494676 4.56337753047769 1.1333702985192804 2.65494272161037 -0.30289035057718156
Ni 4.402221701862419 3.946738605182677 4.388822632496838 -1.1855811761948807 -0.938355466169855 -1.7018602336429849
Ni 7.232800591190575 2.1721079545557873 6.173646696040592 2.171618778932047 0.8711080058761063 -0.3271780194799527
Ni 4.823386944163445 2.7834439697034874 12.5758477073206 -3.7346630960146774 -1.347322076982525 -1.5887646046668702
Ni 7.221420001080647 8.757929412062195 11.12001908080159 0.9141565003261481 0.06242689897665378 0.3524283094063092
Ni 0.14844534055683037 5.12629784623428 7.053478449274422 -0.28530683316746347 0.5185223449563263 0.07295556642211952
Ni 5.89758305088299 2.541865922150162 8.505305334091911 0.6687894407764159 -1.9900819264643983 -0.8326062502564822
Ni 4.702871314041704 6.42105312561357 8.854715399694953 -0.1067545172494355 -0.05940148188676867 0.07740357489114412
Ni 0.3804119793129195 2.9006603408031326 6.202252939926841 0.45942373902195716 -0.05801617150346783 0.1363548566143716
Ni 8.026263118423207 4.042120554214741 12.331030640025077 0.9168101358989115 1.6200891258117647 0.5335602131260553
Ni 8.065446453101362 8.371221037862723 7.61497526450912 -0.6546308898878468 -1.3186987568188775 -0.6100944980383687
Ni 3.5052773593468447 7.821820270031511 0.28010431070151753 -0.39678703802734244 -0.4530875123912842 0.022679443875386746
Ni 0.9273976153993058 6.763230770596264 13.601343599896287 0.34619826933619735 -0.758873696459022 -0.2751682020715648
Ni 6.954819483415916 3.0371810842146503 10.699086454796785 -0.5378477847578156 -0.6295747182501673 -0.58826326109589
Ni 1.522533898045252 8.992464097658235 12.931157515321019 -0.7914403175411339 -0.3980983006395983 -2.077387590960603
Ni 4.495064333557252 2.318730361827094 6.614098702248598 2.065493667736494 0.3172468764091697 0.8426682624781745
Ni 0.34421651291769695 1.2191318141537126 2.8310867527956014 1.4567538839538072 -0.8971699930704807 -1.1477450791837138
Ni 0.13384148559329295 6.6268768436521555 8.926876496463635 2.2122581497199643 0.16918578710146348 -0.4753221554197685
Ni 5.630584027212783 1.7807472544319 4.7534917710770745 -0.14756898016263617 -0.3176723939823626 -2.4677342726792406
Ni 7.587498738810493 0.42989530409545007 3.582616253912282 -1.0516079324388083 -0.08961682912788438 1.7738215544726355
Ni 2.8932092052588483 2.1918757059437968 9.937193944021374 0.26170204926432994 -0.8909810906509494 -0.45101520324328775
Ni 2.561513194978376 1.609259925935075 7.093776674009763 -2.543189208484446 -0.33577578845129263 2.1948602659584906
Ni 4.534154992420179 2.9034684180045236 2.0309710287877913 0.1556162759471449 -1.7022189025339847 -0.008735065880152697
Ni 3.906165133276111 4.04606854394343 8.403453686398821 -0.324191426047803 0.6537109491767387 -0.6397686280640336
P 6.5491867077470065 2.7047436674123593 2.8391032108127736 0.6338772022802632 -0.5980277966818216 0.009104790514745609
Ni 1.1334900933020504 0.8084667417179529 5.2405495180048005 1.8547197727805993 0.3237463680905844 -1.5208309169393746
P 6.9357468006421135 5.526407143315636 7.139488093112538 0.45255657958847867 1.8542644304107354 0.9727997638906535
Ni 4.502274511981946 0.38868700285457614 8.222657999020553 -1.8874707419593753 -0.18614658332551814 1.494639089035355
P 7.722240106569644 1.290343910574465 9.678975027085812 -0.2810704264886127 -0.840299505135682 -0.3070514239334067
P 2.2050449392876135 9.227415824422799 9.884389118021092 0.6241867144653767 1.8261028803748554 2.490212142066782
P -0.10698774137299469 6.5993521265296105 1.9629608817831468 0.7733909162385906 1.6355221725373834 1.1455678690267368
Ni 2.5088547967661534 3.713464310673729 6.475554845790666 0.4960485893338425 2.6795893165144564 -1.4050459140565543
Ni 5.22602629100051 1.2276950594807265 10.58608405301553 2.9416927149822625 1.4809464220396107 -1.2862768888447458
Ni 2.384734077432065 5.807085117313411 2.113033609655371 -1.658355368381815 1.0292303360745565 -1.1689476814032578
Ni 3.2790649619582264 8.98852537551107 6.279121041350923 0.96256317376431 -1.150788751106044 -0.26907880134437534
Ni 1.2263327249968834 4.23193915896355 13.617484946634447 -1.3148163910453357 1.3428758682857131 -0.4136205646449134
Ni 8.911826870828854 2.9046917387655258 4.105008508911767 -0.9539695185580281 0.956786933402165 -0.47724791168757164
Ni 6.527556172472926 3.1542306388468866 0.026358855366983833 1.3292991580425428 0.016746366220403416 3.2009794699368808
Ni 5.685309096104576 7.257100189943204 6.810858725557941 3.1656846512903285 1.3680281991816245 0.7073197356411303
Ni 8.032731890326081 5.26816598418442 0.8496398261490404 -0.7893276420735051 -0.48043633671788233 -0.2976231886409713
Ni 1.8326642461223028 8.258304824589631 8.191745980851447 0.36515295606182924 -0.9431426031458531 -1.6979321022331726
Ni 0.36192871472396215 0.7979118931217016 7.42392592493409 -0.3516317816469428 0.4982347983518839 1.1920966087158953
Ni 8.673640758112851 4.6423632742797185 9.65374588990645 -0.3580955349944155 -1.2221525475610113 0.6727967621635961
Ni 3.152024954444474 7.543459191414421 11.302455130109383 -1.3560388880302323 -0.20697483292477903 -0.7929945494021311
Ni 1.2208185139908518 7.6036521334046325 5.909554912694069 0.3787738892793735 -0.49462111285869653 0.23886782497863376
Ni 8.032685552418467 1.4931834673627271 12.237384509012223 0.6270547800417909 0.25972975602930753 0.4979128962360909
Ni 7.55444127551887 4.311343797450407 5.640023985751848 1.0120774784443536 0.4555454870134736 -1.6905378666516304
Ni 6.936794037354183 7.372741072183985 2.8755498286672623 -0.06168924947968085 0.13705059712981557 0.07859450987545175
Ni 0.3902615649552901 8.200363904909445 3.746429098150124 -0.2390454882070787 -0.6832763215386813 -1.0332327723657302
Ni 1.6247275194965323 3.466121827413258 2.0602148822828052 0.035705423821409475 -1.0351071065703075 0.9395937094523302
Ni 5.0603312009554 0.5974754202222866 2.6696881135444337 -0.09185060355440956 0.4217583632606995 0.5982111163372213
Ni 5.89105867349098 0.39659132313532314 12.919357103768112 -0.3785106083156578 1.1054828280803928 -0.4061029161116296
Ni -0.08997894900430563 8.763869931818272 9.728374943634638 0.2410560908792042 0.44327643983813336 0.5998892753705927
Ni 5.634263257077311 8.350609936556143 1.0926432277405635 0.8004731171673634 -0.4644862411465291 0.666987868791303
Ni 0.6003548578014026 1.8138139853050448 10.049042531903046 -0.5313359517812268 -0.235723108702065 -0.4804525346677983
Ni 5.366272602184171 7.356485734193094 12.109407549006521 0.011638355569876732 1.1454853366152595 -0.017980752848136775
P 8.929518683955768 7.5355168740494305 11.851609380272091 1.1781347472191646 0.26285518903216665 -0.3556874397735552
Ni 5.351824442590216 8.313382061579288 10.023189686487203 -1.132609766204172 -1.0757693601763603 -1.2169602047267944
P 0.4613225997972217 3.246526483231878 11.578130463601182 1.303341814746833 0.0698527591270797 -0.08611910038727104
Ni 3.1608291568910794 6.304541090709653 4.238641473920798 0.7791365604731162 0.38636404292180554 1.51706296525651
P 4.702287456405772 3.3040966996511534 10.162844725969714 0.76388400518942 0.9869940531131647 1.9595181947449285
P 3.9006601898516022 1.060665437696341 0.41092085768578734 0.23557707004250397 -0.15673650559451716 0.3184745781686838
P 2.09793949962928 5.994475615703262 7.941923492775491 0.06575493490862225 -0.817787697186411 0.29831275850882816
Ni 8.395149933354444 2.818317878973567 8.095087885843702 -0.4672838584963243 0.1357874141466758 1.2508275468982006
Ni 0.701606892969972 5.42818004675609 4.657715949830294 0.13287229738240988 -0.0625117453809762 0.45137695745808065
Ni 8.214256009612036 8.254940692496875 0.626732248331432 0.49665614101085437 -1.4080695313742266 -0.7185680548614398
Ni 3.659035804390663 0.40153557787770616 11.64698210700809 -2.284805939180704 0.13799213510747846 2.081991665391518
Ni 1.919445879501262 2.057041662369418 12.905819947437841 -0.020528716080971093 -1.1620105879637923 0.9832212163342937
Ni 5.207657944422436 8.516267956275165 4.880831121474012 0.5554387583667015 -0.05119272082373119 -0.6318743129176214
Ni 8.147705506697223 6.927415244853167 5.199667435633526 -1.0752456264624062 0.2761174533587116 1.0631676122519498
Ni 5.597999210578822 4.852153517210038 11.612786584705479 -0.6884709783657433 0.20511746800106612 -0.28612212997990727
Ni 3.755483525297843 6.565228891362874 6.601836765135857 -3.617745007968679 -0.8127565625204067 -0.37275596522006765
Ni 5.846907915116635 4.841264108920816 2.436332264318086 0.3266044063646698 -0.49456943368515466 0.1843154436540503
Ni 1.7008792368689063 8.635736349684835 1.5684102800991315 -0.6358849767389112 -0.011542196311644637 1.960986808870655
Ni 2.560873731853307 3.8697620730547793 11.758790844289218 1.832936872577553 1.1491208764853178 -0.7023400230383517
Ni 7.2881651232074365 6.301751548671308 12.354631463130891 1.4391271720109795 0.10122201746698051 0.2696845532491743
Ni 0.7127233570065016 5.492682414154377 11.348518717310021 -0.07319519323675136 1.1416849890325629 0.5804663907592907
Ni 1.4675493368708217 3.8437757744650094 8.688948949272117 -0.09134281068005559 -0.20499225527711146 -0.15606827588289895
Ni 3.2272591812460965 1.9604549277393972 4.795038339043529 -0.961413376430583 -0.6444266956613354 -1.0378975248312512
Ni 2.955135184993812 8.685818360233736 4.015838619774397 -0.48214380632729226 0.24215626592191844 -1.0634131526038524
Ni 2.8534883508523743 5.51128245027052 10.140640527399375 -0.00324087553480087 -0.007264909092529423 -0.8907262943276659
Ni 7.27279947304273 6.6262744508531775 9.512801729834127 -1.1509841549463016 2.060144744719755 0.6998257412569302
Ni 2.697626164802893 1.4498667913254293 2.551558885664798 0.3517703641073361 -1.00943849815961 -0.5422649399889047
Ni 3.7494688648895833 4.523080232500502 0.838773586813625 -0.7405980380782858 0.5770452808928836 -2.1435415610798567
Ni 6.248286870866607 0.5455259919965543 6.9932271215206185 -0.1195958919884779 -2.4735688770831463 -0.5174129139422314
Ni 5.1217752664511815 4.534080851767997 6.3494907146112585 0.6004407769986885 0.26399727305640985 2.499150582206993
Ni 8.51503536793264 2.886443870747246 1.5241103136622705 0.39501169129447455 2.0967935062910406 0.04417515185531747
Ni 7.432118467000194 0.9399366531995761 1.3413702876805322 -1.8430667619227032 0.39201738455284096 -0.4797197702668318
P 0.29181389995550244 1.0539835114184437 0.6108976585416743 -0.14635927612525115 -0.09608263935788615 0.15010383076934794
Ni 5.487297949289663 6.104676427590191 0.5856935438324242 0.3397489141664278 -0.34490191912227697 -0.4578075435747728
P 4.267026222608653 6.948322908768474 2.44026635267449 1.02840192663599 0.5734624486376317 -0.1629341497647968
Ni 8.05993224209533 5.318108981010479 3.3477006707156565 -0.11887572599300171 -0.8340224138777184 -0.04943537181299228
P 8.551670117692039 9.3626669091657 5.6144009763577705 -2.303184698798207 -1.3634639768497099 0.3008105852300174
P 3.8090501464992936 5.924959486701171 12.516016201009775 -0.7081008367815289 -1.5594332026926045 0.25100857410622573
P 2.2959135761181027 4.360619528406828 3.824449159957483 0.7166081029215916 -1.0975980260156775 0.7273954233450828
Ni 6.4572615666229245 4.675847046321388 9.046443126237447 -1.3321376559326026 -0.49209397556146856 -0.47304338668792073
