# total energy = -340862.1367288067 ev
CRYSTAL
PRIMVEC
9.37861751965177 0.00000000000000 0.00000000000000
0.00000000000000 9.37861751965177 0.00000000000000
0.00000000000000 0.00000000000000 13.72655474520000
PRIMCOORD
 96 1
Ni 9.695239852177018 2.5004989201244774 1.9804676977252529 -1.0861406761083552 1.005041911753811 1.9573867502242224
Ni 6.366186949754349 7.629224155075104 10.360611513352348 0.1498788592427354 -0.40749876801789175 -0.8086091160109364
Ni 4.057527655051905 8.55578469252657 1.3004644550480442 -1.0513032567141958 1.1779565697700873 3.444819294208809
Ni 1.0056973137560925 0.3075004905677031 2.2270099867111623 0.019849687736075493 1.4976220829230789 -0.9709254296860763
Ni 7.741054792744735 1.840291125864687 12.259845375851228 -1.9221502956194314 -1.6044069391898175 1.2532446409801257
Ni 5.022878155385088 2.322267669011287 12.091365073579459 0.9131218884140466 -0.6122753077397713 -0.5926066256662504
Ni 7.2075896383262235 2.899877977028504 4.874752267146731 0.45060536939937884 0.3226706185279023 0.4709175985941696
Ni 2.975619693719207 1.644662538884575 10.8238280074776 0.1840112821500702 -1.1128780921031995 -2.1493154874491567
Ni 4.117804031125598 5.892819977672888 9.573668582145453 0.7268938011183159 1.5646975364153377 -0.3533523638824754
Ni 6.22260969110923 1.6471103581089774 10.349205238483696 1.8237624051671366 -0.3005089948291986 -1.4323286610319075
Ni 8.535564392726526 0.3944927970729395 8.57121814584334 0.3494000641029466 0.22833195844431645 0.23215724572767757
Ni 5.0925331491767984 6.230337672108876 12.252322786579606 3.0574160113892117 0.9065748313241483 -2.4097330135741077
Ni 5.4152982779423455 3.917382970491579 9.437953418733349 0.4953333084343727 -1.109104226883064 -0.8077105154560671
Ni 0.3853514583831885 7.2592939578056495 11.929310062306303 -0.9452051421018366 -0.6988219825827642 0.4965412126995448
Ni 8.13396260342333 3.1637172506717515 8.6617583834313 -0.2750776992402876 -0.5627576606256179 1.0603005751167995
Ni 3.363697516273023 7.801434333613328 6.754178489025159 -0.21255618366729845 0.9465184615966215 -0.0880980784905128
Ni 0.6721580289560877 7.883581646205436 6.8904976354183045 -0.3427393642533194 0.7173290402480162 -0.1219250543422868
Ni 6.622654629871235 4.122990406723661 11.5075067304385 -0.6415218633097145 -0.10384222869864698 0.4159178453195224
Ni 7.608872554627007 7.79337810099355 12.819929860938787 -1.4482646155358736 -1.2184144206748178 2.0178007325359055
Ni 3.240209256779896 1.259351408557574 7.331449291080983 -0.9039049978014692 0.29558456094438773 -0.3986811697262617
Ni 9.199992564959423 7.678808906950257 2.0290864519754517 -1.8498701579977819 1.5968651222868173 -2.8095189863287744
Ni 2.4489727943816932 8.099646241193106 2.9578528403141964 -0.38209421190185805 -1.2876408590718083 0.6331200123992644
Ni 2.2505493793216127 0.29047267223887185 5.121912607040258 2.112462066066233 -0.7869671122611286 -0.5182325816300495
Ni 1.1277881592092347 2.495987805002111 9.071866579004737 -0.4628278796074996 -0.8160028373718463 -0.040468649538007724
P 9.313342538699375 5.700408256570056 7.298326826886264 -0.16068674849151682 0.23423495419231272 1.1913088227072772
P 1.5604331731590666 6.86456669528976 5.209254735986376 0.7862078654976008 -0.5728533542987231 -0.8022307232884184
P 3.0444118546808605 1.0061850018774294 2.069511107925419 -0.4930216295820605 0.7406258059924277 1.333748194952832
P 2.059019248284274 2.9607264487829967 6.249961491822054 1.3149575446088901 -0.2023689587216515 0.19260133781192637
P 7.1448279285572545 6.954854648061107 1.517799852736506 -0.35153613660934296 0.41688380877721753 -0.4712112185751884
P 4.615930553982623 9.13305737030594 5.135721683768265 -1.8173076506807282 -0.18539479276115814 -0.10048565352158823
P 4.82491429259319 8.230468579741721 13.320029644963682 1.5344297386697316 -1.515367836942274 -5.338038251505871
P 8.277614891010192 4.428161248650209 3.7040972599337576 1.306587318267324 0.041359279673077155 0.8430001918962966
Ni 1.7043105475711617 5.079281162341241 12.461954587674489 0.4022884274615458 -1.1319973294311538 -0.33148513149573877
Ni 8.969156647065878 3.7398644943249577 11.304161416800003 1.147305420543134 -0.20349047392060438 -1.299129062217066
Ni 8.620422125839141 5.264658920155561 12.880930266300311 -0.1339164223762081 2.758128033451308 0.49981654101670697
Ni 0.22387041851437575 6.139383837479548 3.3704866976390955 1.1961903191692949 -1.1444718077490807 2.334416660229296
Ni 9.390622348695832 3.3708440229741523 6.59489579714945 -0.937033919144954 0.40245503494639717 0.38338670546103654
Ni 2.9651156418750286 5.400273732358083 6.381612900176942 0.19582447273491435 -0.028028624002442055 -0.19172459163392785
Ni 2.9057677489554186 9.084494887762048 12.63828666869978 -1.1348605099115616 -0.16584412432274018 0.3360982047877179
Ni 2.6258253886903358 3.4296479560661175 1.4529279539809838 -0.4463375952619603 0.33107298365898463 0.22609124203925582
Ni 1.9455004594253993 6.818433274734835 8.445908558789373 1.123296716333362 -0.44006281799684216 0.0609549424168176
Ni 0.38561781112638016 0.8216541332430467 6.197237716596678 1.191996335692605 1.3561648720851356 3.3089100097722883
Ni 4.57087567446527 3.2586288619780817 6.1743276292351075 0.12560404585577079 0.1675189409220018 0.24066965407406293
Ni 5.102549512899642 5.489689473681655 7.478899918843643 0.6670112658300706 -0.42657455370242015 0.05216614048059403
Ni 6.197662567979305 8.878493549585809 2.5701323430954366 0.5284079795011544 -0.9381112113695327 -0.1261573472560795
Ni 8.109587575974205 3.2882559153492963 0.09203894069930119 -2.675093742636948 -1.875165699339777 0.8639721661622735
Ni 6.194614517220949 0.3219407482681335 0.1115595956175813 0.44682019132533374 0.789353610215434 0.045335490712005794
Ni 8.295968845884351 9.00541438316373 11.170725257493375 -0.12286067878267871 0.9665172733160516 -1.9800885626971123
Ni 7.219453589739514 1.7540359787120867 2.2967409473063887 -0.42081039752513333 0.7821658342177432 -0.07022942574020809
Ni 6.2899481663245895 4.498632182183387 2.77254448427099 -0.39730640086592217 -4.277603721914368 -2.58121145336449
Ni 7.699470001783049 7.517890584144526 7.391667519724825 -0.49870479600976686 0.14623432051161267 0.24725090683600645
Ni 4.40522114971194 4.091206271277302 13.459875151618801 -1.1089949549987095 -0.24018885778290247 1.8529089448241056
Ni 5.636727442264721 7.45516638884643 6.007056230787191 1.5174532587163931 1.8160686360673044 1.2381350390321966
Ni 3.1927628297444497 2.2282188905350147 4.106353676753671 -0.1452981818505885 0.3729377422135707 -0.4852018764273257
Ni 7.708098330083625 0.26609952051328983 5.610976571596363 -1.4288196194373843 -0.5980712483252475 -0.7737187318916546
Ni 6.260405520512837 5.15281890386821 0.1860445775340705 2.708217007553478 0.2453521471513968 0.31542653537097937
P 7.806161156943207 7.534078078325822 5.177422769589656 0.48941102941266673 0.19919930274441824 -0.4456089446260519
P 4.932065000021532 5.700033111861336 5.237188948859489 -0.9132273036436593 -1.631386810212771 -0.014690255022323087
P 0.5653224430830713 4.038807934086742 0.38107105725668566 3.1575262838492524 0.7356784892894813 1.243902023422961
P 5.956913451157815 2.5208974136611637 0.5111140326729344 0.42136806980081626 0.7881313077725588 0.01954912577652117
P 8.697570635187548 1.80618109322426 10.504576108909223 0.28167900660688905 -0.8447297729928935 -3.5525253767382368
P 5.165752017701355 7.618588802582872 8.30235568455032 0.4044705227145292 -0.42998897870060787 0.29926663778166523
P 6.634884347375529 3.729951295397014 7.220277970236928 -0.6545496430279502 -1.3054046108131323 0.4816090168697447
P 9.162534365793666 1.2740289452862703 4.321599518414558 -0.6470754461380921 1.2768771927974008 -2.7130874482719016
Ni 4.554303656957535 7.336057943827617 3.802462078283861 -0.6638444380663148 1.4712703324024274 0.31866946778830924
Ni 3.092261562278182 3.852867459209342 8.3876936028901 0.07122495688425798 -0.43591562859768795 -0.2756957924402607
Ni 8.39679836497075 5.076917750676301 1.5560149063521087 -0.0448292404995486 0.8243987747450253 1.1351551583338448
Ni 1.168200622956169 6.741069057178915 0.3394328081740066 -0.40578229954741724 -0.01506152231881277 1.0822441692674265
Ni 1.8181857239033214 8.079557242041114 10.563380042001187 0.8894973070165714 1.9525839295189407 -1.1363203822865398
Ni 6.469370501887969 1.296894015282795 7.274099981597083 -0.601175598282184 1.2180801772638505 0.7728340152938561
Ni 7.267706577898711 5.350520165364004 5.994647381684484 0.7537451169832052 0.42833858758137844 -0.6876178863368287
Ni 3.9122341093643884 1.6762684805942916 0.19664804272606026 -0.20518225980073052 -1.7256920459552603 1.8874745986141173
Ni 5.685683826752769 1.2516890778819543 4.188836743860085 0.14529715340932395 -0.3732177353478347 0.15793438255736028
Ni 9.113531088217028 7.159627387316286 9.438846263140105 -0.12615246216007306 1.5478385558764698 0.5148757493426745
Ni 6.618471766369 6.27467039806194 3.715325341065767 1.8598059290542552 3.280214955830441 1.7217623718835506
Ni 3.98278007183931 4.423640754910124 11.3295418320685 -1.66538810685888 -0.7460364354850377 -1.2992265070268785
Ni 0.37353252433494377 8.556881990799578 4.110952013020815 -1.376104805542172 -1.1076399836327118 2.424295741879631
Ni 0.764026278812921 0.9389403128392491 11.90379178135735 0.16783390105925935 -2.724058602571425 -4.355653415029944
Ni 3.432977365356013 6.526204925259151 -0.2535921959245427 -1.9918634438448535 -0.012444139300623729 1.9765247566052537
Ni 3.63274192274977 5.124467342506645 3.5663647558505063 -0.6401257542931363 -1.802947011083682 0.18412621046137967
Ni 8.514875162040582 0.6103126101381696 0.6767694952880364 -0.5767236358874067 -0.40700125955618294 -0.28685103772613174
Ni 4.959281748639216 6.189953344215096 1.796064378291835 -0.7165661939400627 0.8429184308157676 -0.523874353296859
Ni 4.76883015863945 9.209596269502674 11.145825027452041 1.080097555238069 0.2801818532360723 1.7832047954597483
Ni 3.6621063748248806 8.981320714246145 9.249721747547436 -0.8361638857007534 -0.25181718605045017 -1.7850814436571707
Ni 1.2808847148381406 4.573079649629004 4.9202423145262 -0.2475617532082059 -0.07412464702955622 -0.6831809336113976
Ni 7.491742997946695 5.586054770734278 9.03726229321057 -0.8177478450874109 -1.0685946968047921 -0.4124455705002058
Ni 0.7953424212351506 5.047994093633937 9.413218252363851 -1.3804831371155257 -2.0776709265289766 -0.7059200270801261
Ni 1.025054780726079 1.9150011946064087 -0.1369587681215143 1.3125013697589136 2.370115399182486 4.048271604340312
P 1.3775032345691494 0.2124313184837107 8.756114780568724 0.7939486857852843 -0.49806304866071 -0.18534799868362273
P 2.2800638892802114 5.956407005801042 10.570408378119069 -0.04337990964753174 0.19380435698109202 0.540157920948231
P 5.086343261482908 3.284682661998732 3.989541117352229 -0.836262873172463 -0.12625684894842126 0.19794846105645264
P 2.717182503881537 2.7106925004206692 12.521541635345907 -0.056661971468418545 2.1575730994722586 0.0193524363846828
P 2.6512508213238792 6.071726489261776 1.8720546283520663 0.3977550583675666 -0.027394589962868948 -0.22026512227578193
P 7.560675838174118 5.9955439775383255 11.200759342873551 0.13995774347428153 1.4000320057817308 -0.6557642321613416
P 4.652751007143556 1.6208971215871206 8.939625255595386 -0.15629761828488567 0.4858911891848664 -0.1383816572364133
P 0.8255068694016081 8.902043258675748 -0.012370396770064122 0.557943012845794 -1.0272307891460244 -0.2276048504703048
