# total energy = -381163.66988429683 ev
CRYSTAL
PRIMVEC
9.29580271674811 0.00000000000000 0.00000000000000

0.00000000000000 9.29580271674811 0.00000000000000

0.00000000000000 0.00000000000000 13.60534691009896

PRIMCOORD
 96 1
Ni 3.7571495845287575 5.324514851348478 6.8662376468526025 1.582629695413726 1.1144359235086227 -0.4965556108772481
Ni 7.293337942604133 2.7842415945482184 6.452607898566517 0.16298942848276446 0.3061001157637309 -0.2566035516955
Ni 8.765727994839326 1.3384747207969336 0.8108514755030571 0.4272697799972319 0.32444930769487995 -0.3560808185572319
Ni 5.4523507279234416 8.579923493604568 3.200712140091526 -0.3276238487681196 -0.30837194251704314 0.2748455286248234
Ni 7.889784521187572 7.936607478597992 8.506565667834401 -0.9828643472155073 -1.0611963474581918 0.05935237381638811
Ni 2.6176329255653004 0.7356939823605143 6.903693224040176 0.1421596362216068 0.7678776997298453 -1.1710945525429315
Ni 4.325541431036626 4.316347882321338 8.858821738989096 0.300421834432031 0.2159153299475185 1.4034723989218474
Ni 4.594459702810706 2.96643932439619 6.876849735035994 -0.722601344390549 2.064506621232877 -0.9775413923406971
Ni 6.089540809054006 8.021970833352784 6.47941048603951 0.1506116236437019 0.20541648729872364 -0.6770105431346276
Ni 4.434664857092001 1.9581608057385322 12.533980485925756 0.3288970590535884 1.1351942391018965 0.33113648990706845
Ni 9.08560585615558 7.23833467895564 12.673761468768816 -0.6618009252737248 -0.12310544780363315 -1.3370988565926198
Ni 0.06512639261810661 4.0736902527319785 7.498328050707933 0.19223675538365603 -0.5271887623820727 -1.2979005891266033
Ni 0.18405503119611577 0.8919201694828611 3.10559748846885 -1.8807071979832966 -1.1054373195544382 -0.7649813520186567
Ni 0.9824175959822978 9.422504331928547 12.663026675991855 1.018174335370711 -1.3032417988338587 1.2428051908143563
Ni 1.923413095831812 6.863100313494251 6.974726169594272 1.4658795004041592 -3.3573825034513787 -2.3278456918799972
Ni 3.3040721685700767 5.591044101868938 11.13181278526289 -1.5095288616629938 -1.4483762014130732 -1.883549295417782
Ni 4.244602878292428 0.6384784793630609 1.7974428868272803 -0.2884829169026 0.768983016978882 -1.4457727023519553
Ni 1.1161748987773215 1.572273450562563 5.061910288661782 -0.05009408844291373 1.6821121044817804 0.8118394500227759
Ni 5.558016115432722 4.625191626018737 3.284984167627739 -0.9910440548128222 0.050872875590467215 0.7310337914286184
Ni 7.04036197219175 7.7999684770145565 10.932725511774061 -1.4033189040631184 0.9966022656268901 -0.23198755291903275
Ni 7.8657269842056055 4.4460615110100425 4.110284109023791 -1.2724692935376927 -0.08263191316961899 2.2788157830355398
Ni 6.5937172515930085 5.9147611296355596 7.404777882653288 -0.5768971853507935 -1.3497677103095398 0.43559604047474015
Ni 3.73850220462697 1.6087129965321572 8.873393839055916 2.0441146878400858 -0.3797383100751718 -0.9809524749047752
Ni 0.3145402114959106 6.025176672244447 5.037678920172255 -0.995080686776041 -0.8305820207376018 1.1765553185471864
P 4.508306204839737 8.481527423684119 11.429919877022817 0.38221402530917403 -0.015428418739928267 -0.1030356736369516
Ni 2.0666800046285947 4.260340671998174 5.912502249617546 -0.6184773227854252 0.08123580415304074 -0.9492415169547394
P 1.8424094724698108 4.622021757351484 9.323907472673165 1.0443646206128336 -0.6586256128695367 -0.48905493162482866
Ni 2.0526061595780933 6.664950986482039 9.299948471198157 -1.6992351373153123 -2.9283278636395824 0.24024953581750882
P 5.9993343411741735 4.4588711269146595 5.669810225558776 -0.724138864080998 0.8899405652015769 -0.21162724409512587
P 6.008193240997904 2.2931443461875887 8.442552912360977 0.2269772441886349 -1.0187749450691874 0.4549819012005196
P 6.349990604711174 5.718889274246446 9.636993820651309 0.9941437767840684 -0.729993265979246 0.1796794875439357
Ni 8.133734267330446 0.3163603296338817 12.235750689572258 -0.3697462318594665 0.27804295251619854 -0.7008341279167866
Ni 4.484388104895919 6.4663089819350335 12.697230581449794 1.7372378418113306 0.8851457149160951 0.9683931501825257
Ni 5.093820919632297 6.6205635293379546 4.604647902398123 -0.3892907296502973 -0.07911130161087021 0.7650428013842114
Ni 0.5069726199440158 8.056923050915456 0.9923845554691854 1.124064190627006 0.26868233723690504 1.5073465092996943
Ni 7.791881128801918 8.426152327933897 1.800463093073587 -1.4020192114150887 -0.45975566844007915 0.6178283763475166
Ni 3.00972987684017 4.252532197861831 13.115826147454491 0.9949865844003382 0.6324980625445494 -1.577176899829271
Ni 1.6955636796938716 4.125402802280155 3.6112538227727398 0.5788694785858159 1.001418713178927 -0.4648222843297092
Ni 3.332470845339748 5.098162059420002 1.603961911852295 0.2625070616641285 1.034678246563005 1.413664766073817
Ni 5.798600781054934 9.319785713825482 9.230044036072812 -1.0133969685867257 -0.518123823966327 -1.3318193533612355
Ni 1.683637165030864 8.63666507232865 5.101147871196898 1.385392401491685 -0.3963196114726207 2.034053446949342
Ni 7.600387596410681 3.5990000958602093 9.252397652448598 -1.882607500329803 0.6339162830483147 -0.8548442357190761
Ni 5.598545814521352 3.4323356520620316 11.08518782844664 -0.18702564349636178 1.9919704017363629 -0.16750068608955668
Ni 6.4949772369784595 1.3563970281003461 10.85267191943198 -0.6248215198358982 -0.13327621768904788 0.3918286655808026
Ni 0.4913491646095522 3.0384167234886825 9.625714293845313 0.09551082601481614 0.9446415562888829 -1.5387797881083112
Ni 0.3516044353964123 7.776385025962296 3.533648744820556 0.1666303676694614 -0.16748345969837608 -1.9010641643730941
Ni 7.038474924275468 6.366369808792403 0.16629818917797315 -0.8241018123298968 0.32404641582950644 0.26931277173205237
Ni 5.285844312768499 0.94243634924372 6.526974318912628 0.0906010474180246 -1.2708818944459146 -0.04093761875462627
Ni 0.5357914669886424 5.589119870742483 0.5228944705401181 -1.338682399029656 0.8616010948269355 0.2701890036894185
Ni 8.298604621237773 5.88782189386518 2.3293031589203768 0.3524169965523995 0.06751974011852888 -0.13286124163881635
Ni 8.194705436211713 3.108665103308127 11.441838025463536 0.8233417942354206 -0.6556310490175871 0.13746403051815034
Ni 6.785285150404589 3.4640343387345616 1.7768034164404716 -0.5036621400150423 -0.5728119595378264 -0.7010033065047993
Ni 0.7008663285519221 1.3402781064903266 10.828767763191978 1.663222209555813 -1.1451870886485502 1.536633945409902
Ni 6.472072379511857 1.0297890057427705 1.5260705231817786 0.24851563248104291 1.0345417209851409 1.440134016008939
Ni 2.1689152409994104 1.861726150154713 3.088277549170241 1.9820480004163286 1.9629359621772258 -1.538803442257395
Ni 3.769624551541818 2.8327285006138827 1.2729653411140445 0.5616078632918908 0.11821983757655771 0.2882342912269036
P 1.8296184481702795 6.611221247781974 2.2501205832766007 -0.02078351240425453 -0.3034565074932967 0.4355484750662563
Ni 8.993242762085709 3.406818674080772 2.5502541599909607 0.06560118293957734 -1.4496622672143484 -0.5835008067102403
P 8.158535468515874 2.2019804106458003 4.338772146796454 0.43953959850352037 0.0446664896694392 0.15845297406499162
Ni 2.498721019431869 6.496408790570122 4.459097944496715 0.8505777471332384 -0.3052735060973775 -0.5200668066253108
P 4.002502996855664 8.90985011747009 5.4164382539580505 0.22649593367684215 -1.3568102189786182 -0.9299196766976758
P 6.211920049536075 6.488488766803261 2.3057522431770177 -0.5114484688286804 0.8225154416793835 0.4511622703441133
P 1.4501266051440758 0.8285711343110267 8.80516264838836 0.10057821323539452 1.3653825340286614 1.1598580603971638
Ni 2.1014648977454877 2.1181508633106465 13.047881267505266 -0.3729503406190609 -0.6904134468040949 -0.66192742354926
Ni 7.410790407738272 7.498607854364486 4.1403114103990415 -0.21834142289050787 -0.8703901538734753 0.4853394304464545
Ni 3.823651755923267 8.229062722411616 7.566694960092621 2.39806817564167 -1.496450688322797 -2.0434801395798807
Ni 1.2783122867369299 3.6315632921692624 0.9819016789411467 0.9503283222610148 -1.9977584691730494 2.0630860867362664
Ni 3.133345459060493 0.9651366990543704 10.935609999303237 -0.37044891435344585 -3.9365234905310267 1.826668780180654
Ni 6.684797524911907 0.5543245085191476 4.531206414405068 1.377544366202176 1.204076921006223 1.0970177280321751
Ni 4.532624024292915 7.62738260699632 1.3002699019243733 -0.058553274953860444 -1.121874639174855 -0.51938546428757
Ni 2.8170371859208534 8.515577948400095 9.362601250759502 0.18920619608744835 4.238919932190925 2.0808511240291714
Ni 0.037079097184570885 8.033757910977643 10.500144410843022 0.9156580245723392 -0.08548249524453666 -0.5580358296699164
Ni 6.648134879681275 2.163821141205702 12.996670691294426 0.515692331706699 0.610536984892426 1.4320029022613725
Ni 7.503367305266636 0.5957177876640473 7.479539374607488 -1.572946149577375 0.6586868051247753 -0.8823141590045709
Ni 2.3398278665598595 6.7380345860771795 13.668067466623693 1.4664700828003068 0.7440412594318798 0.10636396667923616
Ni 2.1833144391389263 7.709046232338893 11.597048181367905 0.8218819218604426 0.0994538698229642 -0.43340777457416974
Ni 7.609999456240416 5.703105001527984 11.51285795689407 -2.818426830341365 -1.1951446515135997 0.3301751544350636
Ni 8.788288907611827 8.824719157778878 5.661783300062668 -0.6787452664375472 1.2936161028186368 -0.4037089619581563
Ni 4.687315474415369 7.052558065128512 9.749387510041403 0.11952132999680061 -0.05379030634757833 -0.14628342858199325
Ni 2.9773804839896116 2.9985656179857103 10.58629326091272 -0.3090694828047 3.888483713513981 0.4490135994322267
Ni 2.767379008734738 9.021883129721504 3.1877872562353717 0.055375648556827216 -2.432020364217399 -0.05484214465086038
Ni 0.23813522165206197 1.4704937085163667 7.130997906149082 -0.15079262930625645 1.0110855468447297 0.8474134904726437
Ni 6.248359595505669 8.955260112893932 13.369239020586408 -1.1369109646826874 -1.0530310380385801 -0.8521312076632873
Ni 0.25236802492605326 5.238575156836003 10.894685228606516 3.2309603325696874 -0.26196173068361983 0.34486540945738675
Ni 0.8441964488059989 8.396526605228514 7.708911443202015 -2.3441814529255436 1.978598608415147 1.2687144544809505
Ni 4.9526083831975765 1.9691019653319537 3.6038794626151684 0.1321459607393466 0.28099792137946444 -0.6089102479222803
Ni 3.4708946410114905 9.337447738657684 13.294968347006494 0.17064617369707386 -1.7015889822594694 -0.5564908537802996
Ni 8.285776413728069 0.7047398894717001 9.632585751085292 -0.40951502711697213 0.030744480271708348 -0.6038508311215021
P 1.9107429169653434 0.40969018716825084 1.1389198684401796 -0.26552347989294917 1.281854077186702 0.6612306545925516
Ni 2.2394424948951537 2.9723421590111627 7.787414495679879 -0.5037732116716098 0.8734826767558699 0.638503645308681
P 5.516054862752429 4.479117384853889 13.135091698225406 0.2598287435010171 -0.4963622639195193 0.09444664641635993
Ni 8.043165263151426 4.137980023121191 13.504163876180867 -0.006949948955271902 0.1335994053564215 0.7525621524186975
P 0.8006642054958941 3.8868818048225475 12.523422313397118 -0.25593789308704307 -0.27021882848608947 -0.35065733354881545
P 3.504666291651168 2.925035819868493 4.794170724650188 -1.5667127670731533 0.5382805014198601 -0.058390009903118795
P 8.166938874014983 7.0032996074517575 6.440253776986519 0.2997258368062709 -0.8156457111427436 0.07790622555917551
Ni 8.901046992461618 5.847822055521516 8.802849852715596 -0.3041522480087407 0.778088578824576 -0.34598769598728796
