# total energy = -340875.0304951539 ev
CRYSTAL
PRIMVEC
9.21956574697584 0.00000000000000 0.00000000000000

0.00000000000000 9.21956574697584 0.00000000000000

0.00000000000000 0.00000000000000 13.49376639868657

PRIMCOORD
 96 1
Ni 3.3066340700819334 2.650422271043998 13.098938414790123 -0.9723896729364286 -0.3303492181190827 0.0850765180553696
Ni 7.4706969577755205 4.22379645302413 6.576659089196971 -0.0642886347757409 1.8364675114386306 -0.43477662989723836
Ni 3.7410231214963345 7.2602142758035635 6.418323192047684 1.2145428535345535 -0.9499156602036286 0.432680666600158
Ni 8.28882276736061 3.932596474483426 12.521432203113475 2.3402849460846147 -0.2253584776382893 -0.6807363287256469
Ni 0.4778058295984716 4.12872429286229 7.569773175264581 0.11206281683622636 -0.16922692475204404 0.11655401983836056
Ni 6.83123710937898 3.1474121726813333 0.8257817368347395 -0.9970838332489989 0.5401872315242697 0.7014108263558629
Ni 2.4486612981016274 6.165372425188848 0.23031857729664754 0.2529140186590548 -1.4009385767564002 -1.0264193489883227
Ni 6.728918370678814 2.496225036879259 8.161137315950079 0.8483781683787581 0.8272398437382464 1.2146855497600046
Ni 4.980261808074466 4.93403490630454 0.7045435276275804 -0.006357052566279375 -0.877967709110417 -0.8696370777575346
Ni 4.346278381626735 5.3142313512962 4.858052778612744 -0.7520157929969242 1.202817080457193 0.8403874368637978
Ni 1.5033423619074655 6.9629109448552615 2.340291758517616 1.395507892659132 -0.5527056757062545 0.49970752624266834
Ni 2.5423597429934803 1.0912277809111224 9.7289106118462 -1.0599596468376131 -0.23526699500125287 1.0635957009283037
Ni 1.0639747450850554 2.5870561968787213 11.373058788927416 0.949143043703662 -0.031625854435397144 0.4953209671391986
Ni 7.147781673672681 0.10036234688612956 7.22275425893452 0.3298493956645287 0.1607065459858587 0.14093270579304115
Ni 8.784143927629705 2.197345160218421 6.53840434577576 0.39362046737390277 -0.40209199518002364 0.8095629952837734
Ni 6.709612600374422 0.3167704436501757 11.501357341448378 -0.954425118038208 -1.0659845128754546 -0.43187513997972715
Ni 6.717458450674822 5.878911303351323 4.328152715715352 0.7413907091829103 -0.38429841864202846 -0.10677945695009998
Ni 3.387932199281615 3.2821837821892648 3.9525937122055974 -0.9098301050366525 -0.6734752762878594 -0.4030222203037769
Ni 2.5474673823194753 8.454562897619475 0.6522307906246418 0.4583215070967139 1.4475933005004618 -0.52893094188416
Ni 0.07865764562032217 4.367935141151577 9.88609959503853 0.06372530607310316 -0.16684814010722232 0.9424334928939705
Ni 0.3695441589316336 1.421546376166983 13.4940364436132 0.32292207241707616 1.0581153945400228 -2.2601074079927588
Ni 6.254147622066114 7.606611793414181 1.7207111374039459 -0.17152214854412395 0.18693436933413615 0.5299560407145647
Ni 3.994505857288581 6.570277305909148 1.9818562541417426 -0.3377226277650184 0.7436638214878031 1.3053066517826872
Ni 7.295414577151305 5.710875501265432 11.161301041037074 0.5940451578849898 0.7738601425655253 1.6578043809743512
P 7.431891806289758 1.9910481610154198 12.633403826965836 0.42405847214878584 -0.5322628344708705 -0.07907324928408317
P 3.2366852260994 1.8098929171228662 5.420324580140882 -0.6229075906426369 -0.44642244166628275 0.9180128979577608
P 1.7818562182233162 4.067617012261758 12.902752513148165 -0.8917403374144772 1.004941895840837 0.09167602564975824
P 7.063708455236313 4.160734624522677 9.895788436496451 0.11064305367056429 -3.7442078022803194 -0.03584194939927376
P 5.37198271002911 6.581875519396696 12.740260435839748 0.22042941576778813 -1.1249949299713915 -0.15214065869371865
P 9.302633856177184 4.754299475509826 5.375390261463926 -0.3497073109307203 -0.13984538626613338 0.57595436182155
P 2.5071963199080205 5.814411222620889 10.097735644663343 0.026467707273225383 0.1026896031514425 3.2303383827149723
P 4.4181633343790505 0.3207403885847848 1.8083126835841015 -0.32362938289674587 -0.1401310358273522 0.43672244076969946
Ni 5.174923715527637 4.556816380992116 8.958848241492658 -0.4197883840185222 0.8125007377558586 0.264187534690345
Ni 6.482470163416773 1.3513393843484787 2.495456125110689 0.4870864950445482 -0.8156971332059695 1.4016271181829925
Ni 7.6108712327077 7.462436227024454 12.678877490228661 -0.39315818302550354 0.8908527926032012 0.13285764209439055
Ni 2.4326745714025746 3.7166281509970873 9.452086701899402 0.7499221436926892 0.6955458829346537 0.7015910606874691
Ni 1.063154203749291 7.9155963139401635 10.182611887260892 1.399426253876932 -1.0882376678467 1.1607548611798202
Ni 9.254323332588351 0.31310658829250354 8.915533800486418 -1.8552717886293273 -0.03201409101275132 -0.6600795717072439
Ni 2.5002539870335183 2.367648975434628 7.592456072437407 -0.35881518676925944 -1.2047988867739123 -1.4483021536420284
Ni 0.4261458378379166 8.940019122728254 1.7918640566499724 -0.8278815910873033 0.12048395102038603 -0.6325677394402203
Ni 8.014107372059758 2.8888217975630908 4.380440559891251 1.3344331368349986 0.9337555055039982 -0.9037144790572177
Ni 2.5359613644876315 9.205229145926035 3.1393920725916526 0.8356977446976124 -0.6625534871690332 -0.9308380747468872
Ni 8.197226383418805 7.2019927192265625 6.28175284529697 -0.5171953986147867 -0.15552525889523539 0.4955351400325336
Ni 4.714812076171854 0.746233481180318 4.06662959678917 -0.050614736833074124 1.2986091851578538 -0.09942018837155137
Ni 4.510663235746753 0.4771687576175578 6.58599666520666 1.0853649742845952 -0.1734803007117593 0.3151709677167475
Ni 8.348040037019212 6.6356901236310515 2.1266449216419008 0.5070822214401848 0.9277224119360411 2.1624049736432633
Ni 1.8554375710405828 1.7279401987676872 1.4805497519043522 2.4263793638815376 0.13089640460296167 1.6478549830711233
Ni 3.2742641753643014 7.305639075368865 11.713290261084559 -0.6187897118195215 -0.45949958656521506 -0.14225810947268402
Ni 7.654931536568584 5.743595739474738 8.7445541911139 -0.5726952314543041 0.4237010888093671 -2.596688980174799
Ni 5.481935249021557 7.101499454509333 10.600405720648595 0.17212918600050356 0.4799737952591669 0.9720109494407712
Ni 6.023114528437762 3.7557652068433844 11.921647833192543 -0.24473893904743013 -0.44473939753690506 -0.0971470760666585
Ni 7.369659738689639 5.605846210287572 0.40023148293267 -1.718357717077376 -1.3016109480986553 -0.9204503037546601
Ni 9.581802301648533 7.988790445003474 4.213806131772059 -0.4658386414093655 -0.23498725897730496 0.4715968840493813
Ni 1.6394047105952514 6.134514539224759 8.283647825205952 -0.10394867236952421 -0.704528288938922 -1.0882119568150872
Ni -0.18977092791808117 -0.1403005829804933 11.967891330180493 0.9292550465304834 -0.17786377449143562 -1.0693248901025971
Ni 4.576002296944092 2.4950449324862496 1.916182522714198 -0.674426070236903 0.6620166408289566 -0.5634104637182684
P 7.728365376336725 8.69347871981051 2.998395412410595 0.18950135873036397 0.09810635465613426 -0.3459306174971075
P 4.101471257036223 9.346334596980823 8.673657575790733 -0.7731111802146428 -1.7110138751177952 0.16430351930849768
P 1.3079521087742327 3.1470157313618063 3.0800060848831126 -0.7023369377145582 -0.966799837553477 -0.03701720065429753
P 6.593012754605725 2.3608080577814 6.086794989788988 -0.7823308990406977 -1.325704241602433 -1.561177181966905
P 0.7677381178732479 2.220172804570702 8.993082332368623 0.0888760943071179 2.6703839958661044 0.3099953370530791
P 3.704734911411287 5.12629972670941 7.272465234533494 -0.5428429239795619 1.35688580941156 0.6432486161928341
P 4.379293645934294 2.41474251636817 11.16377096265338 -0.2615179582779819 1.1712629597999957 0.15379670623990285
P 2.8857148039658704 6.973568762654629 4.18810106100526 0.15515990513601666 1.3326655034116146 0.03567714168663533
Ni 3.8389994448128473 4.600471023967902 11.767710590776888 -0.9714921008228236 1.0724886325425593 -0.7419483814585932
Ni 7.63085003129873 0.5149274884110818 0.6728236122826605 -1.409867503814914 -1.748775153026969 -0.5371816119287265
Ni 1.7004290151056494 5.199641370821848 3.776972973524948 -0.7950956549055338 -0.866412914393282 0.34968674210543
Ni 5.836464423465256 3.5353253940554077 4.284676010355074 0.3726531210936163 -1.4003922173346268 0.5015885453154652
Ni 1.9649014730577994 8.448837547400263 7.85947128657387 0.4431946787576045 0.812561158680149 -0.6218670651932645
Ni 5.152271242921194 7.685844739926094 3.9598808568324326 -0.7915225928422949 -0.3250121221768854 0.18125428823022333
Ni 1.2842486056927653 6.517227925617136 5.926043566460261 0.381808048120007 0.0922540096404153 -0.2674844602740619
Ni 7.228342237626731 0.5094381590704727 4.958688946596315 -0.030206862600683462 -0.28546624156346323 -1.3034408022185424
Ni 7.627613963783524 7.6992684273965795 9.9809071536685 0.551823015990985 2.2092494448006272 0.5803388640424908
Ni 8.103574036354804 1.9781131105201653 10.581338737092475 0.5874039984193884 1.1135344947402757 -1.4985476800611417
Ni 0.6905445392655034 5.9379810599608 11.90274311399046 0.04606979777486904 0.043758376032873025 0.18303709116225897
Ni 4.243378810295635 0.2916222346438284 11.35505850910779 -0.6149711094043796 -0.619784728742939 -0.7097363155024228
Ni 5.734477589125626 5.86147710485772 6.920332225181539 0.827423163393646 0.658280313714976 -0.3026946896266077
Ni 0.3714913311800995 1.0307289916382363 3.74384523051743 0.16010156541200812 1.3644556513390178 1.1239785728917353
Ni 3.9551567514341657 6.983959213052458 8.962829249905951 -0.4363853691452549 0.40812303186545196 -1.2279570700579303
Ni 2.2555021798364288 4.178639020860371 5.944935378270543 0.45622477246868526 -0.5897339321041456 0.25247487423910714
Ni 2.4861296125796843 -0.3907454719172978 5.447851437064389 -1.564900396454763 1.5708265321312107 -0.11988745508696773
Ni 4.623049740049782 2.259927571310215 9.008546309699835 -0.8841355284840257 -0.9785983728503017 0.5422155748082081
Ni 2.6575121169676263 4.115494216268783 1.6545377055224861 0.6674766355022634 0.44046596697253176 -0.2744413512078693
Ni 5.098299906072143 8.556263925426425 13.47966498480208 -0.6872337635245326 -0.5640959198210671 -0.5096373837618707
Ni 4.595870460748279 3.2431389219986717 6.73861182191952 0.8282705989956058 -0.33142342501986793 -0.8897418189272097
Ni 0.3821445391966829 4.7728769001341576 1.0422331655569665 0.2344938642806542 -0.10734047165989255 0.2162701421837759
Ni 5.2439967007809845 1.5581065813955701 13.190830746786736 1.674509095323542 0.747134810755539 0.3466075889594741
Ni 8.716011338064536 2.308026044890929 1.9706968919753454 0.07940106493714713 1.308205313486721 0.7677059500386713
P -0.17724061635136684 7.358808310013292 8.400396105980331 0.6749402908691602 0.09338118126632305 -1.1339562529297373
P 6.911723916808468 0.6473564063075778 9.229290368151633 -0.01054460828506571 -0.8266400053707184 2.3605172139710895
P 2.0680499726593 0.0682340047864415 12.049488173304654 -0.0709832731870971 0.03268669159974371 -0.5624409007161475
P 0.2250431418772715 9.504265755201569 6.080210376058617 0.8801446621570778 -2.077410730889054 -0.9689729339453957
P 7.727111515419152 4.530771108255769 2.3052481897845714 -0.20625132449519318 -0.7495128240694123 0.9766258225049633
P 6.006869653902738 7.887900738966718 5.929349702673802 0.014008912684582325 -0.6450406750962504 0.31900962473654737
P 4.775670428501986 4.610916791759152 2.898501419455441 -0.6776000970895104 0.9666409433781095 -2.6314708637406747
P 0.45871948495465437 7.070604690282963 0.4393178311683299 -0.5901393950726804 0.3439858350659108 -1.4147577420276796
