# total energy = -340885.06396273687 ev
CRYSTAL
PRIMVEC
9.10531020447935 0.00000000000000 0.00000000000000
0.00000000000000 9.10531020447935 0.00000000000000
0.00000000000000 0.00000000000000 13.32654186311892
PRIMCOORD
 96 1
Ni 6.426974233580634 2.2061165491203054 11.424471188831328 0.7803159254931981 0.4470305075639269 0.5301933535363514
Ni 4.844726236462591 0.46862209931907706 5.893410328965854 -0.35438491891204776 0.960889642716629 0.012162860614779052
Ni 2.2507052541008954 1.5071109757784833 4.4982145442548465 0.12916425240320337 -0.12712922425104556 2.535620909218885
Ni 3.8801551802815037 4.6960274124809676 5.3965034934508 -0.6815683377086391 1.3791592760977798 -0.3786461054522576
Ni 3.5309392108878823 3.1588871230357523 3.717892175411665 -0.15468245127896588 -0.8270534387590531 0.3391817288090481
Ni 4.774105449076548 4.673163978091288 2.5653856917156967 1.191251744217097 1.36211646168288 0.31573815307412717
Ni 5.114489267391718 3.130842767034074 0.7493797925443165 0.36999640019705954 0.8560806792293385 -0.27729116195183856
Ni 5.67142468271595 8.282454384886455 12.469952033139334 -0.16813806256323946 0.042468196466539765 0.5874495069453431
Ni 2.2540651136348626 5.738740242430366 11.521755056632863 -0.8347055559876722 -1.2114511019831071 -0.9041734209715072
Ni 0.8254455555436728 0.15174910296232602 0.22551031190193405 0.14676551042473432 0.43860808782818655 0.14603274602376784
Ni 8.389842415627946 0.3520149418075548 7.217615650688979 -1.1573671756545099 -1.127853225355793 -0.6051294407236094
Ni 8.50690939131417 2.847112189966449 1.2951038391851495 0.22878755792449632 0.20995217038554811 -0.01553229130764422
Ni 0.2058218992453015 0.330896995419668 4.968028528703994 0.927358343728403 0.8676277606369897 -0.2568398360760222
Ni 1.8390177501204197 6.834373136367348 0.2760702794363877 0.22080119728491004 0.5086786193930272 0.864921160339104
Ni 7.592972966212736 4.411959938928906 3.7048588341191975 1.0471997760687837 -0.5847891865043606 -0.16827561658236825
Ni 7.956092744572123 4.292498266610071 12.325824985504607 -0.30511152659821644 -0.21076309632261767 -0.06759404499989004
Ni 8.216759570421486 7.388130798365415 9.205055423355162 0.49459977270245786 1.5309320099291182 -0.09395196616812852
Ni 7.22177677753728 0.9199732458901078 0.4840838268925995 -1.117608150589017 1.3140178064034402 -1.4368522599338738
Ni 2.0874106175638527 6.972928644574338 9.396598374846622 1.3869813432453597 0.3498880594829587 0.2311432026408664
Ni -0.19492284270828578 5.342677451079397 1.254465017851809 0.10278267708588107 -0.011025404576226173 -0.6781580264755095
Ni 6.90902757625623 2.3303676147043633 6.964771196995799 -1.06316426981784 -0.5067814023703144 0.5401874886345858
Ni 3.180994816663049 4.369602034993904 -0.2592354710560298 1.1241264113235092 -0.05107290741641527 1.46747666968795
Ni 6.152540178421359 6.024346513438364 4.84607746452449 -0.6343615981158494 0.20442866946415758 0.3830367783207855
Ni 5.787972655709935 2.9780283427561 8.94345530319081 -1.2566863196718228 0.20542651460105266 0.22893488213563798
P 9.268022286827241 6.350535152855283 12.121103007754435 -0.20325033288534028 -0.19225321044388827 2.2438557220205877
P 4.142315277034851 6.338397774105205 12.976480450143667 -1.389217174554414 -0.2315273254531625 -2.510470378095186
P 2.668466000111605 8.959215684945129 1.5137350890873211 -0.5172637899588769 -1.0235307145866177 -0.9215281101998709
P 6.754437616452175 8.336494402052027 5.953899637480772 0.3035742640180837 -0.5859261283222812 -0.06665559234602068
P 4.89981336432303 1.4305444207076685 12.845506933898557 0.7526999635481424 -0.5363920261478955 -1.3180878627077557
P 4.359704562599806 6.7282416384597 8.12905722074351 -0.4715950842771685 -0.5642357878330412 0.21331183088640038
P 4.969132092323282 1.4747598079622621 3.8107909257293016 -1.0851610858039054 -0.9375095732297919 0.6704976817167744
P 0.21540068577574475 5.8924469871265766 3.2924957161077724 0.04836219335347155 0.23260410345710908 0.405377865020147
Ni 0.9461510132618038 8.032613773090988 2.752450651557279 -0.04791764961688522 -0.8878307179474257 -0.7911942629685987
Ni 1.927166260007512 6.631279188114937 4.483727995424109 0.31001282055457574 0.8482434425731069 2.380527081434113
Ni 6.204977660958262 6.079861590887139 9.078400555828104 -0.7468206219492299 0.7805090153406107 1.1016297728828899
Ni 8.984992818659657 2.6018424439868393 10.451407609649342 -0.43157380668922446 1.1435528954792369 -0.30837939871621084
Ni 2.7788952045234065 5.37742331552823 7.409637541506961 -0.6652446608479511 1.8768148049074258 -0.030993877278353076
Ni 0.8388576777483714 0.29387935602849213 9.518095994568695 -1.3465360907461197 -0.8973080613102417 -0.8816055629733204
Ni 1.687241331226923 1.435798184802788 11.606684839297035 -0.8199325114435557 0.5211073320746832 -0.15550263318741606
Ni 4.260429363415944 6.982070376206054 1.5780358805315582 0.686746796585785 2.5296904026670624 0.8057006841148898
Ni 5.916685323385169 8.604755056766779 8.130443048984892 -0.4423734684078897 -0.8306103028723758 -0.8426278961585423
Ni 6.948644781763795 1.2510423316761496 4.921691604128495 1.3962805091590984 -0.41750293041845515 -0.6079792514675787
Ni 0.5814742268256992 7.6031891244704894 6.7561302936537055 1.1744562699263128 -0.3268915985877854 0.30270317426703996
Ni 5.431609017660042 4.791724224681498 7.205488287780331 0.186952109945949 0.0013878814864621259 -0.3290019600625688
Ni 1.3447268702804562 8.012381773404062 11.395526317632063 -0.43249374740033253 0.6506346242442601 0.4041594192320136
Ni 4.832261066538469 1.0296922360914773 9.978781905351715 0.6884925756322982 -1.4078329898833881 0.5236282987243239
Ni 8.444856701005262 7.473638768239361 4.686651674372224 -1.4651721899244896 -2.1311244183624267 -0.6835100348160422
Ni 7.4729012380977595 6.421183256172497 7.093385527318818 0.14314539717364377 0.05767267212112003 -1.0536432177012822
Ni 2.405249687352999 5.642278584157063 2.4908505313929257 -0.3562983338846767 -0.4398103356664039 -1.0145380241697044
Ni 3.926665105754416 4.71377366243138 9.745553932363084 -0.8317338749538578 -0.06018361146843183 -0.9723624192429189
Ni 1.1331467727444204 3.678254027690203 3.5947683472539094 -0.0743519325490139 0.9714622760261528 -0.13371896165342131
Ni 1.360925217464542 1.2945019781683602 2.4653174199968526 -0.44296919301035964 1.007977083122735 -1.0059330561095126
Ni 1.3067213047119484 3.7057975916204224 8.30446100956842 -0.5746731811162813 0.4364861563891773 0.2657376527862843
Ni 5.604509756658699 3.2742149844374575 4.764665063264035 1.0705610765025433 0.9871835434161514 1.1076137583804666
Ni 4.2043861779645395 7.3615341867157715 5.93806732377437 -0.4100978962036356 -1.2360051371733876 -0.3163888992842486
Ni 8.212935340057621 7.7238162765192655 0.4759828322384784 -0.2549755291737738 -1.0997011884016092 0.02396396701476518
P 0.7038049824484729 6.003968828785196 8.243505509161528 -1.2354613488547754 -0.9048059123491837 -1.8660490817504896
P 9.010296476233899 1.9586979498886192 8.340056399476655 -0.581880754608314 0.7551738790099317 0.27163293522479676
P 1.9463147277580082 3.595641546520325 10.568854276778836 0.2905642249116609 0.8808763981167798 0.5002952804253383
P 4.171497796835299 6.63735243014517 3.75091531513468 0.5419800617586343 -1.929858977117599 1.0505452955022487
P 6.9048937653391 4.289256776111175 10.09015168832682 0.9351639558157508 0.4656095561176949 2.8908877165152536
P 6.244148706256709 8.23936805612024 10.333307181233835 0.5931570988530817 -0.22700089833771872 -0.49593751767727495
P 2.2808438314923087 8.7198826013399 5.746778410442795 -0.3012790402260037 0.10892118588345111 -1.1327416637963459
P 6.795711988450749 4.477991649878311 1.4555913085289074 1.0416659907347479 -1.8681059642795181 1.0772271756688094
Ni 2.8517194770238676 1.9022814467112177 13.838014903418719 -0.5038680853782612 0.34208553271940445 -0.206738805654573
Ni 1.5558334916762036 1.384617235099726 7.102953387476794 0.5700631931480956 0.41516476920358175 -1.1984508330686974
Ni 7.2635337309865315 1.026377903109461 9.366453423737935 0.4528959652057684 -0.09085738640320482 0.3378488689302375
Ni 2.5519817642903497 1.8384441155658398 9.195887286323314 0.6374628627489926 0.3984060616880042 0.6226137135513019
Ni 6.537376122061267 2.279204875622081 2.6397879145067717 0.9562922531539337 0.9826769137950496 -0.4857191823833764
Ni 4.181194952400814 6.8376055215558535 10.839036151985912 1.2506971919679235 1.5465280645951625 -0.04440372292635579
Ni 7.226566170802501 6.506527330459422 11.3769223474429 -0.6980105424250624 -0.1688939668926575 -0.32952877910031636
Ni 8.027287166512746 3.999935538463995 8.220290609790787 0.06797328271617971 1.0517801963506144 0.31548232830957923
Ni 3.3292474804355554 9.08379454170323 12.43027928523839 0.34422906142496845 -1.1760714369322327 0.46137340654916026
Ni 0.010525738811019373 5.43910268811114 10.193445060985857 0.18391949376721228 -1.9079794034356883 -0.21776421023079917
Ni 8.956256459068328 2.6269457847324973 5.685116337949626 0.5769933446090257 1.2591664057811993 0.29824590982663474
Ni 3.7890838657591717 2.663977082089258 11.379267875399401 0.4378002472149105 0.4676242725548785 -0.07299259030764203
Ni 1.1039187263920225 3.4949094976740387 12.897947148028578 -0.9523026723785663 -0.3031937407502133 -0.44891486907083333
Ni 2.9287686135453606 8.54211052128251 7.793162320450687 1.1893208457429711 0.4263218142616658 0.514000802936889
Ni 5.957313218346041 8.470688466582132 3.7702522628102524 -0.593849496934416 -0.7261713211299945 -0.38195280122798736
Ni 3.35004400936667 8.615062268128433 3.5734992527135456 0.32999774831693485 0.5193924062661055 0.49830344680629013
Ni 3.5914439984304636 3.2535732457829756 7.8147109480200285 0.8439432725358562 -0.024085323083977872 -1.86828182773575
Ni 5.242109297820133 4.635522624938386 11.667440933406386 0.6285429345515434 -0.36849873260561056 -0.35859664300055016
Ni 8.093628458015417 0.3327080416562699 2.562667756564236 0.02978031658622613 -0.9302531487776947 0.5548456048673929
Ni 4.747117309080128 0.8882931394496408 1.6487468104904641 -0.26475446293740856 -1.576880965855407 0.698539418345339
Ni 6.175412718121428 5.8357300087062995 0.053183207457857325 0.6239722844617254 1.3305502568408245 0.9618538064021113
Ni 7.9922954586833805 -0.2632463602828931 11.574315460860033 0.7672560069854464 0.8153376929840216 -0.2827874091797194
Ni 0.4668966430001426 5.183143307733488 6.033459108076831 -0.9538795299473831 -0.019675366941740307 0.14393755405763597
Ni 6.993688752263893 6.493652421567742 2.4879186214472955 -0.1670116622682801 0.5457786095691181 -0.17299384799364398
P 8.777610269213485 2.105320763101288 3.5831071762372373 -1.468078564938007 -0.08277538072601873 -0.17280975700729592
P 2.7604569509833423 3.6054570711209126 1.8539887014639127 -0.22190625742363074 -0.0136795543696216 -1.2918690382205429
P 4.584450938960006 1.3435158639985654 7.884235456035096 0.028987131260969433 0.3777318211681043 -0.6741435059994776
P 8.649334656436977 1.7687884910811527 12.442592396478997 0.46565120798890774 0.7667978364021052 0.44318182324179806
P 6.277474142284677 8.41702176714256 1.41801096095562 0.7058974013723069 -2.31911756797838 1.0016974207616103
P 1.9899291645268513 3.681286096050125 5.998263441294725 0.9374956892727209 -1.4251380568207392 -0.37700934117978296
P 7.332615720916639 4.287271818446121 6.084446114668583 -0.39545983457548667 0.7750487635569878 -1.045739132362857
P 2.943582953550143 9.186711865043154 10.244166192514216 -1.2679441519738293 -2.426465238727124 0.6786917874917924
