# total energy = -340889.7136283615 ev
CRYSTAL
PRIMVEC
9.08793352854870 0.00000000000000 0.00000000000000
0.00000000000000 9.08793352854870 0.00000000000000
0.00000000000000 0.00000000000000 13.30110934143261
PRIMCOORD
 96 1
Ni 6.627175401877038 2.200997470482754 11.292921250968421 -0.4646608190511804 0.3306240690470241 0.5126921114277945
Ni 4.488103108689163 0.45762015337987255 5.80403221086521 0.5999368407790765 -0.8007914197387305 0.5938741795247643
Ni 2.531098470612178 1.3597820153722182 4.628666172560589 0.20301379139450199 0.5004662587855639 1.0654371250124168
Ni 3.586689183604855 4.481005432806084 4.81232785116686 -1.0050349697752756 0.6626488750963169 -0.013931265369111493
Ni 3.729387911794493 2.585562454693219 2.7721377247055274 -0.7292877552717891 1.4268303569214977 -0.8683026752168271
Ni 5.04960106571354 4.796829289769929 2.520081169110185 0.40782786922253633 -0.12827490781971454 -0.07480367537445182
Ni 5.268302179831719 4.6550757066402655 11.286163463789604 -0.05916931127130455 0.4738429997710807 -0.298970189587169
Ni 5.723962066005471 8.124312440676729 12.313102649565144 0.8456360868572468 0.6220161891766192 0.283758257733421
Ni 2.2178828504965327 6.584489379312605 0.3835562236176071 -0.3448378986535609 0.07649494703394567 -1.0585591669456607
Ni 2.987067346517076 1.7803352153278722 0.3907011567536849 -0.09453612080637268 -0.7021317636822876 0.9351161332969509
Ni 7.6931990622625115 8.861371092591403 7.089172303919256 1.056191952265065 0.6274862111522548 -0.2166807473586333
Ni 8.78897661617065 2.4477166828692205 1.34805403748859 -0.29977957286234175 0.8172364526686312 -0.3154216502749729
Ni 7.052572470265062 0.8278371085452602 4.76440445265951 -1.2110790633556692 -0.10802052844605266 -0.4710047589913372
Ni 0.5899168331498276 7.522891192801691 2.3628890049431663 0.9967755579799609 0.15813364305235994 -0.5645849436423438
Ni 7.865151847645021 3.9664830028491016 3.4624253280513577 0.6922916376634142 -0.6220737818874319 0.4757654136047742
Ni 7.87978342020809 4.345222621834145 12.635574329715253 -0.5329824862457143 -1.2186311646713142 -0.38230735635392865
Ni 8.294956563668503 7.480550511701479 9.130200337827986 -0.8315834654189227 -1.443950561541552 -0.43139074414414097
Ni 7.098012136609999 1.111508766396755 0.34247331248182333 -1.8484282833449326 -1.221335965196987 -0.5510933369138122
Ni 1.9300680038677065 6.64564208227962 9.346635830182208 0.8371879560898937 -0.24129186103909417 -0.9262615111197984
Ni 0.5123149709659455 5.034914965550858 1.0180366463452406 -0.5666685656442499 -0.3827814677768698 2.423136174353891
Ni 6.466300807149426 2.19053725929015 6.659134028010758 -0.18787179354674097 -1.3975429208112897 0.5744942323362557
Ni 3.4979182514333873 4.410174080907597 0.47434013300815525 -0.7400017992551836 0.05114284142240224 -0.29321348960904986
Ni 6.0669588434435875 5.486767007684904 4.697765364378006 0.16540163746868286 2.1742191926693715 -0.4181148529708413
Ni 5.301554927662943 3.0106959730164427 9.226513345819388 0.09865477096043655 -0.5838736166686267 0.07775401625202738
P 0.38071351809106785 5.795511364632207 12.411730354160154 0.8423327335156267 1.4171671228001206 -1.749659355404135
P 4.222635489968776 6.2285604728327195 12.507910678325826 -0.036025526164989566 -0.2567125664695385 0.6417368075339981
P 2.6307658347731615 8.547610196479617 1.156476769005031 0.4511833533900359 0.4855659446349637 1.2644178839881255
P 6.486694129405033 7.8815101275291966 5.645948520444504 -0.592667817921489 -0.6390181230512543 0.3418605611927919
P 5.044002898819844 1.2512084766076272 12.439210446778919 -0.48035303297545656 0.025092938412885818 0.817659656248979
P 3.9904933225457655 6.2381664182980385 8.066337787973879 0.2157047565986092 0.12492501751087517 0.15507865827612
P 4.8529927173722704 1.2441289765910861 3.8786962938506653 0.8357337401418703 -0.23034384666802268 -0.6989867902954026
P 0.40405314831248096 5.584762192124393 3.303223821838566 0.4529098491628394 -0.06506767903361052 0.31446005769265195
Ni 0.2831645511750856 0.07295065793681449 4.708153780897786 0.5529139350623187 -0.687296498441668 0.33159080383566764
Ni 1.8463499625937958 6.502997881689596 4.720005354673872 0.4811637018022101 1.078836172027142 -1.2289955386247737
Ni 6.108027213886142 5.537532202925466 8.90640907228585 -0.06962958737268007 0.9319251371634789 1.6242555984846285
Ni 8.66219085913501 2.530734953281419 10.136974308472972 1.1500014793180582 -0.2666938460519665 0.3863555582813733
Ni 2.234113899314944 5.437410442101034 6.78441664088371 0.3727184271139129 -0.09965055921480258 1.0264491737849937
Ni 0.8313068814673595 8.98792056336205 9.019788310163081 0.5468520451389549 1.2740191545233155 -0.7252881471940928
Ni 2.0690406794170593 1.1650276054178212 11.323460341925527 -1.7339928525114716 1.1394571281433086 0.35476544217991807
Ni 4.394370164952829 7.11361611803285 1.4105426666461465 0.2095168826203424 -0.12111361418458495 0.03935844719296447
Ni 5.611217165870415 7.901885273918267 8.017775507757719 -0.3137226653059952 -0.04590421873128223 -0.21695482695562637
Ni 5.474080252841397 3.257478800935792 4.774672908460138 0.4712983789723561 -1.7863148018436399 -1.2992355058879432
Ni 0.3413264153032771 7.182393597012545 6.665717326870813 1.3687203401526427 1.9387385389954157 -0.49950338065166233
Ni 5.292267059862038 4.768956598433945 6.876899085002232 -0.33198726794313793 -0.054232536091319505 -0.2137653734840512
Ni 0.7833971148599125 7.772618511100192 11.293093921700532 -0.002617125907872912 -0.8091912137666516 0.7625562875169318
Ni 4.795956848176106 0.3544630228435982 10.234605066788376 -0.8174290282954114 0.5072339165267007 0.3881008231072542
Ni 8.16765279443653 7.05466269491693 4.441426574626318 0.38545592928523936 0.3482664647191357 1.1124949977321679
Ni 7.522582203070545 5.952051015190513 6.829733620129515 -1.0063770856254666 -0.17820393143967375 0.49084930452109016
Ni 2.6515862898924114 5.260895514217494 2.5379044238373227 -1.1924053982055656 0.4502911805930697 0.22136761131134133
Ni 2.8725775631943744 5.092432495210278 11.115710187396479 -1.283923558121221 -0.1751000957033694 0.1546153454864563
Ni 1.4386016606141445 3.438737629985743 3.7291652574294027 -0.2715259773332872 0.23103084543271823 -0.17244208925523205
Ni 1.5292992346386374 0.8059806290333458 2.623204674293364 0.6917612190812408 0.214788672542243 -1.6492611193900306
Ni 0.9398286190123171 3.5812364236434626 8.202567725262652 0.08772424009086183 -1.0611117581641856 -1.002494719851925
Ni 4.07668328166884 2.754825211828107 6.724655300500176 -1.6407906200251743 -0.1917713857114633 -0.30030793456198607
Ni 4.097031164258103 7.061369589669441 5.807184814916222 0.8637340820095382 -0.413755547560881 0.059816200826684075
Ni 0.9554507763017062 0.3865061667567204 13.51219728163509 -0.8677640291045378 -0.4262757915150788 -0.38136736103816254
P 0.42883321595702856 5.659937576125456 8.08980101408775 -1.3369499897195813 0.4626432744005194 0.20057535715633842
P 8.817021978238746 1.572285159000947 8.094164130850192 -0.7135191795836228 0.10523448106048326 -0.587723072321704
P 1.9426002638456397 3.263731299024855 10.180190157546987 -0.004123278139754189 0.9221994252352826 1.9901837421495854
P 4.0664957084743065 6.562205766937049 3.6637775775590393 0.9268976020419004 -3.4522384694910153 -0.03103784314241106
P 7.171242702891498 4.240329696043494 10.455336425198846 0.18908278313570662 -0.022153396168587653 -1.309932323480157
P 6.381292279351319 7.883509472848374 10.134460586130771 -0.04898517164945112 0.14657679145269595 -0.48739554164453475
P 2.088634263544996 8.45669451205667 5.83008913313405 0.04894737643298022 0.5194754528982151 -1.2238062811143504
P 6.943980755633934 4.268793103041962 1.4342985242112791 0.28218885636377206 0.02069172402139662 -0.2674538641464426
Ni 5.5429031714874375 3.472726500411755 -0.013980876541009993 0.5538197347060397 -1.5323247765115868 0.6945133279050814
Ni 1.6702349037740918 1.3680338587804586 6.941822371482549 -0.32384407001071325 -0.20128061075347914 0.6086968463598936
Ni 6.930476086796219 0.8528907229812042 9.135614019676323 -0.34852151815273524 0.4512550871682357 -1.0208423691211774
Ni 2.9451901500135826 1.8436326705463684 9.095657103472567 0.11356125575862377 -1.9300703217974566 -0.7183466828792532
Ni 6.390952752416253 2.3223577313568105 2.330925834842811 -0.3944961851106367 0.03347653449089073 0.7600242651236976
Ni 4.211929904577909 6.98376772748556 10.404353119559827 0.7639804215579681 0.16687873623484162 -1.3016058058923325
Ni 8.389870938729807 7.630964895236487 -0.0690192180046506 -0.4867838762024649 0.4008280408659355 1.459092816499629
Ni 7.379274583351886 3.5635149537689377 8.174622330460515 1.5565486820559582 0.8447451996118612 0.641844793866772
Ni 3.3844644925033505 8.40553853568554 12.26017725258654 -0.5215179372495405 0.2602493759782034 1.2127734203389564
Ni 0.36924454630560594 4.901822182826539 10.185696536314667 -0.5367712638641853 0.5679931979929443 1.270782906974205
Ni 8.833607456454647 2.406557433093977 5.534551360813238 0.1091646693528249 -0.18085242480611435 0.6153413482596048
Ni 3.6367091683173607 2.8512481838120616 11.830485226935595 0.5943125526137636 0.6678533021153917 -1.840663037577217
Ni 1.0422768907536104 3.393488810239455 12.53879601954048 0.9230784854061265 -0.32081351071450553 -0.8568664083554275
Ni 3.150450210826929 8.378783660141641 7.634637329070485 -0.12753005923389005 0.3812524327268531 2.0739610817775573
Ni 6.024872624474908 7.84675787070859 3.416416757083783 -1.053373251869347 0.22742975834502122 0.5892683053216368
Ni 3.314214768334079 8.41496272248548 3.497832824860659 -0.46503877121588943 1.5642385945010482 -0.19249437992041685
Ni 3.3909351009908693 4.190909514926742 8.55361095881713 -0.3398715557872211 0.9021039400369883 0.8747116640669647
Ni 7.560360741669725 6.522309739886194 11.311967741513566 -0.0624801208120924 -1.3327009846352404 -0.8764695272983357
Ni 7.947106829864747 0.17337777331908505 2.5030422030241612 0.058566901800615266 -0.8041261405389184 -0.0985552692680948
Ni 4.7743457428624545 0.5459212394013334 1.592781174902494 -0.05421736658266792 -0.21816144566921786 -0.11632930542206417
Ni 6.323356704761525 6.012531211095624 0.020618703000678286 -0.7665211857019508 0.1915219887048185 1.4127934192124572
Ni 8.006178396113164 9.266783795720924 11.149321908591826 0.1753070695078529 -0.979302598006178 0.04302638296285494
Ni 0.24011410248656606 4.873022522297118 5.519414499160414 -0.4374978854831433 -0.010601686775246259 -0.3899792710768897
Ni 7.544965782712061 6.151449359045362 2.4387450751460764 -0.890790314796382 -2.1340156238672925e-05 -1.8452406296455706
P 8.969944631355993 1.82683816986528 3.4173873483569106 -1.6060683860526406 0.3609846836167525 1.3726304738403263
P 1.6964263274553129 3.215837890697292 1.4787903191162601 2.5353519718282143 0.02483891342055077 -0.15165420597560333
P 4.65701143642656 1.0930875256605181 8.00476704007649 1.5502031994539045 -0.22101639861950967 0.022309205020161576
P 8.697488391951756 1.716983232509762 12.402965042522215 0.43586369231383 1.0774922564047378 -0.6424572306397903
P 6.455022681962613 8.10619110173837 1.3044492248706623 1.0456044065572059 -0.6106912510821031 -1.3485027275541874
P 1.7758730400927996 3.358591146486544 6.03608349895553 1.8727953993353879 -0.24039865980086342 -0.6053335863146155
P 7.3296726435697535 3.99826350549075 5.734746716415778 -1.0421383023854762 0.22428247096529116 0.6929125590768648
P 2.498054745246141 8.538340504545252 10.255234675308976 1.5002554067808678 -0.19751343040156308 -1.0296666522810265
