# total energy = -340888.1406122753 ev
CRYSTAL
PRIMVEC
9.15468080671818 0.00000000000000 0.00000000000000

0.00000000000000 9.15468080671818 0.00000000000000

0.00000000000000 0.00000000000000 13.39880072995340

PRIMCOORD
 96 1
Ni 6.663316599134119 2.304608425509092 11.190758351055603 -0.43257550848086146 0.04746642101207954 0.25140323844148316
Ni 4.943106358468968 0.5994905911277572 6.152393880039246 -0.2583105070842777 -0.059386055267800955 -0.3583716714739376
Ni 3.0991614560713967 2.1690550712421546 4.898588062631547 -0.04658838928250041 -1.800128053577648 -0.3071306139107743
Ni 3.524725934119135 4.480218247994249 4.686204052209732 0.34347932774313744 0.9937424275805918 0.469914611250952
Ni 4.076048258291336 2.797093618062896 2.568456387868978 -0.5408911995698298 0.11525869806570473 0.5323548799640445
Ni 5.407312742936692 5.061256665092126 2.5677597166823967 1.4267516811647623 -0.8201883362081036 0.3253563928901816
Ni 5.223376902190335 2.9282618803669873 0.457494172720003 0.9998662810901424 -1.0339614230016385 -1.3821960060415743
Ni 5.950176142320438 7.9407149436763715 12.311393777532333 -0.5785043819369133 -0.025108622142169662 -0.41215889249772236
Ni 2.287315234031396 6.787261818518199 0.3771481192504428 -1.0213702166001892 0.6460323495855583 -0.506304976954528
Ni 0.8553950372117316 0.345485741248982 0.49786356735165793 -0.27593284815173125 -0.2536537250385567 -0.6228633676682628
Ni 8.322657369108322 0.20185978971098442 6.812003258056379 -0.6274748982983451 0.7133371454798036 0.19142197279184453
Ni 8.888984214631472 2.4979552778166307 1.0220660659899643 0.17922183118122684 0.22137275351766392 1.9611413321706483
Ni 7.360061023159788 0.7441913021572747 4.509700896566996 -0.33593468262666015 0.9083753748679969 0.21966502679793784
Ni 0.9189285199302125 7.68484162350612 2.2945181366542924 -0.4416566448465232 0.39550225777764786 0.17998030661380618
Ni 7.688018297642045 3.9848035576782093 3.4319423317127837 0.9649576421384156 0.29529376917684624 0.006057261937673439
Ni 7.996979610072306 3.7665925931136974 12.571504799309269 -0.12117454932950743 1.0559865211224782 -0.33160623045463533
Ni 8.53881768523927 7.339591157546168 9.068402220547634 -0.23329727286939175 0.2732763843654907 -0.46963436100637185
Ni 7.022820902643448 0.6570030404767934 13.473297588266504 -0.6540603620963574 1.3616963434263258 -0.59279791574145
Ni 2.1204711817915816 6.850950930805299 8.921363404116631 -0.1817307136460096 -0.1511978351644751 0.5776610601000117
Ni 0.59041280993703 5.101738662294016 0.9484624347137993 -0.5471916878665608 -0.17043380057595164 0.3313326650782746
Ni 6.748610757417706 2.223397254731622 6.614478209565451 0.2569226255978156 0.30158088773713865 0.8849310278021275
Ni 3.896232023773122 4.697889086408847 0.30897138257881873 -1.1576124588960968 0.5602174107022675 -0.24195160611028005
Ni 6.35316517823795 6.126165720386732 4.89404551016398 -0.5101161231705021 -0.4566312638784845 -1.3959969164804087
Ni 5.933597015922287 3.1646998138209077 8.872189953241408 -0.03021406168953506 0.6775859560221233 0.2646369635229378
P 0.5660732608731072 6.247410309021252 12.356467762476528 -0.6499895344610935 -0.22006740444267908 1.103907513173473
P 4.16502259813873 6.530024450952407 12.443398777634764 0.8011428895408783 0.0014580726027652309 1.4441395376239063
P 2.625095480697648 8.838523615676968 1.6256899953666255 1.0201291451042365 -0.8746733546298614 -2.5873964991292793
P 6.869241982458257 8.132725212629891 5.587379815700798 -0.5136663024156056 -0.7419491527895415 1.2093605380026655
P 5.123462719137093 1.1484729789623727 12.363528767551566 -0.20016912285685526 0.09575893746988025 0.9206871023558144
P 4.223374531690257 6.523149285891661 8.0873948966315 -0.04565996393096007 -0.7162921143430696 0.4184079587312278
P 5.244817163937696 1.2775722834718852 4.059876515175746 -0.6313014711332869 -0.2638790023109907 -1.651615221444504
P 0.3983997945793595 5.784778529600728 3.1623983271414513 -0.0181401612441365 0.22272232556702287 0.9144472920936897
Ni 0.8630419418392169 0.4763116185021121 4.926845814952459 -0.49398399349532995 -0.34067245442196165 -0.1960594715638559
Ni 2.0062573877864276 6.8337859048547 4.489562430387729 0.7888260198467383 -0.07953964739754044 0.26883686053689826
Ni 6.309488197539121 6.034765390204987 9.045087995700493 -0.8937743371253705 -1.7383966380061224 0.8623202323811472
Ni 9.002172684419845 2.595480089257549 10.268156973305988 0.266656822166444 0.20675217539101168 0.5282632263931741
Ni 2.4672138606741725 5.589985237773085 6.743401744209231 -0.0968367439150913 -0.34490628999765116 0.37975785045919763
Ni 0.49726027390624755 0.3063622986343278 9.165315499330685 0.2912327117335952 0.2137013530153352 -0.47020874545260305
Ni 1.6363625219016693 0.9397828821251261 11.509690026026021 -0.3272595234501654 1.0376172745866712 0.6326944948260717
Ni 4.120970275539115 7.097980829605802 1.6134163152109098 2.109298323626271 1.4635842766120795 0.6070863073396642
Ni 6.02977608932868 8.092682640092335 8.118386236551798 -0.5043828202311507 1.2563299647736685 -1.3457225937058888
Ni 5.575218738115318 3.265135813663048 4.596927607905607 0.5228937345511446 0.8929628969676686 0.41122429649859504
Ni 0.741396378198492 7.786669134785322 6.9101899528979525 1.6706874075846068 -0.6746284160556962 -0.7386673967144762
Ni 5.303800770444205 5.063041827790987 6.850739457685588 -0.8132314452742962 -0.6614862222467833 0.25053317713170403
Ni 0.5860002539326629 7.93990017711125 11.022884397258753 0.754010969050082 -1.6705434258075744 0.9272722117724997
Ni 5.177759129224026 0.5216712294781249 10.253633072681653 -0.6239398885618932 -0.9127254243065764 -0.1482032713125254
Ni 8.679534279312147 7.524360074218661 4.39519506825367 -0.2945527772457637 0.24917023534590638 0.4177662113821708
Ni 7.677014371672648 6.4607692929170595 6.863776638195585 -0.010214221528840474 0.32202989962010986 0.4520061064016474
Ni 3.150894555616373 5.114555215003796 2.363172747648381 -2.2054321279370668 0.44709041426758483 0.8101422648260111
Ni 2.3998079481012367 5.438933009407821 11.80404870757959 0.3465422829391773 -1.4690612405662509 -2.0395324677860422
Ni 1.477748527437635 3.9122618693408544 3.4168682347899813 -1.5591832914653276 -1.0947420446241212 0.5912115450909365
Ni 1.7165117497403295 1.2498244468552115 2.763529812920134 -0.616963200133744 2.0034444638142337 -0.5325140312497281
Ni 1.3773674556785365 3.550972403132663 8.39085149967291 -0.09274868988864672 0.5870041918778084 -1.2776202416110127
Ni 3.6514084029748033 2.9975719664853764 7.185361339576929 0.27503296204528116 0.16798225371166556 0.13269566259522952
Ni 4.291521973384259 7.428675353559647 5.962359191139135 0.438399057141174 -1.254449202811188 -0.4969453901164991
Ni 8.421143422002476 7.604381136530224 0.3180354317487853 0.4340366664074203 -0.2956364972282457 -0.816204154749375
P 0.5370062347953768 5.817323418803062 7.92189292055401 -0.7690874037672303 -0.6317616985991571 -0.9285317952112138
P 8.899878284434786 2.082222926633395 8.07187954410826 -0.6655174548933634 -0.3689314492676549 -0.887703191230626
P 2.0798427097015786 3.608710973090222 10.44153746742779 -0.12429792544983755 0.06398704437492206 0.2744655195775854
P 4.215153628594984 6.409191822940702 3.853320374364678 0.42192934162092494 0.8414870976858799 0.08942656749394921
P 7.174925919267016 4.3868679708645155 10.362430957698875 0.08507883204821477 -0.41951867529690334 1.0311715189613273
P 6.746029137514736 7.794121044718009 10.18165439719548 -1.3034210047242003 -0.14503078712181472 0.11944136868848464
P 2.687887434295063 8.819417797458888 5.76729949810874 -0.7611398667853795 0.5457390145804344 0.6745052602142706
P 7.150958965699727 4.08226428635558 1.2032472633717695 -0.31248673601636506 0.08918822623089802 0.3918947429320477
Ni 3.0560795296055216 1.6175771175013347 0.5181649868439494 0.04658838928250041 0.41560108541005203 -0.2647266950232667
Ni 1.7287973309807043 1.1607402508417333 7.161618675682062 -0.09531002285791973 0.7469941714126167 -0.6223887420246894
Ni 7.2373791496856725 0.8965087073686046 8.948120704302449 -0.13818625339615556 0.6586626367550592 0.04276567310230054
Ni 2.766397974322973 1.7336950850519417 9.333510782413331 0.7510341458099452 -0.4463591925285151 0.1421768626127874
Ni 6.592624156259176 2.1129551890953464 2.1395467895639873 1.218800600369643 0.6584381794490789 1.7339239469467493
Ni 3.9273396281358597 7.0981273044939135 10.409782627153207 1.1301679895318988 0.7758951707176831 -0.48134984967108707
Ni 7.716315415089138 6.178274161832495 11.69474090685813 -0.932673328183413 -0.0028372123384789844 -0.9942756743762424
Ni 7.869070414028702 4.370508556798532 8.214147856527072 1.3502389935190036 -0.7498051584988505 -0.7124246609678634
Ni 3.5533800841060006 8.784684939615385 12.699477162648371 -0.13849915665088405 -0.7280721376971332 -0.4636915131593756
Ni 0.2898802118495507 5.156858993626577 10.05859992822473 0.3150673522593477 -0.05965344999657468 1.0209902075529513
Ni 8.928981013766494 2.822397154984204 5.421972132832529 -0.2370012040835402 -0.49877652978796677 0.9100589332180069
Ni 3.697648694215588 2.649382848082681 11.536849216686095 0.46307059174592513 0.21282306417543992 0.32677075673920497
Ni 1.3641938704289842 3.2199483106805666 12.649967734998542 0.13917689944419903 -0.04564685130483751 -0.6762088731689385
Ni 3.5662515648988222 8.699866824718162 8.088815703046183 -0.06822987881167604 0.5337838991010871 0.114435430833461
Ni 6.024054414011814 8.080040026312187 3.302589442553228 -0.8131049469987609 -0.28697007980249933 1.6596982555629545
Ni 3.352498929741212 8.942548250277847 3.5640672581298554 1.1110389820119317 -0.8612043736091491 2.523262644763848
Ni 4.056667799658047 4.39572054691477 9.442348948024783 -1.1507041618120375 0.8979495515489825 0.18136664543837153
Ni 5.297557278338441 4.590568766825455 11.93672291482708 1.1466145651236963 0.13625869735613952 -1.8472062380123735
Ni 7.9751273877021305 9.26298037738336 2.140458595742483 1.9157058255456683 0.18320009910268448 1.4112127049888987
Ni 4.922700575618896 0.5521645547788437 1.901691711567586 -0.5222859257638166 -0.5166811779825295 -1.1640129631058018
Ni 6.2728969395527 5.940463026302527 0.42270913319760933 -0.2044124715142415 0.20681748141130832 -0.6753182430338692
Ni 7.912353743465729 0.05171570565201303 11.140218106380686 -0.1208153662178758 1.388801170062918 0.9254266739233287
Ni 0.11544418306529274 5.277764859082337 5.500234581018699 0.43202169285992054 -0.37413664761767823 -0.3979900571965081
Ni 7.6283114713754845 6.402014553423226 2.4080993422364134 0.08773323895192632 -0.543173053625471 -0.040283273000079015
P 8.920412232811955 1.868763241252009 3.476466120358509 -0.431105094582922 0.17706056186384989 -1.2933011426813792
P 2.087972065991782 3.4084157182778814 1.3350609306516035 0.5823769775184422 -0.40885271094262493 -0.025825702813852297
P 5.045034571233747 1.4124848101033338 8.199703601623149 -0.611516832307192 -0.8446223008807517 -0.42694016457195505
P 8.742426934395139 1.6301190297959052 12.446587352855346 0.6827230201383726 0.2752710461980163 -0.8563419033105252
P 6.46356147047169 8.049408465335814 1.2429273105612484 -0.7998113152136483 -1.186001551561751 -0.9262558546928434
P 1.7786079476192138 3.6416312041933425 5.776651919714676 0.9162784317651574 0.21043296667670858 0.8407067678764295
P 7.1586580520061025 4.30789054213075 6.000773146014498 0.5252725191959663 0.17692326495503724 -0.9187862857886756
P 2.353466955374875 8.720803579037637 10.088880864937686 1.5746654462613268 0.31272482016910014 -0.3670545439599162
