# total energy = -381171.85420705116 ev
CRYSTAL
PRIMVEC
9.22358176197384 0.00000000000000 0.00000000000000

0.00000000000000 9.22358176197384 0.00000000000000

0.00000000000000 0.00000000000000 13.49964424258100

PRIMCOORD
 96 1
Ni 2.932490159419904 8.611403168736421 11.875812209521229 0.01841218395860055 0.389328010646136 0.3334921346234386
Ni 6.325928804113511 0.13070552866666535 6.6882772031926 0.6220858660722899 -0.3255003746672136 0.1874169653975095
Ni 3.9579218322624055 6.695932775834464 10.553711416717936 -0.6376320413370051 2.2114492806654233 0.47564997107283247
Ni 3.269944112040689 6.212801577062347 1.8397992079488008 -0.4155303800731166 1.1428864655398316 -1.0987156845598884
Ni 5.37943254171568 1.0577234316607753 4.832183616172574 0.18849322918082378 -0.16633803324002322 0.8357980177209026
Ni 7.819152859699914 8.32887564392564 10.782395362186373 2.2396442550424007 0.24546913234523532 -0.2810154048809612
Ni 0.3575834968781402 2.793011160034032 3.9712978701482267 -1.1986706623889873 -1.136824832726784 0.1431608237926115
Ni 3.8701686779073476 3.45828042261205 8.530127735666161 0.4740759417174932 0.5959742565869026 -0.46205294911468814
Ni 6.6737961802435315 4.60007679961089 11.574405858103978 -1.551342198154354 1.1321585375993661 -0.06652755140858864
Ni 4.1235127908640825 4.077902180365263 1.7530634146327762 -0.07664947033393896 0.7055204776488624 0.8502429895016389
Ni 8.623117117236625 2.925554026134745 8.523188835306554 0.4654480908391661 -0.3672669170810385 0.3833591946572107
Ni 8.104899414452877 2.9062029521556707 11.222335295886129 0.588247063145974 -0.036596053956478906 -0.5722069789639759
Ni 2.659822643228584 5.735850177892697 5.047503514411132 1.1997003892050822 -0.14615178810013538 1.01087831592993
Ni 0.9820992869732496 1.0958168232401728 6.248553101299853 2.143582184509805 -0.7059868757623196 -0.4996057105574815
Ni 8.088112496129753 5.4211323536601 7.847342891826818 -1.5760281309368083 -1.1235222020806068 0.894073356423028
Ni 5.484184756768275 5.696299460436897 0.32292588940608524 -0.034377706148921446 -0.9032635075627282 -0.5045982786760664
Ni 5.61689364733592 5.850471625146251 7.868739756181753 -0.4897547859053307 -0.23291443560867628 0.12382664224037383
Ni 0.8485528952057478 3.8519428808708125 12.62903846760537 1.5810417821013159 -0.1562279413892148 -2.260719073434829
Ni 3.187180915275087 5.695690704058146 12.595788378669639 0.6355736161460797 1.1830900343419108 1.4423485071617546
Ni 9.004364634801473 4.993361091028308 2.393607944652021 -0.438239134524542 -0.5815552529480953 0.7663736043804931
Ni 3.6595666416041066 7.546310095460165 3.7834098256375825 -0.6007966176762104 -0.9656029890318985 0.6488358804726245
Ni 5.2863204865113165 7.912679976071607 12.232229845698246 0.8472900775209021 -0.1901582755880725 0.9576762779856539
Ni 8.908669976778167 0.19792791296928222 8.46689547271881 0.23379812376521025 1.1739230231306619 -0.560604618838357
Ni 6.567983253318871 4.06033125761496 2.1459704615669986 -0.3734650754719504 2.2003434005602496 -1.7720287242382706
P 2.1148750012687847 3.7228680814126793 0.7756183468825204 1.5172817661355353 0.4481185984217831 0.7199798476073019
Ni 0.24796123079553944 8.594284201479432 1.6486709192585336 0.8502067369470647 0.05270427237225117 -1.0347332681706565
P 7.516195101875 1.5417862121640118 4.255493018493525 -0.006058033268621824 -0.434012240927388 -0.8933380209189002
Ni 2.9403670980176777 4.517654875360649 10.490951401143192 -0.27287657782391067 -0.7233145684074898 0.8873748613569298
P 0.8962378891830668 1.5041263289149365 2.2366345782422643 0.9871591179361191 -1.148555233789835 -0.4556213345567314
P 4.997484031957119 6.157349405107059 5.13823404087317 -0.1155122088374075 -1.0463094030440305 0.5592573607818433
P 6.942534450717461 1.0711529663192747 8.68853260192413 -0.8596743101178679 0.6794201810173847 -0.06818642716825032
Ni 1.1114507938762694 8.468622127174902 10.159656033887435 0.6211926648340592 0.38789102108929324 0.951473748719368
Ni 3.8413173149871644 2.3632014858915746 6.0457210100490295 -0.006140308569782973 -0.01888423849901264 0.8195507026241047
Ni 7.16432469137562 7.827786131980377 8.236970033180983 -0.7289403992346994 -0.7745787658991048 0.35544549896607813
Ni 7.704217810675488 6.616536186314985 1.1872990715941534 1.046728749969636 -1.3458205527363338 0.7671246236139047
Ni 8.632580511851748 1.7999173639172859 13.590901216775908 -0.6798205017795969 -1.0930327752424982 -0.03847270215390148
Ni 1.2754184021346113 6.909670829846421 3.1264500876295114 -0.04607699686372064 -0.30351075776999986 -0.16691833122352542
Ni 0.24143923631956077 1.1351185039955756 11.60846485513693 1.3559681826932968 0.4912277709064314 -2.3226780316361286
Ni 7.762759882432011 6.344910934832737 12.448899153909702 1.202230611826104 1.134635538384949 -0.5677360876768158
Ni 3.2257170387663034 6.519319637344803 7.662870339544224 0.5334555692273909 -1.5660707626137804 -1.934947190273784
Ni 6.465435474243873 6.718327631707292 10.426139138685539 -1.3162240700261396 -1.3144443524178975 -0.9749795451507919
Ni 4.592107625198154 1.3706518810831054 12.609342431678337 -0.125960400753925 -0.895718862446251 0.3370166028369293
Ni 8.34208381262823 2.7143709041972417 2.1331865776132344 -1.2408524379633599 -0.8565100534572733 0.12619308559002138
Ni 8.683974307948699 5.029757343612401 10.124503120089033 0.8142940822108556 0.4295228376974667 0.4430828357700885
Ni 1.6098101256986503 7.6531560635124025 5.469057160756321 0.30115151350920394 2.1143595401992616 0.03624766947812467
Ni 5.467148801744753 6.365719334688214 2.8946476492572035 0.348729006177851 -3.359297203975589 0.34521816481111517
Ni 8.566244513730918 8.203232016784103 6.184808007221312 0.7138120282336932 0.9076930040889916 0.22995998096604267
Ni 5.432422017411477 2.459818502064502 3.0629069899857377 0.0965104709239241 -1.4960519102224816 0.01252075817483005
Ni 6.161647594084298 3.447950011336281 6.065673461541658 0.06012241921319324 -0.035787956232886754 -0.04792047783036263
Ni 1.544507168705397 4.231668507488783 8.177611674462044 -0.2841074135427236 -0.8313893471302456 0.4535166295089028
Ni 5.809804854329406 7.678087404296692 1.3085126125430564 -1.3231683625544566 2.8191446823439965 -1.1995574358693146
Ni 5.437679458864323 2.7636801708760457 10.89866783052775 -0.3098446704078277 0.047329381213583 -1.0208395409076998
Ni 5.3957398338010005 0.2518960106618279 10.465774713091104 -1.2547327954898777 -0.10606314760936572 -1.9887608936601295
Ni 7.196155271119082 4.721477579264167 4.237322562945968 -0.6517864784605161 -0.4984443432595287 0.38433132876249293
Ni 6.2706426566251565 3.46194218446605 8.435697630665988 0.3601645017083023 -0.47325087471303656 0.9176550003977101
Ni 4.771404825903217 0.08600436330337413 2.863274559155953 0.6699017000039882 0.3704833671358071 -0.2983865491695571
P 9.089083230844272 7.200342777118368 8.993125700748324 -0.010496785766265794 -1.0989699666625397 -0.026661568451586338
Ni 5.923614626411293 1.273213966157014 1.0812057477920074 0.981138365663336 0.08143712153056942 -0.8481606530513135
P 2.980388218129786 0.45395885521586654 5.0597884026059505 -0.5533240260165438 -0.4203846228416244 -0.05058105538166128
Ni 3.081312646861449 2.045024818597894 10.82832049681421 -0.6995228653045307 -0.7562110620251944 -0.19655132359860988
P 5.029120916489162 5.133993038101208 9.89232343723353 1.5408778082879206 -3.011414090737801 -0.8392810911734965
P 1.1316781080974847 3.1966074155642263 10.338027187010276 -0.9413248332108239 -0.5027992777941147 -0.5700930179447665
P 6.472500737669978 2.956213211028188 13.035836228272903 -1.0346463648838051 -1.1086406569830842 -0.19418950823465267
Ni 1.9705628451788924 8.73380009519129 7.780681301279171 0.6952882583978929 -1.2793392811846482 -0.021104386078783007
Ni 2.053160017477562 1.7574519947086786 8.360694233013158 -0.21670131618392355 0.4510362862892103 0.8099471180960696
Ni 0.48351397740421126 8.44531413673395 12.590712641772267 -0.13884676979828992 -1.4578059793674054 1.002990171431105
Ni 4.1517369502425225 3.7123900928329707 12.973130631828985 0.28524872623601844 -1.2089298782231503 -0.689316099974858
Ni 4.743291349502732 4.220858469975211 4.17029664092922 -1.128586761087708 1.1369950397560613 0.8382847886984983
Ni 1.9577512904806398 6.2826609833147335 9.375934770660482 -2.268170901727184 0.6295757466914318 0.21380831090684466
Ni 0.781489156504866 6.133045267864514 7.068791446028498 1.1722667184741618 1.2664405708451092 -0.3204527849409772
Ni 5.969833993288862 7.869541285413775 4.504925410537712 2.07145914129131 2.298182617597926 -0.3131565083898801
Ni 1.5911323731688003 3.5665191514702173 5.537999743007984 -0.45771729785381177 -0.023154326629276252 1.5408346137548108
Ni 7.547868880733027 8.676410971121795 0.14959265649647951 0.1044531228097685 0.5379354593756155 -1.087495390364037
Ni 4.13696999626707 8.038388168283618 6.055697235795344 -0.01918300068635406 0.7451684310577876 0.9450035676139918
Ni 0.8977524012647465 5.941969553588774 0.574824667142362 -0.6382974428351459 -1.0945438125703861 0.08359684818604958
Ni 2.3343501229713914 9.064004312756044 2.8559842403413396 -0.29544417871178147 1.7144388416389442 -0.5478627457916565
Ni -0.16587596726991014 5.862406939602361 4.751361983311926 1.7659760902862878 0.10761018038151143 1.0854480209167048
Ni 2.9208315524086794 2.3131266619485844 3.8262847218646217 0.041865786995850474 -0.5374508064297131 -0.35505443417524657
Ni 1.2728081285711803 6.293037512497984 11.63416820969245 -1.2706389251971728 0.40063315124631 -0.31662621210603537
Ni 7.404396070559291 8.974784608943088 2.6103455073665485 -1.3054822581286034 1.2415818599302166 0.791906715654591
Ni 1.9518389747415612 4.487161714934138 3.363382682030018 0.18121340768995886 -0.05856947290377656 -2.4003703414122857
Ni 3.9923719091507954 8.895720068357472 0.737583063866549 -1.994873691426087 -0.6435332373127884 -1.1392884637759284
Ni 7.08221636889625 6.525739250066173 6.067091126017627 -1.008756641601237 -0.7575508638825406 -0.25401342237082064
Ni 8.17359664943674 4.105351558898021 0.11045607784985916 -1.6396112550050923 1.6601327719972119 1.18156125640221
Ni 0.20325453128335055 9.177140763388707 4.108036543471571 -0.6818537301595418 0.5206360488652195 -0.09015933189491569
Ni 1.867756805822 1.538936125481679 13.384667468669278 -0.08823666095090611 0.05375508223426871 0.1596426234977186
Ni 3.4814500593305597 1.885521423783724 1.5820369994553758 0.009904660708221652 -0.6914323749869123 -0.45950112922711184
Ni 4.721579038660625 1.1627154598322724 8.029385952743306 -0.28076137988862615 1.4632106953227446 0.6366244260080971
P 2.1080126566355952 7.535961237021404 0.23706725869035147 1.681357485703943 1.3672388705111098 -0.006499748791730741
Ni 6.968830881563191 0.8038877018102919 11.818898099898789 0.3611428064611716 2.435517835847696 2.487436636204174
P 8.80040357717551 4.082255710831481 6.219069923047179 -1.0351068494599915 -0.24648394676299487 0.38165095371685237
Ni 4.625524660958967 8.17972110755023 8.463925479477027 0.4775698138033646 -1.1368412877870162 0.22837463875679379
P 3.145499550493659 4.299821551164369 6.621035449368841 1.3977025863176058 1.200655296919184 1.8999871292588308
P 3.1719989001323055 0.006017464568135353 9.690193260534569 -0.08361407457723019 0.7270529524039995 -0.3073833533515287
P 8.13138031692853 7.077327870703252 3.255762855490247 0.32846691349470525 -0.04272453545171997 0.379746794715604
Ni 8.166033312609837 1.8365534296202801 6.3170907683238315 -1.4067736953809384 0.5338291505167259 0.059028157707749954
