# total energy = -340862.78897139203 ev
CRYSTAL
PRIMVEC
9.39325505541852 0.00000000000000 0.00000000000000

0.00000000000000 9.39325505541852 0.00000000000000

0.00000000000000 0.00000000000000 13.74797825837695

PRIMCOORD
 96 1
Ni 1.490052002515321 4.966007139795719 6.553399562733822 -0.500516395297209 0.9752693084770687 0.9928158020012643
Ni 2.2548038387681415 9.380536292655332 2.100869997744247 0.12756039825119322 -0.17671397715770856 0.5569683076373505
Ni 1.216567390189572 6.497239171177126 4.259989446903726 0.13259436113067488 0.2585038540420064 0.07540891305861852
Ni 2.8923803988307397 3.809302962189077 13.197522937237762 -0.016952825804254675 0.14773044544116493 0.28301212359601585
Ni 2.163830166421417 0.9141290093928325 13.043998642121387 1.0734687370676415 0.8065530048128562 -0.2531189355810092
Ni 8.05786269670132 4.2193842852289265 0.4807993808229731 0.5963686638118438 0.5926778452238181 0.8945042733128594
Ni 6.63774347587122 7.569892505194869 3.113037346388499 1.3659561471439443 -0.030782532598495376 1.4153328978048594
Ni 5.582495842923016 6.9030371700465984 9.796959941308865 -1.8727290648738264 0.656722739419869 -0.905824326311369
Ni 8.859229440007061 3.9300156791046943 10.360049869778788 1.29746581558203 -1.5396619336029482 2.085231512485054
Ni 0.8834929089943977 3.8242382372568406 2.071888988834454 -0.5685488133860982 -0.5096957478036319 -0.02569971875894929
Ni 7.350419107736819 4.060544347244093 6.492317105683096 2.243851351145213 0.04086485653516188 -0.5721704692990855
Ni 3.2875264468028256 6.41474760787832 0.4233831111049191 -3.704660636115316 1.6952643255930222 0.6894927347620383
Ni 0.5333574591793621 2.9793149716308363 13.074326643763706 -0.8687886137143102 0.33775296678232153 -0.6129898173082927
Ni 6.88749133341946 7.207200152417201 11.755854650663665 0.6566260659410046 0.4807271284854237 0.20156214654963997
Ni 6.190389717945278 2.157377000401572 9.128162081076308 0.2155486906367191 -0.3261884018731737 -0.9538509907022927
Ni 7.967321114073537 2.838566442312992 2.4073672039226097 0.6481558236864643 -0.8594195137945844 -0.1990902879703797
Ni 1.97386098216327 2.4256859293547817 6.363732841278934 0.9314281429224024 -0.26405949375291293 -0.31067539383923914
Ni 5.8963056979317265 5.71595520654741 5.825416682911979 -2.0803456451476627 -0.8646645642436077 0.5245778071217869
Ni 6.085523421809106 2.2916723636995706 11.468686884129605 -0.09422296044132805 0.010303181698220965 1.0704831720767563
Ni 6.551410071375739 4.811234481121793 12.576897444714339 -1.230039663618572 0.10734509964558288 -0.30056735887095976
Ni 4.794448734866388 6.217151100755378 2.3057697604427783 -1.3979915783129342 -0.8817469736471911 1.6051844407857903
Ni 8.63579208904046 2.9236881169444855 8.33736462802607 -2.289380960145896 0.43552662068938536 -0.6221519434235351
Ni 7.228109537512069 0.2108532075651653 10.834163131863878 -0.2685175295242666 -0.8476304915794565 -0.9524628521055144
Ni 2.9312027207521654 9.349754596808124 10.675071454651487 -0.6988273818994029 1.309338655760216 1.3755715587465214
P 4.897455166560159 8.681743891324423 10.880039788109762 2.0015243639733855 0.19755045428708556 0.06500622966805579
P 3.134820304176011 6.787246518625012 8.495287784346365 -0.9235448835195837 2.4588865924806234 0.5706468335657076
P 8.687361057670662 1.8492970307962167 11.282511635468861 -0.5866149268591897 1.058084027081455 0.8611159276604009
P 2.3155500172984738 7.045852215411554 2.417224485467334 0.005923307462970444 0.39642862624665914 -0.17861967882085367
P 8.745138967696962 8.224611755193736 4.318858853133089 0.016649949851855198 -0.9626662750010775 -1.8769202201370383
P 2.231452207435776 7.660180469944143 12.474268621861901 0.7571117194625929 0.8399218100812889 -0.274428752802379
P 2.138224153946748 2.3607221794373894 0.9140839217699864 0.6531548195629526 0.4291400004367512 0.9302577767633851
P 6.5642882236511495 9.34843014788702 8.42082933251797 -0.9536388746914868 0.5961544909185088 0.9131226597449953
Ni 5.804054542937697 4.108600238594207 1.8867451195463134 0.569452041926658 -0.7310453613928443 -0.5515653914542242
Ni 0.9055482711699381 8.204547763027232 0.3754286669062101 1.6155303027964887 -0.0812139497761698 -1.1280679124697603
Ni 3.9435325727037585 5.06130170933186 11.448916900837077 0.7360345870773194 0.5863357050558742 0.6350586241828741
Ni 4.619724803083072 7.340105314010779 12.49303446622063 0.10406488623241433 -0.6645957144100425 0.013485950301576774
Ni 7.096566397858633 4.174221516344771 4.079313948904725 -0.4747850519693758 -0.4870723539771611 -0.24252804743904038
Ni 6.061673947974482 9.343085385928807 12.956905323315853 -0.11389987004496512 0.05054994503340971 0.34476025133809013
Ni 3.7745291330690387 6.625203480767155 5.091591198629665 -0.24962172106102817 0.18582930919541543 -0.6289332280114266
Ni 6.5764712750743515 1.809666888965465 6.722114629447422 -1.708626091611909 -0.21043528066955372 0.16905106129581207
Ni 7.611692488875088 0.4553680828868325 2.3758706813881956 -2.2894645209986377 -0.040606460667452646 -1.9998009535243753
Ni 1.0738368841174526 2.118085015742166 3.6007745851769126 1.282173922419966 2.1214172183769917 1.6674956401201861
Ni 3.2707688803116994 4.143082876816697 2.128736966639552 0.13666878831036464 -0.1373141352038474 0.1335713803319635
Ni 1.1227945279244869 8.044355196357015 7.909885118520489 0.06809309612349564 -0.13345028137306691 1.0499878803368818
Ni 6.057897859561123 4.724713211531119 8.188130232358404 -0.3713421155916766 0.2458594258051185 0.8587060326673276
Ni 4.586932950717308 3.403523749829124 5.730473421103848 -0.864659422037285 0.1775976653142425 1.3656704975827252
Ni 7.3014896436940635 5.544396801618079 10.202443266143892 0.7171683463004359 -0.3177821800873495 0.040353721226698246
Ni 0.3618535351276364 0.370828790050434 5.665775500296151 0.2712372424482748 2.793038729285564 -0.8225876896782155
Ni 5.812799663118884 2.3176165333455856 4.080070105912874 0.3050176813328295 -1.5264904292179968 -0.9934758041827664
Ni 1.3739231939223886 3.498001106201179 8.708739166178036 0.6687303054037064 -0.37041420446076856 -0.9587139752215489
Ni 0.05998438556932856 5.745093082811689 9.04577102560343 1.4626612505771777 0.09499377716908157 1.5655881665504068
Ni 7.700486926117586 6.160265549931242 4.730954089993396 3.281668400447516 2.148150263496462 0.05126162638845365
Ni 2.4671571491184148 5.121080382621953 9.695610479754686 0.05059262534588706 0.43240915810632624 0.44433470589931867
Ni 0.8292290155736654 5.653912758860254 0.7487382155386544 0.14710926691739826 1.0196406355035923 -0.1159572667946261
Ni 5.961823649879936 7.620888485284737 7.284311259389708 -1.127643423337832 -0.4123365557261673 0.8006147849515501
Ni 3.831621335497886 5.362937906172129 7.246201885504535 0.5781210304555656 -0.9251927035356518 -0.22434417744116203
P 5.64294143730104 4.203556650959001 10.438976692896324 0.6498136710048615 -0.015727438037585816 -0.1443209055389837
P 5.728730033020466 7.826647730793771 5.180457963933811 0.11134187950980179 -1.3338698081323608 -1.6299215385211543
P 3.929489656838157 1.933376054149395 11.0673563172238 -0.6908497630105651 0.03764737803912871 0.05068235684621594
P 4.985911446631311 4.547612786293624 3.9397301831770726 -0.7829708466175419 0.41001639223342284 -0.8622574974640118
P 4.646702230752642 5.0425151998126605 0.24481545947397443 2.8944078138533698 -2.9327429619881427 -0.9849585107403748
P 8.067781973727458 2.0956539233762412 5.200350998863692 0.3851741363787624 0.9980279423298231 -0.6483725676829608
P 1.3760178897337794 4.498645749231829 11.681038315828928 0.19607361263124296 0.27543122592496433 -0.7728013622837079
P 8.83154751823052 5.91360807319891 7.160565460512215 -0.8531138832915307 -0.8834238471289818 -2.78428052347696
Ni 9.010319942815224 5.746633576592263 12.446608304571308 0.08625279775165791 -0.050789828958357694 -1.4872217135253614
Ni 1.8149083251213216 7.332919474119684 10.30716114885486 -1.232405335637271 0.13005565386922116 0.2512523146859157
Ni 9.43270642959015 4.33174639866326 4.511976656386654 -0.9281762116440079 -0.8241293231337226 0.3186411856535351
Ni 8.382146030766986 0.6557910203669381 7.671412923985672 0.02896836220789205 -0.9464456993771571 -0.9823982062123663
Ni 0.2794352392159556 1.1789755846416536 0.8776240034205997 -0.9310509620886417 -0.08551206293089145 0.20358740450978485
Ni 4.544541191987235 2.221316885550168 0.5371279116398654 -0.11027924257324233 -0.48536257037490604 -0.046380644147068516
Ni 6.974172288341047 0.21594059434296456 4.631377135612355 0.03462118961829521 -0.15120657691522346 0.7175712381658093
Ni 5.518330519660189 7.9947682044810895 1.2900827592401043 0.3142345719454072 1.8234585007734725 -2.4223152211144927
Ni 4.553821727689719 9.240154100273113 6.120036118446827 -0.7529115653383163 1.69349592083869 0.10278884773346812
Ni 3.645644284512569 9.152580786149363 8.485568583646607 0.34495822628150913 -0.8098789838622954 -0.9971972188984116
Ni 3.551683557152292 8.775732798448978 0.371276848302467 0.5057527039954838 0.3434093937371505 -0.7047586597821733
Ni 7.922806479767795 7.510808932756986 8.45730240142402 0.46521926265781166 0.2558643595366303 2.55990960656292
Ni 4.524768390718277 8.841091065066273 3.4759974069268162 -0.6660591863294465 0.007830037567380063 0.3750061947068251
Ni 0.3422507517698275 9.395697005837325 12.047078424602917 -0.8892036870355525 -0.6211034475543626 0.4638324096126141
Ni 0.21025485723697876 0.2909908212212153 3.070171228293065 0.5255687102801464 -1.7880001599658626 1.1918826929328763
Ni 0.15816080566571408 0.4884032205508692 9.81050219669578 0.597226640936765 -1.0048912451085599 -0.8175503843646241
Ni 7.454449404199387 6.623418762362831 0.3209205488617282 0.10975756574181743 0.6559791763856251 0.9079992224755008
Ni 8.644105119502706 7.9357879578455615 6.3184329308752885 -0.5940713831372348 -1.3602128169022638 0.8446603532075388
Ni 7.19101557446641 2.0555353322979903 13.669201467689163 0.5892870743747142 -0.23713361589634646 0.5365614618462243
Ni 2.259725904262172 8.510457890783119 5.988179244084421 1.207599589447501 -0.5355368772364519 -0.8460582619963299
Ni 4.1003811406795565 3.458521256446581 9.077294788576648 -0.6843307309451248 -1.054810498536506 -0.24850997605408814
Ni 3.6674366355548407 1.8033640150217733 3.070418270893243 0.43972060416607495 0.7103816623959056 -0.9820017421048959
Ni 9.103294378425744 7.469497398324266 2.0697576593295004 -1.2636802344911526 -1.5901499150501712 2.413169807169799
Ni 1.6738686049059301 2.249834807000313 10.781026429014299 0.14788574007210661 0.39717450327374826 0.33789900544188256
P 0.8503591421553852 1.499914920012901 8.034057371164067 1.7218533889354606 -0.12441593908494057 -0.2640893185495839
P 8.895675268474308 7.626524438140497 10.884260177473251 -0.20065146180991247 -0.2803065517393947 -0.7566838878965548
P 2.5104976265792085 0.5811775798350088 4.339741937114631 -0.47676788672735954 -1.0524165443830327 0.7737393007169449
P 8.18905828592865 8.850446746806835 0.4714540316626472 -0.8682039448554338 -0.18876448056433942 -0.7222781567231754
P 8.481958755842493 5.220320119157125 2.6700082429538767 0.12163991900170018 -0.19986007625686872 -0.8651620727053163
P 4.234507425391882 1.7898940876965073 7.316206055925929 0.003291012046445945 0.23855672149611817 0.4730860670003981
P 2.106766143756848 4.142491101766843 4.694274369482636 1.2663318131813868 -0.19233265753157197 -0.8963642093397337
P 5.46198038435735 0.7864108030775055 1.9492018097683685 -0.2846036364528518 0.38630542176972826 -0.20207688140252938
