# total energy = -340895.33887652063 ev
CRYSTAL
PRIMVEC
9.01198604256063 0.00000000000000 0.00000000000000
0.00000000000000 9.01198604256063 0.00000000000000
0.00000000000000 0.00000000000000 13.18995251880330
PRIMCOORD
 96 1
Ni 6.21370109489229 1.8739162701688388 11.230176103668448 0.6228065462883984 0.7698754468861644 1.3777392558218013
Ni 4.597680821104172 0.44082128325690956 5.982249869514105 -0.05888314748945343 -0.7169212632866363 0.05931714970307849
Ni 2.7286400352293536 1.4786325509372211 4.797515296854426 -1.0597526730331297 -0.2577255811150852 -0.02185334842966559
Ni 3.204022283860693 3.844666327286374 4.512176902647974 -0.45632967347766573 1.9252772712841875 1.189754333735964
Ni 4.932503127898488 4.525161371725283 2.656073723524533 0.11291976551988295 0.09988812914690538 0.0036607366810388568
Ni 7.059674221783685 5.893063653677987 2.7330505010583614 0.24227967887366017 1.7754192379770586 -0.7400668481651641
Ni 5.18333372744647 4.545122920174921 11.57279828413462 -0.5941981385230863 -0.2921588230922904 -0.7088485135808308
Ni 5.718294213911019 7.84424868971915 12.467432529314353 -0.8156315700753565 0.15197996474613826 -0.20630403210999954
Ni 1.7778394900236498 6.3143739877730605 0.3630298222107347 -0.05136986983154379 0.41807551509247354 -0.5215253934487083
Ni 2.7562978195146535 1.5245125704212432 0.24798461444622366 0.15054297518929557 -0.4686848526089089 0.44312165942782394
Ni 0.7350725313760894 -0.139142356477598 4.375634504060995 0.21680647430322014 -0.9493384475439199 1.2782900139845277
Ni 8.467634780422006 2.3707470448995642 1.5279371250085398 0.6517227151021163 0.19616797211726217 -0.0831384204923923
Ni 6.959271688475595 0.7696118679847048 4.9155128311526175 -0.326638859147031 -0.5411747922485196 -0.4416209065125813
Ni 0.729167878308729 7.232208689083154 2.3118816551396577 0.46636905999153877 0.4643831399097615 0.09726508970176152
Ni 7.406716781263197 3.927910039714956 3.907761041961592 1.4105362477471644 -0.7039230512547554 -0.39876190236552617
Ni 7.446784069934571 3.8118987470773966 12.46999193326907 0.6622557534229563 -0.6181667335235418 0.8328461341814302
Ni 7.759959586942868 8.921009759837085 7.184250505683789 0.7085014146540571 -0.6003245631357984 -0.6009220875104813
Ni 6.958307405999698 0.6932866570210384 0.4786040335391255 -1.3163037742241395 -0.1815759332357002 0.2811043650503417
Ni 1.9424794578008242 6.363759669716184 9.313886377673263 1.1493306785032786 0.7264659695522779 -0.05782976652427461
Ni -0.12260626381383222 4.822836273233184 1.4167463435518892 0.5894811926633912 -0.2743930144684371 0.6065931697533296
Ni 6.438955678864618 2.0643395291940556 6.827739052770401 -0.10537640595498625 -0.10433305229213644 1.5449522354676104
Ni 3.3157438712783747 4.400985219992748 0.4201685154997827 1.0170615619225063 -0.7894171164635179 -0.11163755637334968
Ni 5.942710683208036 5.713797233018753 4.990405136381073 -0.35326263238214645 0.5272229580541178 -1.4821229588462153
Ni 5.340926322362418 2.884619484694969 9.068435032423064 0.016076336736572314 0.6128409504352543 0.20265897915824455
P -0.0162747450768405 5.5372434200720875 12.589506184770002 0.35073960884997657 0.10200286149706304 -1.4007238896424328
P 4.054906942989133 6.182925163535398 12.580852876047048 0.10708233290249945 -0.1643372007599105 -0.1575983393741802
P 2.2860974626930393 8.42698171267649 1.1528573766433985 1.1573705180886196 -0.2833599938537378 1.4577856676524312
P 6.294790942725176 7.926086532369789 5.942521431507159 -0.3871829392786751 -0.7613836073650695 -0.7062699542203772
P 4.713448790126318 0.8455135156178373 12.650391160537836 0.4871461446378901 0.9526060625515981 -0.046433608872191
P 4.15666127416063 5.926948720120714 8.22452835386553 -0.27628534639514357 1.0730648167610035 -0.4560645927417372
P 4.593255936097954 1.127696813611098 3.8554230334847883 0.8895592706027583 -0.43767529160127205 -0.7737490709089577
P 0.3870422582577149 5.601706154185074 3.562355059095377 -0.8444207263929071 -0.3557103225916906 0.5530075232173896
Ni 1.4938267589219119 1.0546186211153346 2.503123202471524 0.26306910481518564 0.7163466217300888 -0.40395115987594954
Ni 1.965973704666832 6.3407430580952475 4.974788266264423 0.6177237324488523 0.285197818393425 -1.2385767545553057
Ni 6.139045804889218 5.560070779992148 9.162756277742975 -0.8137672631731082 0.40623609925538423 -0.12018544594336075
Ni 8.558232273227521 2.4336416934909972 10.200225089964556 0.6013704879018094 0.31938526290841124 0.23012298890646818
Ni 2.4932109193384506 5.0756224736902285 6.948638446482038 -0.3512846827201692 -0.2381137204214286 0.06620744906500856
Ni 0.33398959931045735 9.020817502085277 9.055746156478554 1.5867437175820995 0.9503357784601826 0.24370638401785769
Ni 1.4574994443392975 1.008999949218238 11.112824728748963 -0.4340778040580008 0.5541740327216649 1.31604872079054
Ni 3.927973123615248 6.8942321872742225 1.5232941499470258 0.5707627903182815 0.14999995820163198 0.25611838452896535
Ni 5.71243642316959 7.748487329075423 8.145125549766174 -1.0257598610274528 0.44642295588691505 -0.1794671144228135
Ni 5.240550825011597 3.028072273959683 4.8619879441517435 0.5929652945572497 -0.9963253578164197 -0.4801681706581601
Ni 0.5220436072804104 7.331034124883936 6.689666419002045 0.30715632494238715 1.3956850416669448 -0.058079934861867716
Ni 5.06415922780854 4.474099460431535 6.772090941925402 -0.5615826664809103 1.4066991333892611 1.9520090308520766
Ni 8.261846085682734 7.061107127518896 9.020001917374355 -1.1707569666978548 -0.2678223032294549 1.122594548060015
Ni 4.537733091854965 0.2763858875563975 10.509173084454694 -0.17568425034161356 0.11489257297553761 -0.7923810841878483
Ni 7.972876762415171 7.155723965971606 4.709854810206807 0.2707970695870627 0.7042878907933419 -0.7038988828850393
Ni 7.271005287762924 6.22976045350956 6.948994419919401 -0.5571945647155436 -0.22518801349869605 0.5905083483763249
Ni 2.3802276539149227 5.038961715634639 2.552836019497591 -0.6391891014114799 0.44337182776541706 0.24594504354038935
Ni 2.4670040647598737 5.207440789343889 11.421891681451081 -0.4978555606355941 -0.47165036299513613 -0.021704481556627134
Ni 0.9319294470325467 3.452780126684785 3.883662992049929 -0.7573603451382892 -0.7259185816892402 -1.3446784687120905
Ni 3.561041111572146 2.6298776833288633 2.5259018976685015 -0.06930357149182903 -0.7951663602424693 -0.46873010402454757
Ni 1.3116494668634755 3.2522904795700667 8.169711148107238 -0.9145293102845347 0.6007691068723847 0.47109988980830486
Ni 3.752482724987796 2.701333718388539 6.985042362943579 -1.381007385050112 -1.0613956079531914 0.0643256586612634
Ni 4.153200671630309 6.947474999120933 6.131507278804287 0.04341153421641556 0.06526796796987469 -0.14242677384006439
Ni 0.59039681564428 7.225990418911484 11.279268896074498 0.7170310493916232 -0.1398217321170495 0.009983079354640871
P 0.5149484708946768 5.701576980333557 7.9676543166695435 -1.1020792017154826 -2.4983458269175105 -0.4134457296299461
P 8.536549435498477 1.798783344920697 7.947487294944668 0.26959662152105823 0.3208065687359701 0.3395308846183507
P 1.921914106305531 3.075457295064964 10.463496735848759 -1.168550445964839 0.6810579737311239 0.11151620030413698
P 4.027591614162563 6.0656882408350175 3.865975167606541 -0.4655861590789272 0.6308571845070167 0.26894150443556264
P 6.90020713383048 3.951142938994038 10.329341612288557 0.3517883618294651 -0.33912362187760303 -0.2582547141456778
P 6.315563569892858 7.951581440073638 10.208982937722281 0.9001488731931466 -1.1288173890412752 0.6243173265059699
P 2.312015933727423 8.391564608655235 5.9053920501922565 0.6497522216393068 -0.11995970308579985 -0.77692078376872
P 6.803075951351834 3.9317311216755186 1.6993270701169916 -0.060477231449450684 -0.5058694320790061 -0.5934144662795264
Ni 5.201213507186463 2.759956685731608 0.5071071420883426 0.38045924740159637 0.05388492294391366 0.024984180749163424
Ni 1.5331821007185578 1.1172609341055988 6.957422428998455 -0.695776253777905 -0.04444331791503958 0.05819254918033204
Ni 6.937309479188115 0.9000702749877786 9.20906616894756 -1.4061252631636623 -0.6112813192576182 -0.6207815454385696
Ni 2.8565381370791347 1.5636606365454997 9.1387510512846 0.4412010453663434 -0.523610301002195 -0.096242304864202
Ni 6.355603822606963 2.0246056839956563 2.8489770810298136 -0.004342593239411876 -0.433236281993312 -0.9511760149732907
Ni 4.214319959027802 6.825714059571017 10.375071131610452 0.37171158311595337 -0.09154747049169394 -0.3023465622585696
Ni 8.06656536633501 7.403328274618924 0.17393853468026085 0.4560345108347501 -0.30466698286163013 0.4383016123313612
Ni 7.788734857461917 4.096001598036695 8.165781021119027 0.5390148084827233 -0.8057076260934253 -0.4875883743816312
Ni 3.003938176104996 8.142851825759923 12.21005742571033 0.2193012157006159 0.1378016163632272 0.965716374681311
Ni 0.18566763414175258 4.877421870957545 10.178106072124923 -0.11838670217172514 -0.48112667791668756 0.402994452389635
Ni 8.570623753642082 2.4933460991247913 5.742245368454858 0.49816872100063875 -0.20587414366143256 0.24844826957821728
Ni 3.7723631655656304 2.6458198861313056 11.549346393601667 -0.3670691992479355 -0.14923788322462686 -0.6213836977989426
Ni 0.9790531205509025 3.3860013122324966 12.603434208755967 -0.4060172983763588 0.045137001547954525 -1.0390378090832815
Ni 3.1269788176322697 8.314449046540764 7.983547854748903 0.32716079308877205 0.04723887838230574 0.544260887373011
Ni 5.680497945650169 7.963990944459712 3.697314952983595 -0.32987073582076737 -0.0869120286022116 -0.1166038992396895
Ni 3.2030580013847962 8.234305457212262 3.6139153332014335 -0.5541406083805682 0.08246710545698055 0.10969303105246915
Ni 3.3777012733511795 4.25198104750231 9.34190193779308 0.5466373580249876 -0.19937850863475984 -0.2511636116268513
Ni 7.191195141907396 6.035984735783094 11.426969935424612 0.08074858010397705 0.7096555828631586 -0.9273961389448738
Ni 0.6113550897185368 9.340022037564367 0.2842326235541853 -1.264734901007912 -0.4906672704172711 -0.5174777057418959
Ni 4.7104658228410665 0.3639301195877635 1.7477872211229688 -0.21703067449888427 -0.47831003440349884 -0.6125252189670484
Ni 5.997016909373959 5.531421677273684 0.39346329810889646 -0.2056813109243361 0.9204078805524987 0.9152952419162816
Ni 8.009636652314077 8.945206941592065 11.220045730480077 -0.2639121695417713 -0.16991880861274605 0.2852723803851023
Ni -0.13170927062601262 5.1328035233123295 5.691516900634085 0.9495703610490679 -1.466208344498488 0.14954075917702633
Ni 8.018161990839294 8.727549461612082 2.5885279890844046 -0.753106969178574 0.23467024195751843 -0.25090495864882595
P 8.541596147521862 1.510264620940937 3.6510311965377027 -0.015741836215289018 1.3083356684169982 -0.20228488364827743
P 1.7679172937062448 3.1664603272294998 1.3859343642519735 -0.520715238842587 -0.36915102147762874 1.4504775640267924
P 4.830262149496164 1.0374147403070457 8.079794961424883 -0.2802227337763367 -0.254636143556484 0.7600278646681233
P 8.301480799037817 1.7156658002926997 12.392923233480529 0.5234046127492921 0.7523559499451624 -0.54819390387883
P 6.353305766239173 7.686565974945642 1.4989059140940186 -0.537794562922377 -0.3503495725004095 0.47063323458453143
P 1.639352304910516 3.1521222578916337 5.931165428255967 1.553985292204156 0.38417911945534483 0.454914538297694
P 6.901748183394764 3.9822433018381473 5.973320794027016 1.2519457196630437 0.8891232115066041 0.5372543741481909
P 2.3587160439152446 8.367664822430207 10.15584106011604 -0.15789735867183774 -0.02193639506177512 -1.2002158953889202
