# total energy = -340895.26137101627 ev
CRYSTAL
PRIMVEC
9.05357811112080 0.00000000000000 0.00000000000000

0.00000000000000 9.05357811112080 0.00000000000000

0.00000000000000 0.00000000000000 13.25082671532880

PRIMCOORD
 96 1
Ni 6.347780429446379 1.8477628465367875 11.310388770892455 1.1794958892327492 0.317925133423117 0.5262551948242099
Ni 4.609104144548078 0.497468762524872 6.000809294452137 -0.4462301231498186 -0.7170595886367134 -0.008816312740049332
Ni 2.5065283444620188 1.5496194685538047 4.582215017810066 0.3888747251588012 1.1055545618585927 1.2877210774904404
Ni 3.4880901133357565 4.3306522987722245 5.050208046354822 0.0058592869942544245 -0.4998674488593004 -1.213270414580033
Ni 5.220990215453301 4.566715292229098 2.897451884700378 -0.6433386048034792 -0.21339462040819376 -0.7754655393794322
Ni 7.203904874766195 5.967158955644108 2.5551306673804253 0.72147160166148 0.5093797592251099 0.37663216034602237
Ni 5.133541705297593 4.338583233123234 11.752197946427446 -0.11521730330480803 0.31390469940981425 -0.6932866545868318
Ni 5.794769776445968 7.901238615083322 12.542358022247882 -0.8293489196614491 -0.018077169216684997 -0.1443306757309966
Ni 1.9468361508782221 6.427325165985158 0.2229995857227734 -0.3113173982986122 0.8236559830417298 0.4543486384918949
Ni 2.936772479426257 1.5554861871148253 0.39421994799772325 -0.5329534327799919 -0.10747159792111814 0.07722565455238312
Ni 0.5164206174072558 8.98988610485174 4.827249201733167 0.16660877040290661 0.8915539324352839 -0.6342042466023787
Ni 8.452239373761902 2.521910373528646 1.3326088246954066 0.954221229557518 -0.47309866540588846 0.18270310486160793
Ni 6.847166739797215 0.7866020196561145 4.835465323792003 0.14780552165347446 -0.4052475100898698 -0.17374820966116528
Ni 0.7256071591353543 7.178382838310149 2.4091860842392063 0.10072193790211041 1.2453428696345457 -0.16583126880693377
Ni 7.505253219370476 3.802557092500098 3.8964852484492054 0.565003262126685 0.09692518986383952 -0.4976357313153042
Ni 7.570285070333149 3.882554507940189 12.44897941848497 0.3486295044855093 -0.6075416497095278 0.5746682960202748
Ni 8.086284696362183 9.135512907404237 6.861728514694662 -0.29176698697051046 -0.8504818449853224 -0.2242235927028977
Ni 6.946674615883911 0.5918251527146218 0.5985573933349535 -0.2372220618450947 1.2830352419789968 -1.8236215087138978
Ni 2.02591915493766 6.40968879598999 9.192204602289113 0.9467256925114211 -0.00922666080459056 0.3974791789983606
Ni 0.05739515789751663 5.074059697665021 1.2323413534123075 -0.21473622203775275 -0.5619745026026902 0.3525887462435734
Ni 6.302331467754522 2.049929243863319 7.010588349960339 0.13545034252223123 -0.16065486681231686 0.7379865685973678
Ni 3.337547217914997 4.233960085451698 0.6131816379207818 -0.31321795775543476 1.5836704779734145 -1.2133233793051557
Ni 6.115601420962776 5.598488204836509 4.754674814916812 -0.5779222841811983 0.7667862664378794 1.2790312630259264
Ni 5.3678845189294755 2.8498581303740975 9.274916280421479 0.051783303219878556 -0.17194740900700062 -0.22733591307963427
P 0.2154996016858142 5.614992877578393 12.25061461857167 0.22257114470113928 0.407883147940504 2.689628445918013
P 4.090406552267216 6.1820184693634666 12.766469387352283 0.0655171078662033 -0.38011291980577117 -0.15219130942599593
P 2.4473903727944455 8.36065337844819 1.424994250948838 -0.5245109584395934 0.43396596107048485 -1.1169170380592635
P 6.3809889536467255 7.871814486497955 5.901109482511284 -0.6100232784808011 -0.31174111609959215 0.362345311409705
P 4.98266382748986 1.0076360735893855 12.76528970613546 -0.9639826798196559 -0.013788569143660124 -0.10800124517234302
P 4.06684914224287 5.96877954611081 8.394836067644162 -1.1035197908167511 0.6925217513963492 -0.6354309199206283
P 4.588932772705555 1.1619633646251246 3.806617622244879 -0.2816712932974052 -1.0980466835173217 -0.38022810522739675
P 0.19126317330949874 5.5940881659157435 3.6953111232743523 -0.12769898071158653 -0.5960326206286639 -0.20190590304230388
Ni 1.3494086440809467 0.9846671461367472 2.57015689083062 -0.5010550414094983 1.0110004433300912 -0.47799147472181547
Ni 1.9929007558758665 6.578257365261047 4.881233876788189 -0.49177747276231437 -0.13331067047140913 -1.1356709216279988
Ni 5.980911340666008 5.671921776207558 9.270675584473976 1.2207029595986782 -0.7893834350121051 0.12857778377211404
Ni 8.658842024321304 2.6080461148705454 10.152345605552703 0.11855330965657646 -1.0163051433724561 1.3242202008577388
Ni 2.533426524778057 5.218772088836866 6.919104660078324 -1.0510248062418288 0.19560027253925022 1.5509948421172641
Ni 0.6281472023982004 8.989786515493451 8.98429914185173 0.41520693529542685 -0.06803627474363122 0.3892346796013813
Ni 1.4064371320683997 1.0597756294426544 11.457485874516419 -0.25344392302059576 0.4678443589854846 -0.475459195218265
Ni 3.9374916194035743 6.655430064356943 1.70039866236105 0.9599473334080177 0.7500221596056632 -0.26748703137722324
Ni 5.415968071826977 7.718021356565766 8.15679848881976 0.8555050092315266 0.8384372551159626 -0.6626223927337556
Ni 5.402722687174549 2.862732318327449 4.757497720545402 -0.4965993196309899 0.7195098499494189 0.8842118902479159
Ni 0.8736521723786671 7.435957133157432 6.883247964305295 -0.8074084108346158 0.029695470181903695 0.305992386541273
Ni 4.975375697178716 4.4423372373042485 7.202447248703966 1.0477651616539503 0.13249151700422343 -0.668657800294558
Ni 7.874947024495044 7.463335153108862 8.761406388349668 0.45516779195908064 -0.8243653504039287 0.7052852217096047
Ni 4.688060398515148 0.22857749514475623 10.34787482482818 -0.8428338415217614 -0.17188081743512335 0.06944755326886104
Ni 8.139773235341366 7.168188509452574 4.807691662480826 -0.12962319431749286 0.0009808758560305687 -0.30447800677927567
Ni 7.228711678558165 6.040864134355945 6.969166419774564 -0.37989720425053924 0.17094904964947333 -0.006107141339002385
Ni 2.372870372060246 5.144170605900429 2.705659982434146 -0.4296827603140987 0.11300049815914733 0.0751281485934061
Ni 2.543765710884053 5.138159030090988 11.508342538363365 -0.461816664734166 -0.520057293543614 -0.4730292456205337
Ni 0.8871999465371723 3.480765768712507 3.4948793914976535 -0.09162948868253896 -0.7099600014774546 0.8588883238814629
Ni 3.7181867988733206 2.8161426058042816 2.5729924714684467 -1.0190608517407225 -0.8688498059695487 0.8313304688678521
Ni 1.1238387475565164 3.4242171203604466 8.311925210795218 -0.2383561754495379 0.2237093720706405 -0.46888899819991503
Ni 3.4996605860533254 2.674137234462291 7.19934639822997 -0.23683948169469535 -0.07048936426981409 -0.7292820988448344
Ni 4.173110987537161 6.847284436311556 5.916374720421373 0.9829381378762363 0.5886484123494508 0.4649912058074056
Ni 0.7088969701722742 7.377018340206438 11.124877335703044 0.7007598230354254 -0.025054628975782655 0.12445836228710179
P 0.25043464321576886 5.814425094340993 8.18763316486162 -0.9428991196764794 -0.8995346366479154 -1.1495728764210718
P 8.575549106479652 1.6613044070858285 8.159156945895603 0.05412249287601647 1.000007177543381 -0.19861489099585794
P 1.8673185750735233 3.2054736216678203 10.56218116493013 -1.121524712034604 -0.9790442021384688 0.7748559308198913
P 3.987901941853826 6.1704570502239235 3.8312913384398626 0.2731432012217361 0.07773550430926612 0.5336679423485132
P 6.895748239486162 3.9936509639005053 10.350763821576361 -0.17260226898218017 0.23657774339287643 0.5499247705270077
P 6.312987529091438 7.836378782103148 10.335472328289997 -0.11266959718228982 -1.313631369598299 -0.5178165771385533
P 2.4300075029840142 8.579378769984762 5.799158045715299 0.21022959241665085 0.2464250685006014 -0.7110401219155109
P 6.7897489479546325 3.8429179433411944 1.5775244067463632 0.9895831539965796 1.6308918728542237 -0.009474258039022394
Ni 5.133921955574696 2.989962250330572 0.6589420426967434 1.0278712509435006 -1.5656581005563939 -1.3918646394795902
Ni 1.5502260582815643 1.2504892505659586 6.96084437085282 -0.7754136030955743 -0.12106527744515279 0.011307197482703106
Ni 6.8464967750232715 0.5320760645302758 9.119908160318163 -0.23001448835306193 1.5975593201403648 -0.4905060622490585
Ni 2.6974230371458483 1.4476761799780435 9.24229261736163 -0.5113697930719451 -0.2309092322531894 0.2901713603486164
Ni 6.265727851794327 1.8781104400808328 2.637179623601268 0.7285819874540161 0.2140512801555862 -0.29402801509054527
Ni 4.322440703502401 6.64801518395343 10.657573284446087 -0.31189178274484347 1.068810412360024 -0.32297400870093407
Ni 8.205230604471273 7.326979214455262 0.2688324191229451 0.29199555804154875 -0.32971081320413537 -0.08188912146632349
Ni 7.681788937304647 3.9316611151546588 8.26007536943879 0.2583935537163872 -0.23775813685422278 -0.39808390246189507
Ni 3.249093760598373 8.465973651627749 12.291771278921273 -0.20046428549977088 -0.11431098944045476 0.5983489274666663
Ni 0.12183762093067912 5.049053715156473 10.240821696814393 0.26452692030763475 -1.1703502181777392 -1.006868937660221
Ni 8.526297642016763 2.3691765122255295 5.753998798520282 0.6816459850241099 0.5702074320354438 0.42687640121355513
Ni 3.8155851912798955 2.363581401005297 11.366253874103533 -0.413695640857223 0.15950018438258337 0.08088613412310587
Ni 1.0049109466034791 3.6000919270987 12.8153514658317 0.30373418663471563 -0.9526055483309659 -1.6293091017481358
Ni 3.163555555406207 8.210970572939926 7.7929170807880555 -0.8659493444933021 0.6323980466315754 1.0721407622848373
Ni 5.535882712784876 8.010786909201148 3.722263625058548 0.05853681989362822 -0.39443704973792715 -0.09580675998868016
Ni 3.028910742999571 8.55268882196333 3.494520869807814 0.5718369972190669 -1.1485572906723638 0.6902782067778113
Ni 3.316497649003927 4.014483246938944 9.31515852939043 0.8395150615611734 1.0844859141137515 -0.5268532334195248
Ni 7.333841826599173 6.1398469029171165 11.417349552410373 -0.8578462557701936 0.171230328335318 -0.31977889880240407
Ni 0.6584848370064169 0.20414188805186287 0.3835421580735446 -0.13349244746491204 -0.47786831888038994 -0.15676350217771068
Ni 4.6427472404936845 0.143546290322061 1.6143217692763212 -0.18626691095346629 -0.10242837907025584 -0.1666329387726227
Ni 6.0940267445261815 5.65496442456436 0.3531891323826834 -0.14784948751753246 0.14805157622600956 0.6565026529892629
Ni 7.984024532555503 8.785374830816405 11.229148299189358 0.25313513353092537 1.1118337099990854 0.8492063207070084
Ni 0.15649743368863528 5.088219493698102 5.888958675442232 0.04197968686589545 -0.9953604227999892 0.21697899532534243
Ni 7.955351850946316 8.959692422134141 2.57696789757978 1.3181308001305494 -0.7008914635172833 1.1270872937240461
P 8.47069961935746 1.7596534251851619 3.5482665304029424 -0.11602771502124534 -0.586413352371345 0.5968270915055012
P 1.758874817474903 3.132682854336638 1.5105016739757149 -0.45258563305420113 -0.49171448073486285 0.9568183008607328
P 4.568924365267507 1.0288123925928228 8.243352505466474 1.2123291337126865 -0.3785520030765545 -0.7481802213009179
P 8.389226470699088 1.6107854416992613 12.423060835311375 0.5330020266297402 0.3913596963641841 -0.33774242525936027
P 6.478025202932249 7.8011965778930765 1.5607752873977703 -1.0439820404624343 -1.5751053620122228 0.1568275226464267
P 1.6042125440521917 3.324066440233886 5.904674781538028 1.0606255625563863 -0.4696253621453073 0.07251719333312028
P 6.908160694960173 3.972438430584963 6.115455658356551 -0.004626185918101711 0.6176602262007685 -0.37859905426440604
P 2.436227311088059 8.354433570344145 10.183976091103071 0.4266930815581555 0.9562097207424564 0.31924385223454055
