# total energy = -381173.2204624713 ev
CRYSTAL
PRIMVEC
9.17673473936226 0.00000000000000 0.00000000000000
0.00000000000000 9.17673473936226 0.00000000000000
0.00000000000000 0.00000000000000 13.43107888962093
PRIMCOORD
 96 1
Ni 2.572559865026165 1.4763897527061178 10.564161314126045 0.08820349372012551 -0.46163411640971463 -0.02969855550569724
Ni 1.2249931111794023 7.3584196162820215 6.09151819400482 0.9077791360448947 0.20428160236333207 -0.13697192137308023
Ni 9.13086917730845 8.911994882836696 4.9302804457386085 -1.9078613898005854 -0.639153620187854 -1.4780541880934803
Ni 5.181395361516287 5.744571557555511 8.744894806719737 0.5478789437415726 0.14875143050651154 -0.23855183640011177
Ni 4.611914748878091 1.4749031217177138 8.51824506510925 -0.2931348138523145 1.0528040096294384 -1.202127767699652
Ni 3.8898617485040607 0.6739733353274552 12.534312607794316 -1.4670791771392153 -0.11343347193150786 1.3457884139468177
Ni 5.0220688971911605 0.5446676402335936 10.565880116497206 0.000986275172669269 0.5670670866342491 -0.04108597140703247
Ni 6.140189758426408 7.452930804859632 10.343125898680409 0.5183858193784621 0.01327152029792553 -1.6630021231252066
Ni 3.1682951150583354 3.443349378116567 9.376423909654807 1.336167345917286 0.88050513082029 -0.1376864309416016
Ni 6.1069516260807335 1.2344543244451094 12.831649817556514 -0.18728635335691615 1.8521982919103261 2.6598851532173096
Ni 7.291594635679812 8.191419336716573 0.9526569968789813 -0.698523477505739 -0.725476351945499 -0.047483390292944024
Ni 3.6960124090037745 8.481670272100713 6.206071370722396 0.5046057348752342 -0.01725261643286061 1.048861994262555
Ni 6.731235697130959 3.5728606320631457 12.383602179487784 -1.8351991862491683 1.3684398327977465 0.7138107426821126
Ni 2.875309512794293 7.897965720993219 0.4024768922334477 -0.4958976655782751 -2.103828558760951 -0.913182566448653
Ni 6.50920460599247 5.017590650756956 4.9356121284809715 -0.9838470228437507 0.002779619627666181 0.8872977282620913
Ni 3.486461676780283 3.562454215144318 4.646481672378833 0.15076588983337905 -0.7565789868875744 -0.8748001100157129
Ni 8.205753395999826 8.146315686667155 12.19001988296134 0.3525586643365864 -0.2529672404944934 -0.5560617366626811
Ni 0.8888273024163706 5.241365321449746 2.4269553717933876 -0.4110538323590018 0.07922288748807002 0.013498548707067074
Ni 0.8905167392371433 8.892072192245182 2.2343540681846012 -0.020665498769151507 0.05782488142826816 2.5758998113435894
Ni 5.254717470141893 5.411960815736355 10.97151197005049 0.5957698538855803 -1.1932083537228353 -0.7145051976459759
Ni 6.123763403677993 6.312703190222748 2.848422598393522 0.8513855877465143 0.42501389408351964 -0.47775236212781585
Ni 7.848649949809989 0.763754834945662 2.4405213383992987 -0.7454533092880581 0.1168736079613084 0.18981169088193117
Ni 1.492118675632812 3.7633879936757637 6.0575505112666885 0.8774264918949662 -0.015892245750224243 0.571845738969815
Ni 6.852698954924264 8.94324166379667 8.543777493498363 -0.6824970201704956 -0.23197161207943276 1.0372339231053234
P 5.057582859691924 0.96094175278226 6.39107158514788 1.0889781455571503 -1.340524337334401 1.45040865846207
Ni 4.048701845900882 5.29937146020099 12.699782895864729 -2.3243250803212483 2.2369985898894376 2.656611110451728
P 4.5678021861542755 5.305327160889103 3.886403037272397 -0.7810214362006549 -0.35347294862073964 0.054347207292312856
Ni 2.9102086340838023 5.841431990164179 5.283853602167712 0.3748010206745545 0.20557409592251047 -0.9349158443606866
P 1.5130599837534167 7.04956744007384 3.849199637950862 0.37445957817473574 0.30758929871474766 -0.7647890335021925
P 2.05473509086776 4.846105013224205 7.9668049948173705 -0.14792456372984203 0.09370539737496118 0.26027817233360984
P 2.1997274959096327 0.5394093713672017 0.9418614864175092 0.5208723332457417 3.2832180043228227 -0.8082818145785048
Ni 7.330586580554679 1.5560896918066662 6.929845926487936 1.0682493976502312 -1.2221800583648372 0.4049477194612639
Ni 8.036286640056266 5.704092981692238 1.3401638821285806 -1.0542677386591583 -0.3317656388506351 -0.596280732083728
Ni 8.338485683754614 8.009600696140964 7.092589806739492 0.4863203063024851 1.0483639715802138 0.7664520230269123
Ni 2.0637466441431473 4.09186002823708 11.30817607549667 0.4194045183165422 -0.09237870814373768 1.7157197652338971
Ni 1.5700383282410741 6.807494360795387 11.217462219653637 -2.388768238396983 -1.0249347940229963 2.592995333373296
Ni 6.849991818247849 6.207436868815449 12.645991631267643 0.2047557137862732 -0.6894747370399094 0.10707821913744138
Ni 5.7346606842994845 4.841957129231868 0.8878600746004583 -0.9610320818317643 1.4103909804185517 0.09005263111372232
Ni 5.053086259788726 7.447268759675402 4.764728484731179 -0.9941126664358169 -1.792941563131538 -2.3126617850507074
Ni 0.4563057814419678 5.366792928545461 4.833213536603772 -0.2574147347428857 0.16063224110449753 -2.7127575757363087
Ni 8.629746059933348 3.620084107781214 8.357972479457553 0.7525436404759361 -0.4144805986523636 -0.3174327671677307
Ni 2.6433491949307855 1.7102037709378821 3.0162843434736764 -0.46687273910083466 0.7874669347156825 0.07575755464728888
Ni 4.082775061085722 3.172764184758044 12.418926183584475 0.05048309635121629 -2.6520011224835427 -2.1830146794738146
Ni 3.0082528654424965 6.168013617419253 9.705767733993275 1.3933113992284456 -1.30575145262959 -0.35483614751685344
Ni 5.824179729311096 2.835895438132594 6.009440562996276 -1.2938858115402554 1.8422288394024402 -2.22724639559868
Ni 8.94905053673284 0.6967784382242627 0.2823424255952094 -0.4017045299336178 0.9490540835342816 -0.35790064537479005
Ni 0.6397340212482316 5.009019580737392 9.885085714418636 -0.4537459719108895 -0.7829402504899227 -0.8449133497586094
Ni 2.6099550580986732 3.8965148810138936 1.5685085666005374 -1.0823776095214974 0.1434359318308691 -0.534313546352312
Ni 5.04369846039899 1.3814656110761727 1.8865695958757773 0.827497211164691 0.005212654549191022 -0.443281582044456
Ni 0.639309138441052 1.4518052809904738 6.147310904395553 -0.5555729699517206 0.3791459279068115 -0.9236847515315575
Ni 7.872160743589564 1.8178652200487209 4.479332041895593 0.0675811894840836 0.9160303203100933 0.1994420148828436
Ni 7.9074177575244295 4.230557193414477 3.32006820921954 1.6846592963836662 -0.1416747261653883 0.19612092092941064
Ni 1.5735346640841725 2.3921544415629894 7.994836248009833 0.3879941223260608 0.5372638872298876 2.08495948977059
Ni 6.264525334117062 3.722285399866742 8.089310729649458 -1.0438223749561184 -0.8542978762973029 0.017976639083078717
Ni 0.4967146141230679 2.5842326713054855 1.8979184634273776 -0.18263137108340805 -0.14641738305669624 1.177218148942166
Ni 7.8691232444712815 6.297928647683671 9.160478828834279 -0.37074202011383245 0.3412072438795092 -1.0197416798578307
P 8.385158555402905 2.4232819249745106 12.388585146319286 1.519718657711802 -1.7316724319084111 -0.11241994306532897
Ni 3.5016583491061906 6.627501890384546 7.4752009041353045 -2.0371613964507045 -1.4133176671470435 -1.218680786962327
P 2.40115681810388 8.425325122293302 10.130189869101224 0.5164094123783816 1.1099346932041594 -0.9501596578936347
Ni 3.6530194078885105 8.81217954172021 2.568640481722786 0.02667930906339921 -1.1954997208601732 0.4031286639746541
P 6.0155880574353615 8.63914303605758 2.660347260238321 -0.6474284586021366 -0.35591986749933546 1.000137275363342
P 8.59013009711273 6.1034369367686425 11.279863096555172 -0.8498282705617236 0.43536335563864376 -0.15864374991955904
P 1.8280697488086297 5.646215317223942 0.12926898815587626 0.3626777550484592 0.1626263887163909 0.2681750585831833
Ni 3.885493622883812 4.172615291804705 6.882689440931691 0.16260890521489416 -0.19517089831131548 0.9698003149426976
Ni 2.0829351959749545 9.108220996571529 7.901624485036902 -0.8498069304054849 -0.2675492520737263 0.9202101627193958
Ni 7.310462001804248 4.051748521753661 10.212897941769665 0.45308776950160035 1.6342962705500823 0.7923551160459192
Ni 2.1929458891168516 -0.13576244548547306 4.754964439227092 0.01516385222463195 0.6582448324913502 -2.2905533831874423
Ni 1.1037776252174973 6.841787817608139 8.352773859365387 0.33292906303111697 0.4955084005596563 1.0661961146656282
Ni 5.75749239972633 3.2287147349821135 3.380655763384601 -0.704907783765528 0.4436690472908617 -0.06595213852109287
Ni 5.706680820820201 7.36782576914075 6.965021267485785 1.403124014443493 0.3173522916387825 0.48207670053478263
Ni 7.274975569506974 0.8192805023625518 11.11032292673564 2.6833613819623787 -1.3669429365372456 -0.25942250920153387
Ni 8.24056992667887 3.708144052007911 6.103700309048686 -0.9563243919434498 -1.3142445777022655 -1.6233716532177784
Ni 5.013947487161916 1.0698237075811095 4.300148041793878 -1.245131782065004 0.3867381384317727 -1.3577106193057005
Ni 1.5375251579206086 -0.14153094078986048 12.245933726247426 -0.32174065051446527 0.09565043691647397 -0.9680000285091652
Ni 4.9644665347577535 7.334789524953995 0.9821299150608158 1.416933923743392 -0.03497651607518493 -0.4491472967966136
Ni 6.635705891024256 8.885272231983409 5.205416381733857 1.5633734182872754 1.9274524245586355 0.6320416917334211
Ni 5.842891090949095 8.28771081178647 12.267812896633554 -0.4947663801873092 -0.05566772587594929 2.44228369381662
Ni 4.34666123826193 8.229034771416993 8.767553081864602 -0.09969709618202185 0.5571945647155436 1.3584570105534217
Ni 7.021982176177899 1.95268980326867 9.31206196459141 0.13102573109197435 -0.2629276941413149 -0.6793492185701333
Ni 3.0079408564696215 1.5278528797614863 6.322384645116366 0.5833833072957695 1.832203079735322 -0.5140175151074373
Ni 7.138572587953658 3.270221105108974 1.3934880509398029 1.3118974176263276 -2.1561237686202417 -0.3626741555040335
Ni 0.28964435323393206 7.456794210082583 0.5557669006068939 1.5297266767671072 -1.5482712725385142 -0.2339963558189454
Ni 0.17829569220247157 4.072845834360703 0.013609097258044135 -0.24326955359075525 1.01837231031413 0.14392804097593923
Ni 8.958245624698154 5.6787468410134 6.865591349218145 -1.020351545527688 0.060419895848954 2.68517169569824
Ni 3.0531913342709807 6.269673482169498 2.0945098111951643 0.4438770495366097 -0.22924495717688909 1.101895882060083
Ni 0.08698259559682882 8.437869718349772 10.12924925381535 -0.09711442305651016 0.8216009002849141 -1.5651788469271304
Ni 7.7264341997879855 6.953294318472936 5.190896952413778 -0.09776516926663163 -1.1352752288514771 0.1327216307371585
Ni 1.6237497552480413 2.235057923720469 12.919247254364594 0.38316996146454013 -0.46919933035148226 0.08451730311778993
P 4.404107596208901 3.1660376383722406 0.9984305485466308 1.8279972691840904 -0.44735472367256507 0.7097232028763003
Ni 8.597049354922957 7.208407537470661 3.1035862894309774 -0.030578901228121527 -0.037282538500542244 -0.6152531594211726
P 6.625602306343807 5.464249848896391 7.112951145239929 1.4354121850532378 0.7891013849953119 -0.9608809009658807
Ni 0.21558535282827218 2.321245814109916 10.405298274892983 0.10824138620760712 0.03147570201077805 -0.04490894469754846
P 5.280476563873066 3.1245863286523585 10.223616367661368 -0.2523031245479332 -0.15694759316405874 0.07394261292573717
P 0.8529747184126938 2.699464926375789 4.262929959697148 -0.38992862034461234 -0.07940106493714713 -1.282044338820637
P 9.0823517820264 0.9618043658249142 8.115635110225604 -0.6057429059378923 -0.903609063827605 1.7714880212434525
Ni 3.772996034693412 7.440606450431073 11.651796145691064 0.7879449027933655 0.8194763977427436 -0.373168370167138
