# total energy = -340870.9892042343 ev
CRYSTAL
PRIMVEC
9.29041872371324 0.00000000000000 0.00000000000000

0.00000000000000 9.29041872371324 0.00000000000000

0.00000000000000 0.00000000000000 13.59746689207175

PRIMCOORD
 96 1
Ni 2.2675217811477397 5.385172615340311 12.640613353667469 0.872775109165884 -0.6092977131686861 -0.5993064062839292
Ni 3.8636064224177002 0.0841154508586093 12.42668381143463 0.25418285806914936 0.18402079523176695 -0.5543450110818905
Ni 0.9789128369858566 3.0226191413681054 8.201720050607255 -0.3297102989835031 0.8928623668340623 2.133620445311403
Ni 4.114828634331512 6.569524480914242 5.80838927758442 -0.8324393856613147 0.9943921453494488 -0.0420611908361082
Ni -0.1555940742091691 3.2349702414647727 5.893957749926826 0.421201462315965 -0.4638432082458914 -0.04086382809389737
Ni 2.6216167992640456 2.38188683527514 4.584209387067828 0.6726486666215061 0.5420289127186988 -1.7143941044439377
Ni 8.920186218957685 9.223304709698112 11.634631952773766 -0.5705984968262754 -1.1853680317428101 -0.9567571086054941
Ni 4.695823548219832 4.6296943479534765 11.425176676184126 0.17198957509884574 0.2660631544465031 0.6934666318081217
Ni 4.8689040484955 6.737430217977158 10.499311200901115 -0.7533100863283155 1.8422324389468658 1.56861769740535
Ni 5.951033437175541 1.8206712227870823 8.12213367886214 -0.19301965629626758 -0.16555050434172133 -0.4085866017654318
Ni 3.6773242371773667 2.7062432231508438 8.341827925894819 -0.21502392848150065 -0.05993601423400002 -0.6549839023518913
Ni 8.3698589771794 1.537657198101218 7.942266527730253 -0.39287510456744595 0.2963934299989283 -0.8864927158622927
Ni 9.048096703541441 3.099079287222573 1.3568572889324184 -0.567190756696307 -0.8054988525167289 -0.49689551071517
Ni 0.14347751014800295 5.230923793758083 11.348554877044377 -0.4676533260206011 0.9922540159605234 1.3736671426349567
Ni 4.687945273167027 2.0521141333006314 2.7382710125577323 0.8538317352941617 -0.6068914177200387 -0.3489133542745152
Ni 7.7988141017127255 9.07637673804703 1.384425677366021 1.7710175093649372 1.048884105749742 0.6618500333441053
Ni 7.619806314310065 6.863417585891185 7.045853537792059 1.103547301620577 -0.8356200973821415 -1.4254707575698093
Ni 7.700112693503992 2.89169856112738 3.754668830891537 1.1354161253047155 1.698602903047952 -0.9305647664808426
Ni 0.188847269841842 6.4404526939936915 1.880678966175733 0.49204846703551386 1.2159870421802477 0.4607442576055936
Ni 5.579082234328702 2.856980266466609 4.763532119664226 -1.2213922723562192 -0.7732546477710424 -0.7033700069647629
Ni 1.3434781569706906 9.190425917938823 2.3098154832118807 -0.7435257532480422 -0.8219132893190102 -1.7336940903241305
Ni 7.0669799499030015 3.7485538773069185 12.108326246909867 -0.2858704189804173 -0.2974640373552877 0.6527856091489919
Ni 2.0112084197894258 2.7500103856199085 0.17682453900948875 0.23933216620956202 1.1061736834998304 -0.9664676510250387
Ni 3.6215817250112905 2.6554803754049368 11.873417081181458 0.029021841153646796 -0.7502142210118112 0.6462660628629192
P 2.9260916911338493 8.32114002154625 6.810508651426884 -1.7685507929919992 -1.3497674531992239 -2.230152513501882
P 8.180241531627798 4.824858173465605 2.3172803346327875 -0.6508215434440856 0.11048878748088714 0.9790966526429588
P 0.15934090006859886 1.3437197078567438 9.92198971856454 1.1378651010658405 0.5458829963574663 -0.06020392318340599
P 3.3695605370897646 8.125279414632045 1.8313477719506248 0.5518150455711851 -2.5890839141340316 0.792174624603997
P 6.9985931778939205 2.611415919537653 6.2710567737722025 0.833723394580061 -1.1702286049982102 0.6463298262213192
P 2.0052160997315727 2.5691538048970735 6.563211641411433 1.4279359312808506 0.42127448164574544 -1.3639072350347154
P 4.150698940910382 4.386108860206417 -0.0326363118313683 -0.2536778934082728 -0.560484548320725 0.8235346269725171
P 3.0022359627527098 3.8234625232394306 9.886622952678904 -0.05568855181155571 1.8348708563754723 0.7641827673767613
Ni 1.2528965747008167 4.138008228973906 2.9594749526282427 -0.4437397526277971 0.6521757434791349 0.8374370959862223
Ni 4.763281278359479 1.2275801837587235 10.25458392069652 0.6143573870797807 0.09943792898336423 0.09313255559062669
Ni 6.052930749415128 8.547398878428353 13.514522162402349 0.23084624022573794 -1.8546804349022317 -0.2640368680450937
Ni 0.47791121518146445 1.3574788179430701 4.010545542571216 -1.4967931592638801 0.7547141657646937 0.06686539436398162
Ni 8.467770699799114 3.3019262889949252 10.050662946523103 -0.18685183692265886 -0.8496266960738786 0.4593946855562346
Ni 6.04339877983473 4.866163374980667 3.413657509422478 2.449023326533298 -0.16132643895804474 -0.10307218330184185
Ni 3.5251843406387553 3.895472558539307 2.2354642624010292 -0.5465573967166717 -0.2778976851875859 -0.6809116779612467
Ni 7.815527564943854 1.58216759406583 13.369900072671202 -0.616683464109796 0.11619792205052246 -0.573986953682534
Ni 4.372033875884483 6.788964170474696 13.178270322430404 -0.414955224295937 -0.09646933327334355 -0.1563097024697437
Ni 7.055394797791152 5.3285103517234935 10.3289890259358 0.07019317318563395 1.1076338129851246 -0.08800963254176455
Ni 7.305176994807341 4.023986920338196 8.043663086402216 -0.299294148585491 0.2768828707698264 0.2271209688553508
Ni 3.801843718937687 0.15870822255551392 8.212679957540976 1.0707256271048657 0.5623036038073349 2.5998043858753292
Ni 2.605386437805023 6.954593754957498 3.7080699488044355 -2.1070267539832748 -1.0769970619358742 -1.135111706690419
Ni 2.3950513585650284 4.846058908926103 5.3117281393940265 -2.007820224284426 -1.2484914425658564 -3.1882669074662187
Ni 3.904409941323268 7.056463195941003 8.277743546783089 0.12471058750722391 0.09312767049462027 0.5339029411774546
Ni 2.409367893773015 5.470960341563902 7.327688608345611 -0.8876355712174842 -0.21663806704615593 3.1264383041951964
Ni 5.472056610969835 8.838616342821325 6.080909774355021 0.039416811234725666 -0.8598483738018868 -0.016021829349553054
Ni 1.206305124948671 6.947616650518044 5.72442433150866 -0.20078155962987357 0.7166276433056173 -0.9464073899400538
Ni 4.860189635760203 1.9620156528028634 0.26722402907295373 1.6409094049912254 0.9710218460546245 -0.5982095736753246
Ni 8.752614936967763 8.764218669917003 9.091443010043651 -1.4989950520112054 0.34939749299978534 0.3879910370022673
Ni 7.157849535152401 7.812396693843859 4.135669830588538 0.827909101891129 -0.5482962337846493 -0.2875879158921563
Ni 6.89835885060062 0.848054502550384 4.371734724402525 -0.7088837376941404 -0.4930972200150024 -0.310207195953569
Ni 6.371471335188172 7.27514107116852 8.911262771801765 -0.18696367991017476 0.5444560341029526 -1.3413630311856124
Ni 8.52306727186786 9.211617362980626 5.844530864389166 0.8169099225671479 -0.2958447565843098 0.33548782489722867
P 5.538752526776546 5.858649513678963 7.220540351459979 1.6056845203506602 -0.2008854321975895 -0.3315365535589645
P 9.591428260042882 8.274223407139802 3.9814609578066964 -1.1581300219624635 -0.6908150531178876 0.6098576994372142
P 4.472388978620809 0.783219457608151 4.469718912288054 0.47448269023760864 -0.38616143999269625 -0.5469176082695677
P 1.7243388713454078 2.185301575702777 2.157741548645999 0.17342167955968196 -0.8342640975748792 1.4104873967871
P 5.91900936393613 0.7492174542287138 12.15903149405987 0.5799722247316915 1.497948355914246 -1.5706532397781403
P 6.915258122205636 1.8846264650789606 1.9235653969525732 -0.4855199218883767 -0.6011719987377582 -0.12472138614050135
P 0.5932656988998125 6.691163932879315 -0.42464645768117015 0.006587937630162847 -0.4586629495965327 0.989753875246489
P 4.110898787223803 5.041761578722503 4.034844632666278 -1.0127143406974044 0.271135683873404 0.3306631498150757
Ni 3.967519755513961 1.4913816225846803 6.449210771696852 -0.06711710536347151 0.3323076273970341 -1.7034679444497371
Ni 1.3801102778824972 0.6405121231699094 7.283374240215449 -0.07207573492032747 -0.5047705425878726 0.23727836900432683
Ni 0.07976010257469987 5.204687651365249 9.079558706449843 0.41122943870491757 0.9593014722939027 -2.304313155975696
Ni 4.863320506860197 4.912188109192458 8.996315625906634 -0.2493525265600415 -1.1530757473680078 -0.1769633741643533
Ni 2.329869781005496 1.2395276621996527 9.909045378197709 0.5162749436830464 0.20342722478283676 -1.8425144889636589
Ni 4.4380608815452005 4.133567408838008 6.178389492505447 -0.21745310674828353 0.42124877061413263 1.7869483216625806
Ni 3.2079908655763925 0.7034705035358844 1.0700063213257893 -0.828244887963993 1.0037517321874778 -0.1711879051331568
Ni 2.499605730551199 6.174477297193258 10.332048360811847 -0.3533749895902946 -1.571102925721049 -1.7774447530475195
Ni 2.4042488730724307 5.767612700893066 1.3247579633015834 0.06210911062591885 1.2803255563573177 0.10763949095755011
Ni 8.262257347861484 5.179900814288733 0.10561812492667329 0.07669060798451954 0.7032867032223371 -0.8399845449984245
Ni 7.019310811582312 7.018734805623263 1.7665015785059586 -0.7751541787866005 -1.4672897504881246 0.5759471627326983
Ni 0.8651330792362003 7.558693940138657 7.908721612950577 1.0523062440574136 -1.564890369152434 0.09721238208695517
Ni 6.8875355128217075 4.644874892100038 5.714661959544641 0.15013391267633497 1.552476054648481 0.12851144931055286
Ni 8.891144370119157 5.342929081537118 4.489367218784726 0.12245855824825362 0.255925808902185 -0.43013964534585925
Ni 6.251244026864639 4.036928473579421 0.8572417975972227 -0.13757973016040823 -0.5067009268413661 0.8291956819130365
Ni 4.7983340280932465 5.886985290696718 1.8329661628871798 -0.7426811458595597 0.5546247471058383 -1.755051215843668
Ni 2.2956252976981366 9.229640775247656 4.418116210692178 1.5086788549578725 -0.13682356872067403 2.2045607810757066
Ni 4.753712147104302 7.303467557767581 3.618245535658151 2.313263423190448 1.528010465406949 -0.04183570508886344
Ni 1.5570648827537068 1.0808380204815273 11.930770551949134 0.5071210450979202 -0.7280680239320751 3.0582595903364296
Ni 7.317932739674678 1.107622297577327 10.253903862048094 -1.7549373159736228 0.4713690843092914 0.7880171507921977
Ni 1.486244021046707 3.2687594942561096 11.25013589756395 0.8687266501281232 0.5527339578410287 -1.5907227568345055
Ni 5.496295313343384 9.202447719729307 2.0506072273884084 -0.24460267057988194 -0.561932079400529 1.028295997185745
Ni 7.095622310737671 7.92952100232348 10.988819645738733 0.20136571426811772 0.7033026440619371 0.322084149896813
Ni 2.1895937491395645 7.811170358576205 11.836812831525734 -1.7953216333279403 0.3957717093889507 1.39973452914597
P 0.15258397855220096 7.102664448107984 10.156764173221882 0.5665983745279467 -0.15342852426720674 0.4934823712685631
P 6.033690292299137 3.2940665947795083 10.217775281829523 0.6872563892323519 -0.9592485075687802 -1.4490500875516463
P 0.296089359956287 0.09135919031459094 13.606033715583527 0.5742741459056497 -0.1154687571939818 1.3460756061699333
P 3.3251058836373186 8.526541888459546 10.214172457459854 1.3146934923142264 -0.051588156489936955 -0.4376567796585108
P 7.118857647892231 8.955266839947535 7.596687107389185 -0.5024154120921347 0.6899395924914699 0.015245099084528585
P 9.148043027855216 3.185888959502543 12.377760466590205 -1.9937858576785468 0.2622936601017418 2.893990009589661
P 6.373821811117842 6.453895929844411 12.249604714952918 -0.32141489174393034 -0.8974533286388544 0.9872079688961837
P 0.061575037022386876 5.254874493152107 6.753875188108021 -0.010478788044136792 0.6918620063251633 0.3967343304125361
