# total energy = -340888.06416923937 ev
CRYSTAL
PRIMVEC
9.10830878431097 0.00000000000000 0.00000000000000

0.00000000000000 9.10830878431097 0.00000000000000

0.00000000000000 0.00000000000000 13.33093058780632

PRIMCOORD
 96 1
Ni 6.584259740539952 2.269936263027182 11.299403451066551 -0.09138909053695873 0.44799132881529946 0.8195861838477304
Ni 4.9075476236789894 0.7487822181012564 5.860477097350142 -0.6886776950599107 -0.8840414261083227 -0.37080295525875495
Ni 2.841746775420382 1.7946920395585075 4.887266152678401 1.2055987569673883 -0.19318215001606084 -1.5475536776461993
Ni 3.7752573349256133 4.7852048211102085 4.855351549795676 -1.2371130255255856 -0.8032385957276424 0.03137748587001693
Ni 3.9810777868052094 2.9553820348641056 2.528531166393062 -0.6525781211238761 0.20304438752212128 1.1867798244886723
Ni 5.748964073835432 4.519797813661453 2.74649117211897 -1.560071864717868 1.2068902220853022 -0.68459735434295
Ni 5.737023081118958 2.8690261600014932 0.6880279773557028 -1.0332145175332852 1.0660598461980801 -1.760908188845077
Ni 6.082564988582613 7.841880357118404 12.635989460821767 -1.2939449469129651 0.49374153846722063 -2.6379127627112764
Ni 2.2567929735612244 6.819308755064219 13.414915626592869 0.24659450419893017 0.22704383576051218 -0.18357008084759352
Ni 0.4664893171383361 8.966046034504048 0.25111333859294954 0.6077493948449598 1.3756862299475145 -0.8603947332236601
Ni 8.112415342369886 9.216060000235917 6.7090572323055975 1.0403907235667502 -0.3865324501788698 -0.17137662410519516
Ni 8.93649868105459 2.7253425901293595 1.2762644136733015 0.9335107364830438 -0.7751721765087295 0.28541173417644394
Ni 7.042334802093637 1.114793227724889 4.638816994382605 0.4138645623349195 -0.5336466021922746 -0.159035586041339
Ni 1.0500786943530023 7.731633388514137 2.3024647659168402 -1.0034578550961428 -1.381973605618123 0.8790388306874086
Ni 7.7802626487073105 4.066149390139962 3.993480570773189 0.813065094899761 1.142050857012414 0.6288663793292331
Ni 8.097304658222951 4.1435153643075635 12.711268721464315 0.889640774572971 -0.5591732857084692 -1.6567129476823856
Ni 8.281511093537947 8.013344268550602 8.865281726095906 -0.17544025265160754 -1.1776053570782556 -0.23978648013816126
Ni 7.338655409298084 0.9978061106765408 0.10581941974120243 -0.08589849973603271 0.020437184808429317 -0.11171366102692373
Ni 2.003071926185112 6.833754532675451 9.006256484958218 0.2926856421300379 -0.7728646114214753 1.405765051610766
Ni 0.7618298703257783 5.340347128567369 1.0183034485935138 -1.2001505893686235 -0.9533069452733646 0.09978065703476365
Ni 6.660031760683615 2.1248409053052746 6.90172892973401 -0.2973773911787524 0.05049826585986787 -0.20747157005553946
Ni 3.645136036720016 4.630208731822468 0.642533797019897 0.6135996829781498 0.24240566292856316 -0.09839843197525634
Ni 5.850512607623351 5.836923011030691 4.716150178638856 2.579253558307171 0.6042632360685722 0.8426137550911554
Ni 5.340520186432826 3.186314093852257 8.895169730291052 0.2698606738157224 -0.11706438381587582 0.8506996174230832
P 0.4308257343913097 5.893640449356762 12.127093679999708 1.2639370876969651 -1.3610810784398302 0.006440099198388908
P 4.4443810175574106 6.262016886751918 12.553071061665635 -1.9978042348093208 -0.16780973268954327 -0.9879841849405758
P 2.3867594305187825 8.833328868316608 1.1974857408250559 2.2853289015637093 0.43627918258469384 -1.13793220685835
P 6.456925584799069 8.137144400512696 5.634264053103717 0.07314454250447402 -0.19654592428197118 -1.0712074518372907
P 4.89389426892537 1.348621728882254 12.564108510158253 0.7266099513293098 -0.27382582911105746 -0.07337337068582847
P 3.9335688485831457 6.3624359902600185 7.954633021448301 2.7203101912725858 1.4854417388068029 1.3018158650206095
P 4.846467305481681 1.277048639053079 3.6436632232018966 0.38372377708548105 -0.20810226166100287 -0.5090969378773684
P 0.21884351167060506 5.7959811633872516 3.217993702370309 0.05383632909416535 0.034319856327792504 1.27054482282147
Ni 0.6807449737126119 0.0937144774679811 4.599424470050434 -0.7873502066321602 0.4354787981705855 0.7644864146601091
Ni 1.7073615756641163 6.849275090714255 4.5758548996061785 0.566027075405509 0.3272402401764558 0.6103104707039166
Ni 6.6233981430591635 5.8254556503670445 8.884065791144865 -0.6980272545956108 0.7397909687959582 0.7544017767305975
Ni 8.951682231671189 2.2899563255678452 10.404511209653291 0.4686501427162315 1.4525125921789501 -0.9751839478521142
Ni 2.4733339047903917 5.577445512550984 6.840767019549908 -2.3209996154924415 -1.3962280586546083 -1.305993650547383
Ni 1.0848177837661446 0.2560245386484205 8.935216231188473 -1.6773329379255824 -0.3936788314156639 0.4250190362898423
Ni 1.8134278305713112 1.0407608945444955 11.569541314058355 -0.009266770013906621 0.43057673288327786 -0.2602275216013325
Ni 4.607820509017669 7.125357035969041 1.2692965575115152 -0.07329058116403507 0.2672988266258171 0.9903053768745849
Ni 5.991964641861972 8.447236770483968 7.722714532627049 -0.8379384611026731 0.07214669736757898 1.2051079333738988
Ni 5.521037756720991 3.0886001580304976 4.763407727540573 -0.29325925524532076 0.05842343424421551 0.5180243222739852
Ni 1.259223678911097 7.833254788771721 6.9754761728518355 -1.6398421400689758 -0.3301556140510379 -0.4279230973105147
Ni 5.091407943263071 4.6973005337672 7.053794876110317 1.0323791661161832 1.78990637584964 -0.5042244402764156
Ni 0.5908286609759575 7.643164386031218 10.981047112604314 2.145657836091911 -0.6836648152263516 -0.3705959814542715
Ni 5.022585562663778 0.585169668775542 10.320712947875947 -0.352058070551084 -0.8242470796585095 0.32875976214477576
Ni 8.300137584846253 7.466317464152462 4.459422478558161 -0.6650094049086934 -0.6018520555239183 0.1086638184570064
Ni 7.534374746820266 6.636996847960533 6.758808636131624 0.5894791357808623 -1.1885459152501594 0.277152065270813
Ni 2.3875973949199385 5.361460188153018 2.799868593641738 0.8146679206105065 0.5248464874021412 -0.5205602013219616
Ni 2.589783631624955 5.352980352745667 11.193422814261211 -1.0780915805516336 0.4454040277040974 1.286140363266882
Ni 1.2440583449119147 3.438432078895723 3.7000126858561564 -0.44246679945264444 0.4010345004497868 -0.22045924056445904
Ni 1.6142017941964655 1.1148660941945547 2.7395998257503322 0.6927444089301166 1.213879766029258 -1.7537584651741733
Ni 1.3319899571810483 3.3602372486356744 8.14281250102182 0.1383888563252649 0.6234014995599199 0.018871125872890082
Ni 3.6904043309998573 2.9832716761286684 7.046463598431072 -1.3523341854851354 -0.8763160324396069 -0.46803873438447785
Ni 4.277289094305157 7.28415128998811 5.852865283762684 -0.5961521769256636 0.4430085308887274 0.06599430461293795
Ni 8.400092164610234 7.049038517302885 0.19230918674182523 -0.48333191309812235 -0.2241379749676269 0.28032712056468495
P 0.3944098053449845 5.935884785145475 7.953592852593823 -1.2698565385051936 -0.38954038376725814 -1.241808888339358
P 8.846699865500272 1.8442776721660445 7.809765371444098 -0.8830299541246727 -0.7398115376212484 1.1949880713310774
P 1.9200314756922912 3.2519394580949657 10.332711322937282 0.13471732101094863 0.5134657563690254 0.4720085176655032
P 4.274984692201977 6.363556312231129 3.4373800692399237 -0.5759834152872725 0.797075404339724 -0.7667662118332214
P 6.998970144333812 4.12053510143673 10.262376963092425 0.3956195000818025 0.14187090133659438 0.03571210868962882
P 6.557809212051288 8.045997555269562 10.12808132700585 -0.04742091248612479 0.18470882243772704 -0.0677169437309995
P 2.5000758991577188 8.847665346223343 5.604110086294291 1.7995809228249264 -0.7610275095772313 0.11953932771892961
P 7.454604179153694 4.2909515573674835 1.4486856083507336 -0.3046402433887528 0.653667497533313 0.1760344345921807
Ni 3.2418838852810934 1.8955119086497692 0.6223488740916158 -0.6455808638704366 -1.1941288086545758 -0.7776095823056285
Ni 1.592259878518369 1.2796171821087965 6.8293288054741295 0.403402229351015 0.07336951403108655 0.47639996186497946
Ni 6.982356589250024 1.3380743073981378 9.127847852058569 0.923683723090293 -0.8260383672309773 -0.36455208925303667
Ni 2.915014010669285 1.4946188091662753 9.377736123130264 0.6870352743604813 1.1830612379865044 -1.2977527506948294
Ni 6.884633545119556 2.493854924310006 2.5754161854686126 0.2954932867821621 -2.4459621711094712 0.562166049788206
Ni 4.422348018792232 7.2077507965435785 10.462340772472636 0.401276955477896 -0.7039418203078328 -0.6562234311859472
Ni 7.490900789355942 6.402257515932346 11.337196556389559 -0.5086593361193176 -0.6788576236456954 -0.7074922566632526
Ni 7.999290148213822 3.8730987870692886 8.06529259643705 0.17141159110818868 0.4764290153307021 0.5601521046819707
Ni 3.4884002604690054 8.601276487357346 12.371023295514487 0.9590479615222 0.45792889964398553 0.5641008049170736
Ni -0.09054205354490888 5.062015431061653 9.95968509394658 1.0179920441565757 -0.1102329627163392 0.45160270031564165
Ni 9.071274325010087 2.708719926736862 5.689427613964167 -1.0105741544259499 -0.47876126300830457 0.38162164314081376
Ni 3.945391433286412 2.687269859729009 11.135832799960893 -0.5039683584015514 0.14878922572298245 0.9707876185566313
Ni 1.8388582284846553 3.4661850955296623 12.7819892735984 -1.289961793895501 -0.05364838145307535 -1.0556795314050207
Ni 3.3851029314091083 8.58975447684145 8.015075758036033 0.7953903033278172 -0.07602854892048842 -0.5106280298099142
Ni 5.991062919299858 8.33827407340756 3.3454107437204375 -0.850595230634735 -0.38450590666714424 0.3011584554877394
Ni 3.2661575279884936 8.507797915084907 3.5705562941862583 0.9812754054618326 -0.1523615164552731 -0.732414730936545
Ni 3.2783717699662134 4.606745728590099 9.11127801685658 0.5148001589097327 -0.5344806680577957 -0.9317361610811243
Ni 4.9440992665250665 4.715653775814259 10.827848092624704 1.2959383231939101 1.2381350390321966 0.7842553697569203
Ni 8.252792596180937 0.08236279232492938 2.487124795005504 -0.3770155118273701 -0.09659994531393686 -0.3326218162033433
Ni 5.230883474512009 0.6391391303643442 1.3888695234021262 -0.3176525964880207 -0.6837851428542998 0.3496335202699914
Ni 6.169166787780347 5.310827100044036 13.375055846023965 -0.5819437466357655 0.5399596888944959 0.05964342269424566
Ni 8.293014887436426 0.14467910801394243 11.108158114781846 -1.8911258222134593 0.7741054258071121 0.5857896027444169
Ni 0.2892079289341992 5.177800251360517 5.607615874316084 -0.4856415350679056 0.044382382770117114 0.5815403405497598
Ni 7.339192799511868 6.413870609535324 2.377211190499958 0.31535454448246336 -0.7729774828502559 0.17801855490174504
P 8.845871009407825 1.8842176058515792 3.5526265884941317 -1.199131918296122 0.02400433333439737 0.38451670530042165
P 1.8749271309691973 3.5450539406341193 1.6593006739343346 1.8901678291755641 -0.808394428896969 -0.8843589573487414
P 4.6843576270928216 1.2960485710184213 7.962231172572697 0.9689004288362474 -0.22845331451352913 1.0243874061599585
P 0.0861545812401604 1.8741073831854576 12.527528631555182 -1.1239551758529676 -0.1923105460443849 0.5594622777037978
P 6.790827073733622 8.123973786120613 1.1313575979416537 0.1578035134064508 1.1067390690849972 2.884032898376949
P 1.9922512554397496 3.578408567123613 5.721834976348005 0.38034894707597716 0.9491160471204687 1.3004264408722508
P 7.014099045098162 4.131984245482959 6.196323210193898 0.18530300437830022 1.3529975301007473 -1.9575104202862805
P 2.6761850480311087 8.537563867943364 10.191829468823794 -0.044636150652136025 0.6549319660680334 1.361402209224675
