# total energy = -381170.8720511989 ev
CRYSTAL
PRIMVEC
9.20006161486762 0.00000000000000 0.00000000000000

0.00000000000000 9.20006161486762 0.00000000000000

0.00000000000000 0.00000000000000 13.46522012983537

PRIMCOORD
 96 1
Ni 1.7291883941341473 8.694499896249548 3.4577208238700816 0.7096291005005972 -0.9191094734560494 -0.8766507900712064
Ni 3.619184666478233 0.4746265823509135 11.235864215988505 1.1099629753389335 -0.8751538938107056 -1.1843303345069152
Ni 4.9906194618898185 3.719446938732476 11.73217902375804 0.995220040567383 1.428267089368024 -0.4815336835471192
Ni 8.833098825549435 3.68208548822555 4.8627349244294695 -0.522732526382932 -1.5183919684805784 -0.5349221264705885
Ni 5.221062607001239 9.168901077089155 13.051581950298173 -0.35088307640637634 1.034136258016606 0.17487846661086656
Ni 4.630933850213192 7.62577473049307 4.765974195652926 0.332923149493846 -0.8631833517123909 0.3198848282526491
Ni 4.610509713270228 0.6145245603608662 8.744313630248502 0.5109586736764554 0.4014985845703989 0.7588544131853124
Ni 1.968564799142694 6.992543684706019 4.994236926144761 0.20759395456601668 -0.26071037477502196 0.28035051760345264
Ni 2.4209318322442828 8.879255535028197 8.863535389625294 -0.3624782374431435 -0.7612283127341277 0.29817700426191224
Ni 1.9038975655516612 5.243087554677571 6.569977491417785 0.15301869042329777 -0.5277397497895362 0.2781825634178564
Ni 8.920186609469297 0.41895608908263965 7.940480320580576 0.7420936487872059 0.7997012719983454 -0.631673509760725
Ni 8.077497759276637 4.112988777413654 0.6853733153987354 -0.3143903807969811 -0.8399652617247148 -0.742218090180212
Ni 5.482206357958908 0.49952378928562 6.059834070927993 -1.368061366412405 -1.0221520890715363 0.5987747021501753
Ni 6.898500654151526 1.9402194090880671 13.44772924644883 0.6903861931105852 0.04150043323663175 0.5362835255944892
Ni 7.128483796178647 1.7782431230440046 5.122061663204151 1.076888561382468 2.4508894332077595 1.3561810700350514
Ni 2.495719133689937 2.4674473441287987 11.70648785149983 -2.750345818402728 0.9699196141293811 2.7521185940324346
Ni 2.325757194102409 0.3276298367440279 13.158873069680533 -0.6666878210523808 0.5755568692728151 -0.20266900646057354
Ni 7.520222422769365 2.183818642410497 9.257985274394883 -0.31582248525781736 -0.337278084028432 -1.5502913882923366
Ni 5.154941763663817 5.103485818653907 3.102696883449761 0.284036193985156 0.7304442374737355 0.2595076127161724
Ni 3.164287616412989 3.629369134764657 2.2079734043671415 0.17408219596181632 1.2582451795185103 0.0691189662848487
Ni 1.578721385259295 4.927967041808024 0.9497306479033314 -0.8836287640509363 1.0845885011298868 0.2004527155355451
Ni 4.178484016556428 0.01865496508074215 3.2248663425907544 -1.1509515019361534 0.5639923043636674 0.10767882883591777
Ni 9.083570504951322 5.848994417257142 5.436125088985974 -0.8533439970244657 1.532736667238025 -0.1064747812254876
Ni 5.841560767414838 1.6564435063827896 11.40051679997703 -0.9617080248528663 -1.4603660267850977 -2.0845545410226873
P 0.5242885153320479 7.258425467431989 1.562019593274495 -0.1696305879483659 -0.29484922544025993 0.24461604031632067
Ni 0.4356394809440678 0.33791550570899787 1.5284099279231278 0.22660469134056457 0.45255915069163993 -0.6793361059440106
P 3.469453662538262 1.263959674795503 1.3209742970761043 -2.081261986314345 0.123589072308271 1.764847118888167
Ni 1.5909758674250734 4.382467784258858 10.149665373071766 0.3934474321311482 -0.5380971817644604 -0.4727320260950891
P 0.5814383785194337 1.8394971337495236 10.336145103410376 -0.9714663897912108 1.8747769485417907 -0.3620051544614669
P 0.08447864642570732 1.7759063073757555 6.050475768180974 -1.3853227245960142 0.030300964976386527 0.534143596433351
P 5.851561234467542 3.681303482982238 4.929496092060241 0.9415045533217978 0.4212282017888423 0.6199168834454292
Ni 5.241127941538449 6.078269154534439 11.077702275519465 -0.044266683127859245 0.7733538923530682 0.1401590608518102
Ni 7.8648383334042915 7.338668405457454 11.391980062738572 1.4603020063163816 -0.3840220250521902 1.0904200202099994
Ni 8.973951769962397 0.6949947399099747 3.7105302389463852 -0.44988443207295425 1.678122009485781 0.41679664838004993
Ni 7.9798207043561655 3.4419914784054932 7.2572690196780565 -0.5954152987596392 0.3576540765816228 -0.5209898326602124
Ni 1.2895818465910678 9.193879244566698 10.913749816225243 0.0026528642418147856 -0.567034690734417 0.5470016833429417
Ni 0.25999834327775984 3.101294794048812 2.3683571597333546 -0.27558472078369317 -0.30481739239656536 0.09808964248558591
Ni 1.3005023198123733 6.72381908291907 11.270241166484483 0.6162263219677194 -0.5647152985726209 -0.26229700253585153
Ni 6.989314463054226 6.00474226153977 1.576911733125655 -0.8769274407713608 -2.442366483338413 -0.7300824832589426
Ni 7.656226934673795 7.064736568756215 7.019338864366552 0.1628341338518228 -0.6489397530403405 1.1002917707977566
Ni 5.6381474035369425 2.7637629309121206 7.259180792496411 0.1314623044087607 -0.6443433919189095 -1.3481193760728396
Ni 8.007006886638354 0.3352990081654939 10.483750893100876 2.2265162023008753 0.3984322869402493 0.28178570738808245
Ni 3.0227538674352616 4.8170234979363125 12.22780658691963 -0.7122259146934959 0.6219711948712966 0.2959887383613419
Ni 0.15768997730454629 1.8097165340718777 12.767183203416751 -0.7241481200523786 -2.5373121808783785 -0.49599819571188125
Ni 7.643402048683483 2.8573183581972557 11.390445492449343 1.9815394362110264 2.381730871934227 0.7561293009446656
Ni 0.2833490198430464 8.21011664848061 12.896328149328083 0.3320500028602733 2.040126135505983 0.684513279269576
Ni 6.649583785174577 6.038690489161183 4.996391580591626 -0.3609306904503655 -1.167720750974692 0.3937382238986896
Ni 3.006984961705424 2.3679210768094374 9.774928460476813 0.9660627022771362 -0.6311472049436098 -4.736013674959831
Ni 4.226131136028325 2.0807503513420182 13.017837964046189 0.19393574035263375 0.2583848119656389 1.5088488048768338
Ni 4.850290920992959 2.5020395760682326 3.29411796691993 0.13675260627342253 -0.25948035902266275 1.1082094829829365
Ni 3.3728438147733697 3.6932451630506913 7.632880858139352 0.42002852505378624 -0.235777101868452 -0.27418552644332134
Ni 4.722998867505191 6.946865378434931 8.834436514518583 0.17627406140681257 0.4963224118205194 0.2731694264739811
Ni 3.324065087714093 8.169866378604274 1.1958451780907189 0.25164235103548277 -0.10232347806127538 3.0800969979264954
Ni 6.5750632855178175 4.399055495478751 9.633085589426436 0.03083986819899205 -0.10355812179932487 1.5880634648347876
Ni 7.3712182237025905 8.163821938076559 1.5909565472955327 0.19401235922684004 3.3076568540914777 -2.396869527347879
Ni 5.397142587609971 4.0093408824589565 0.969856702847668 0.8152150513632282 -0.8862957693601382 -0.9952166981332733
P 7.666227401726498 1.4486509131423484 2.090650537722344 0.6962187406319622 0.7016918479313916 0.19263193393954567
Ni 3.83158649062337 5.731804031500623 1.038609683833462 0.6843297025038602 0.37278630423737086 -1.317814297331395
P 3.373230217364182 7.613281046723454 10.580404901161861 -0.45366832459541867 -0.707141301081737 -1.1214606915658878
Ni 2.038016064810457 1.906031979862818 3.350981708188881 1.0323858509844026 -0.8578534548590453 -0.0003339863006510377
P 3.332483144156801 1.0213264479501054 5.072496330870719 0.5194201741802474 -0.07785377505468528 -0.6147276259350057
P 5.5676657309603454 7.488703011433063 6.862751054451991 -0.2717064687752095 0.14140578877471777 -0.4663567186963646
P 5.268866127521798 2.700751708424572 9.328111824590401 -0.9144390645635735 -0.305022566428836 0.9631457857406575
Ni 4.369624498145174 5.566837725408605 6.172604747050548 -0.009159040791448744 1.341234218917232 0.9681746064138164
Ni 0.8449428653057356 7.423529774449298 7.190279690517473 0.09768983594400596 -0.5367514663698433 -1.3554850724092913
Ni 7.095050772011651 3.554361031838538 3.002380330831571 0.017396855320208748 -0.28089610569427753 -0.10123281610025793
Ni 7.114196100380258 6.739753589759256 9.528380607384014 -0.5639251985711579 -0.8130383554268837 -2.6886097748455113
Ni 8.926074648948351 6.112392183327887 13.139967862921932 -0.5113420251578031 -1.624127043326564 0.71025053613468
Ni 6.1018213124506495 5.1067150403057004 7.632975618774717 0.2601113077384423 1.0170204242719258 -1.0691384851234038
Ni 0.2021823956243062 7.660504963357794 9.207234974116293 -0.876602196221458 -0.4095569360985011 2.2147611186474756
Ni 3.7712524860864525 4.113706382225164 4.701610564097532 -2.194342445781808 -0.6613548388752416 -0.7197345643657153
Ni 6.725180692048601 8.92133661718005 8.475184225747368 0.12845154260689493 -0.2001840352551907 -1.3288487007686858
Ni 8.660303266962613 5.098720186700549 10.63791448676117 -0.8010986665665042 0.8471463528541862 -0.5371733843986103
Ni 3.1898729879618095 7.62306991235738 6.961195394517075 1.0527852405763611 0.7308304171685607 -0.8578341715853356
Ni 1.8566276486088924 2.6298468330104185 0.582348264620181 0.19727148959408605 -0.4913779233310505 0.2842282553913041
Ni 8.746167442678235 5.455958581968694 2.8086297917425016 1.989294911786729 -0.14408487826877767 0.8540765043151161
Ni 3.9878219381753564 4.649508774757265 9.640814561248861 0.4465893062614502 -0.30120602089622317 0.3961470904504984
Ni 0.5512594161707832 3.9282331386350067 12.341708870629565 0.7748219922581624 1.430434015112356 0.0013143479360493491
Ni 6.009314692197722 8.669365327723343 10.667322483940533 -2.7579940789766053 -1.4309382084422841 0.48280303717784595
Ni 2.4408591658562018 6.208707629118827 8.750925714582245 -0.8726534959863551 0.225008036277406 0.5309001497953889
Ni 8.45935551961657 8.474876023680887 5.373565589527208 0.4540285361483149 0.7662792448944739 2.6347965856797977
Ni 6.4600441143191984 0.30918647308206415 3.707298257276087 -0.0974826050292063 -1.1384464274906072 -0.8942749309108728
Ni 5.49498524364079 1.1376612279698244 1.6414777660381412 1.4333884697549895 -0.4309418295321804 -0.5364038532224376
Ni 3.6349443721463848 7.428967010905736 12.697029053036177 -0.041726690314824906 -1.5858446028065978 -2.238842585076712
Ni 1.0125679892250146 3.1991742503263754 7.798328327457549 0.517652026536231 -0.3596230273825355 1.1092034714650898
Ni 1.9799452754483005 2.8402154435229447 5.691586881846357 -0.024373543748358022 -0.010527639004201225 -0.7040359226835359
Ni 3.042129197346019 6.407566962462143 3.0155768993139977 -0.6045491427401072 -0.07702382295422218 0.7282603424485394
Ni 2.9945004779974953 1.2503435835001937 7.189808647359148 0.7823607238373688 0.7420103450447801 0.4329786574565511
P 5.4720310897341715 7.2276512610922525 2.3541375443914427 -1.9085507025581259 0.7944109701336833 0.8031318949464491
Ni 1.4885239804895578 0.07686743539286323 5.85163483496103 -0.36494289693355214 0.003157828902691336 -0.4231393027686261
P 6.555724755853804 5.073438417187367 12.518480695877086 0.9147995332267859 -0.8119289244127887 0.8399130683305407
Ni 7.786095005433649 7.585717661912139 3.6102946468710324 0.26584358223652926 -2.1369389681616746 -0.19324951291888653
P 7.425995390981152 9.086937727528404 12.640246272310062 0.006776142381568974 0.5186539854381843 0.13113885963107094
P -0.07538714546758266 5.195964838721778 8.150322687564664 0.20397949774188096 0.447120753284888 0.30712675725603233
P 1.4376568394275548 4.678102566477414 4.3171114660475425 1.135476546229006 0.5958215330591222 -0.5802033669058911
Ni 6.184373465959305 7.222444026177966 13.07200884725964 0.15888646205798443 -1.6719544472224883 0.31581168662453996
