# total energy = -340859.6594719038 ev
CRYSTAL
PRIMVEC
9.37519393353237 0.00000000000000 0.00000000000000
0.00000000000000 9.37519393353237 0.00000000000000
0.00000000000000 0.00000000000000 13.72154398085001
PRIMCOORD
 96 1
Ni 4.6515774756162 0.3589771135386145 7.03911124072288 0.0658508370565382 1.1851944822794234 -0.9918763209061304
Ni 4.434213604083016 8.759337451462986 1.207623419198845 1.547996678720889 1.3669457647507233 0.5652390322865748
Ni 0.21426443241613136 4.409031833156205 5.544148439931047 -0.55164072477685 -1.2369014237354117 0.6563455585861083
Ni 2.406152900274456 5.117365236210688 6.016691027760371 0.5338489480110676 1.1836518203826518 -0.6254249577478519
Ni 0.8472119009871845 2.0484892514070427 6.311800570092055 0.7258216511000597 0.5638187549002807 -0.2427964706090786
Ni 4.553016061709434 6.009649319590926 7.588987928336673 0.5196567156710856 -1.0170811023065323 0.8995251235662187
Ni 0.398073547313369 6.65426890461912 5.100380197346912 0.03802738708636677 0.7855332080280794 0.05020875964390708
Ni 7.02345466684061 3.450333875894532 4.180213349665322 -0.9747589444995535 0.07436247407197516 -0.48461412224465567
Ni 1.6029987856958565 1.0627626100120866 13.744322136661811 -0.9894877660692959 1.7466123410476952 -0.3714516445863474
Ni 2.0903588675496865 8.582793174351002 12.237120020179379 1.6016332330994223 -0.8561187315561256 -0.35692208351160465
Ni 7.757232346252267 2.95059853803795 1.738615653656317 0.37183525317801125 -0.27135114231831975 1.045611091425425
Ni 4.981865558174496 3.830197984015367 8.927318426428824 0.3651879230648227 1.356000064372497 1.0540900754307136
Ni 5.8430333728629655 5.556368067714371 11.827463420751315 0.07221457449103692 -0.8770176864923218 -0.20967860500918725
Ni 1.1004415144628896 6.028109076461697 11.877217574998742 -0.36432608928515964 0.48772747106265685 -0.6902303842590113
Ni 5.436571839530155 5.2841499364295945 4.099860437431696 -3.472748930739542 0.493538421317479 -2.8217216990425533
Ni 5.2311144643026495 7.879184869043022 11.252886847179301 -0.16150435929680573 0.46273994787938366 -1.9705693103527675
Ni 9.13265767421267 5.524014273422328 1.3293087489622681 1.26676992916007 -0.4392691184509531 -0.13778413286173047
Ni 7.471682689182708 3.761140305442434 9.573424917216137 -0.9803503225444019 -0.4971503070384535 2.0304330765879355
Ni 2.003103937536344 2.966836373944591 4.254899894680718 1.5481679141914304 0.9010281904743063 1.0501033228688237
Ni 2.80959562115811 3.12685218413775 10.30865293913054 0.0950714244845524 1.0687011404756692 0.008644048828243177
Ni 7.178932883166094 6.141023912292867 2.3935723275243856 -0.9754796247156621 0.1427507328383864 0.214314818229618
Ni 5.000634696445337 3.4154487792382895 13.145856631407518 -0.6474420854488915 -0.26344140055293985 -0.1428566622886314
Ni 2.6152947267209634 3.6795011166000378 7.735506271812285 -0.727617823768534 -0.36657400477907187 1.45834693947254
Ni 7.701196812064048 6.187402996721362 13.183193341279457 -0.9296468826522634 -1.8200908698528204 3.4955816123633414
P 7.839274668434148 7.752544749281528 0.8819423069433924 1.9049640136481323 0.3225204661032833 1.1912342607156001
P 5.842883369759902 1.9466652700086422 7.8872803490114896 1.8115357811939576 0.9773758132971102 -1.6819799497792904
P 1.876632571265796 5.581877970429135 0.27753011617201806 -1.4042139050735623 2.7050455518040315 -0.12328182548049738
P 6.128226772562749 3.0711916577071907 11.280961802956453 -0.7613918348951855 0.4268743443310261 -0.556007743496294
P 5.492785502403262 5.8860186370846455 0.3134427340842465 2.3686928078033467 -2.4522631736268345 0.9683023902409323
P 2.9806460346203894 2.3888931682281935 12.366445195485714 2.9618907871966926 1.2294845624460502 1.905873412836279
P 1.3636875851456707 7.776245239565585 3.2077404199454342 2.114771173815384 -0.13526470887398642 0.0919202804500804
P 5.5698870973779835 7.936786060619468 3.8330311676244815 -2.0506761431076876 -2.166645236976856 0.13304738950769343
Ni 0.03967207068276137 5.547283504785077 9.319946861100984 0.6749744865412053 -0.5593149534926561 0.3596561946133161
Ni 2.8041861342538765 7.213649226331389 10.295630794745827 0.149518133469207 -0.18109410850327523 0.8290540141288496
Ni 3.3485942712416046 5.129318608486074 12.355578408188146 -0.16040444136440765 -1.107784479630376 -1.882040057862107
Ni 4.019623777602944 8.441021491567959 8.766598539170662 0.4281305853356304 -0.726058449701214 -0.15357019205139358
Ni 8.212060505129166 6.9060397379175305 11.361630659225908 1.3633480200971357 -1.1301093683798216 -1.406554894501913
Ni 7.946311257664011 1.8323722806680751 11.080612970907659 -0.21005372896041888 -0.9041484812708429 0.5780081590267853
Ni 4.2402595918217045 0.9936486802755055 3.6575322246369706 -1.8837660394142783 -3.757738489776902 -2.1056854094640314
Ni 3.1120956288738624 7.059352284442533 4.451035514572212 -0.06201089448515773 -0.016559704130894057 0.506828710668482
Ni 4.140029393393355 6.7633867869039905 2.3960970672528257 0.7602119556544714 -0.922040016839283 0.09528971114294557
Ni 5.996130289927313 1.307333294363442 1.0532392880063326 -0.37647429461191934 0.8702484860892884 -2.029583841213763
Ni 1.264188651844757 1.8454319258285548 11.582451164765313 -1.9754592914552171 -1.7237418642074247 -1.2968832036056828
Ni 8.974301273347152 0.3701054687471497 1.587925348876747 -0.38548986784696837 0.6178839121758004 -1.8902061386126674
Ni 2.374174113740072 9.268729239079292 1.6004262324783147 -0.7356039272978041 -2.3965540529899885 1.964038708323101
Ni 7.3264609350292025 3.6481223424779086 13.397537462844092 0.5073943533639648 -0.1786191646002214 -1.253051808243029
Ni 0.23252637269473775 -0.12486633306776683 7.229525179751889 -3.3331004909755633 -1.483214135027865 0.6420355697213395
Ni 7.120441048165207 6.591492605986978 4.8588808265307835 2.1502074031358065 -0.16980156630859145 0.4508059154459591
Ni 1.2138157347971918 0.9408007120273899 3.330369831738764 1.3637275149237416 -3.121533667804727 0.5078813203027125
Ni 1.6589030671688942 8.795600701628626 5.395667868363484 0.4571927928089094 0.25620374515392 -0.5152457310875836
Ni 5.544049062875268 1.6642750532973616 5.126218231849626 2.197276588709468 0.8583550770858122 2.9363080536315818
Ni 4.7783019721231685 3.4987380022143864 6.529396946434988 -0.7884863771191324 -0.2910835877502406 -0.09022335236363171
Ni 0.3286567988124781 2.9744490314250718 9.931337946242396 0.32702323906964326 1.2117208107047261 -1.3879606764394934
Ni 5.50767331038233 4.101581723039351 1.8904309817088647 -0.6100070805308848 -0.0033714875753941935 -0.31596235326979133
Ni 1.6297930899806028 7.040714398886873 8.060378304830587 -0.06757013374049009 -0.05111918727331842 -0.4861830093936724
Ni 6.30271788220155 8.300824841367087 13.135784860556187 1.0282463748947324 0.2499675344362211 1.4324289340551974
P 4.170123765945502 8.9469632078138 12.855988760008513 -0.45822406228690116 0.7451149521120328 -0.20067408751773183
P 8.378667076663184 6.993875929955245 6.868758341689847 0.0451871380595996 0.8385257010647107 0.39819497411846266
P 8.323840942493417 4.334086532788024 11.547516379581182 1.6330829669682714 1.301298816174875 -0.1563690949527694
P 8.58038374950804 1.6586405617385327 13.240713906188006 0.8546043517941283 0.3748424154354512 1.1074121838926219
P 3.290214938568017 7.468926382163913 6.711372273397273 -0.7529516745476323 0.8168497587531738 -0.8945657226784143
P 6.252326214766102 4.7975586204789655 5.811718350059638 1.5485867468964039 -0.5318599426054968 3.225536333340638
P 3.3239937623391644 4.212734022409523 2.8818943042766114 2.165823512406509 -0.0793766394571149 0.4698534189957134
P 3.153768365943735 1.5603229028742454 5.4046005531509245 -0.0023983250288474823 -0.4368561381340863 1.6931735045022647
Ni 0.020715428533091388 -0.04589907449869153 12.034864273682889 -2.398714036755785 -0.4283833247763848 0.24852463134210748
Ni 5.426024746345991 7.7978456864067525 6.108804183274187 -1.7137094196720875 -1.78492743457781 0.24218840471143452
Ni 1.0098115146306148 3.3271438275035012 1.6640387984100364 -0.5402746490317534 -0.6729520567945377 0.24056938105077275
Ni 5.504335741339164 1.0974977035652653 11.9444124025355 0.29792246504894493 0.013932550920692132 1.2353690462512852
Ni 6.969931684628708 6.38956967887541 9.52369795103114 -0.9230180644818361 0.35951144150533565 -0.4607522280253936
Ni 3.0534819163517373 3.9747447242050855 0.7425650486930048 1.5128936643701685 -0.9073037390703729 0.03653717569408546
Ni 0.9927861624328895 3.8759208048679583 13.110605902187558 -1.3457200226027275 -1.380935651271912 -1.2016228030387759
Ni 2.2087956926123873 0.6063453557621071 7.4965738290973345 2.877704127945444 0.26006142833711343 1.1447661990610478
Ni 1.478646213256083 5.0915553272897975 3.26421846328769 -0.8054821403461805 1.9120129500751135 0.5161885546168271
Ni 8.006303123695533 2.3598300670096095 6.034186077174564 -1.1441740740030037 -0.37637787824337116 -0.3628574751594331
Ni 6.615793108683291 8.88520880532128 2.317994201565155 0.2593039813457986 0.24117256185241046 -0.2637008248619136
Ni 7.017651421790835 8.559748947642845 7.996791989441903 0.4678502725227556 -0.23283730251383772 -0.3226868164778185
Ni 7.662646014576688 4.932345783775605 7.78246193066818 -0.10081681160876185 1.3473341611673828 -3.5714340407172815
Ni 4.044252412087209 1.751586234474353 8.955338068561723 -1.6278913954650027 -1.1392090166882445 -0.6201068879690481
Ni 0.43397022739589697 7.984083914054228 10.038215157175252 -0.12867857101603644 -1.0847502235187318 -0.1761575904336063
Ni 6.06159726922066 0.8762937525936514 9.67735175461561 1.0617910436193974 -1.7374221899079947 0.5713585149207515
Ni 3.505488141852251 0.40405398352863836 10.849761945370263 -0.6680181098280302 0.5936641203964872 -0.9188299945424175
Ni 3.8466514493826622 6.912039862040077 13.692536377887267 -2.681330210464963 1.0503462921175653 -0.8448814680794093
Ni 9.288285893641216 2.541736955056121 3.5384428860759427 -3.560532820423745 1.2917739074035752 1.396963394158736
Ni 8.124636821624877 1.8167250819797471 8.321883401998436 -0.18676853318023318 -0.4880786837544884 0.13096119640262607
Ni 3.0119029312212793 2.0497736529770254 2.2365022032676394 -0.023594242380172267 1.0853469765624664 -1.5127900489127688
Ni 8.730236849468636 8.220610682003795 3.32484034235208 -0.856243687169764 -0.5325924498961473 0.9216049861843933
Ni 1.013749096086036 7.666189837886567 0.2246643350554137 -1.4240311969098054 -0.6990212430777639 1.4280593442325924
Ni 6.98313195769831 8.917300094182961 5.089855604628207 0.9041191706948041 1.98586994526558 0.39936611160842833
P 0.14097197873983314 3.6757791646052707 7.774846460629518 0.15950121282384788 -0.5980391095357313 -0.3061769917482533
P 1.2320223614315435 0.4137432464671566 9.563696278463066 1.2653992740647884 2.1867111544887954 -0.4862413734354335
P 2.3436953582363245 5.202079488665889 9.868809152730307 -1.292069584267123 -0.5749290058808292 -0.04393372526847272
P 8.631628559592162 4.641424140577579 3.5556913678894753 0.692233273621653 1.6936627854338573 -1.673691227407937
P 6.096510491458726 1.8013778894975465 3.0238853665978835 1.0615156784708235 0.9949112510777123 -0.08761265421366202
P 4.836803182317996 6.202515809355026 9.95949446620684 -0.6097260589553565 -0.4622830628476232 -1.3554231088231044
P 8.725849258704024 0.6027387186528202 4.739997742236469 2.1280709762480834 1.523628020068537 0.46759419064789154
P 7.649520743058618 8.651850852923934 10.631424928705954 -1.4326994141077647 3.110334456654798 -1.3145227710643166
