# total energy = -340895.62604519346 ev
CRYSTAL
PRIMVEC
9.03006849911624 0.00000000000000 0.00000000000000
0.00000000000000 9.03006849911624 0.00000000000000
0.00000000000000 0.00000000000000 13.21641802177533
PRIMCOORD
 96 1
Ni 6.390326473072449 2.186910963801251 11.734077063670215 0.11313085308942451 -0.289026962331528 -1.743545014976281
Ni 4.738609595523103 0.39066874659048356 6.007720674440634 -0.8416974139244731 -0.1336161175269699 0.2816671795323472
Ni 2.655652777651054 1.4403500695433678 4.789907607353768 0.15185835156660946 1.1342778979352142 0.9885832519771556
Ni 3.4327714229360757 4.288406511832495 4.947698117304451 -0.2736221977406835 -0.002926686728491734 -0.2754093715480934
Ni 5.106169494402727 4.413897370586675 2.557390283752705 -0.31771121764009796 0.9308959245680162 0.4747125468602276
Ni 7.218997778113362 6.1024930469524605 2.6549935826673123 0.6370193474536707 -0.7414246477446392 -0.7952820598847271
Ni 5.15862516098566 4.599916776957553 11.307055068236632 -0.2869916770690541 -0.06729502570223249 1.5653889060554071
Ni 5.714127870777765 7.763781796868464 12.407374305029611 -0.5139164707531988 -0.23683022572331472 -1.0565935585788577
Ni 2.01738949216045 6.5694649674212595 0.28757065113331876 -0.2832273249306154 0.24894320693676483 -0.061165515765726916
Ni 2.642053494835785 1.6056364391653368 0.3718916226289493 0.5410421233253973 -0.39372845370667675 0.5905096339279055
Ni 0.4609380288504965 0.04904952483132712 4.623631542249359 0.5637025410373904 0.05075743305852549 0.7603844766765937
Ni 8.560540840641673 2.337017788660625 1.3912391402478015 0.27198183392378317 0.2849589629097415 -0.18055134862592775
Ni 6.911505893368645 0.5582586866282396 4.822446555359439 -0.4951893266573407 0.6137020128839689 -0.9954627527058083
Ni 0.9351719302223757 7.586042963101571 2.447588265611572 0.3785879985208125 -1.2771404737611165 0.7005937297712063
Ni 7.707434170860974 3.8102824570497145 3.810094631629689 0.5149382271494938 -0.6010794390239519 -1.0908905320885147
Ni 7.745432698142948 3.8349345434279907 12.6700373188526 0.4308456702739483 0.3186995496952963 -0.263585639440288
Ni 8.033230003989855 8.727199780640747 6.776202962431815 -0.4144050082194218 0.9813947046485163 1.1356783778271666
Ni 6.687542140125415 0.6219495641532435 0.3406927367546102 0.7006891176984901 0.5505696031998583 0.2281057013661233
Ni 1.7865087066220697 6.410689277022271 9.19204512003186 0.21789045139601831 0.27068394104796606 -1.0805166450533583
Ni 9.19595062455882 4.9354379936136885 1.3706478755707379 -0.03069408664974714 -0.4066973551625189 0.4506315946516239
Ni 6.3976317983032285 1.8841959851715926 7.009762969226032 -0.4769157251591335 0.15116852458843644 0.8695015806209347
Ni 3.5408703702014055 4.5781543124258155 0.3829760314309034 -0.48713791710777393 -0.3034176838355613 0.30540668924113207
Ni 5.961145388315404 5.394589874960293 4.623169202753913 -0.3343336566881274 0.43530036361119223 1.1987871333621933
Ni 5.164214773245058 2.96125737812725 9.353444045263409 0.31977427081671383 -0.706367656140506 -0.15104125498195278
P 0.30216685348564337 5.514933594800327 12.499374446582417 -0.06719038180356815 0.6987613045481579 -1.1512376657180043
P 4.00985599589451 6.178372710628893 12.32873685850339 0.6813359099828589 1.1897461062058476 0.6763970779203448
P 2.6031880809998498 8.516230295638668 1.330655509214653 0.003741469320303234 0.2739536129381734 0.7442883424456794
P 6.30927258027706 7.7313096713679945 5.878741500313587 -0.06546182914823566 -0.22792829524799454 -0.40835057449522577
P 4.649446701420867 1.3454169618163265 12.707242103133602 0.06169619145821633 -1.2543625566346528 -0.18072824052342423
P 4.04526289358287 6.026360541364458 8.042242915130572 -0.20254405084693503 0.1237479664836385 -0.007475996662070995
P 4.870114479745389 1.06536745454545 3.804689232763009 -0.9300351192296177 -1.696842982934052 0.22157587066740547
P 0.18450416091510036 5.521995108187803 3.4902577405524666 -4.8850960064432e-06 0.9388038665611833 -0.735657663353875
Ni 1.3938993983602705 1.1158094159040775 2.678307412927911 0.009608983844673773 -0.004890752433398028 -0.7853473172695185
Ni 1.6208611342692834 6.3770251825101045 4.7287288948215975 2.307374568509839 1.3532906358611339 -0.36104973252673306
Ni 5.840503676222447 5.385731377987001 9.231469495093734 0.7127733025565337 1.3535796278564622 -1.3041738237298248
Ni 8.580614682406841 2.3483776145448276 10.192620028723313 0.17638359040148333 -0.1667311549133838 0.9022972869947169
Ni 2.3531906409329677 5.355399378666623 6.940932176841499 -0.7013154384285792 -0.6828407766631595 -0.0990589483773907
Ni 0.5597098185992979 8.941835473360623 9.267431741980726 -0.004826217744049753 -0.002132730072286649 -0.3880730551931123
Ni 1.3723626855352926 0.8388156837359145 11.456268819344059 0.3428010707291903 0.6987474205910869 -0.10837868311641981
Ni 4.092887473641123 6.839987752666832 1.8118515932230344 0.9238351610664929 0.6084693037301198 -1.290735953057364
Ni 5.604502841974732 7.646824352629841 8.036678587062333 -0.29128053425239514 0.7224496493040332 0.15916774074382908
Ni 5.22461689990597 2.755254430673908 4.986435304170946 0.14173488997936237 0.4942686146152842 0.07249688161814612
Ni 0.7500266344600747 7.321480022914483 6.80408961926456 0.6731312626848794 0.4913956639428634 0.008408792888985519
Ni 5.140167701440899 4.398230202137477 6.954558549861579 -0.07037495017913685 -0.04410213252553694 0.10166424721072169
Ni 8.101813372503779 7.0843143098598835 8.953210650360884 -0.21898059913640353 0.011379959702167498 0.38989236779003816
Ni 4.57595097576783 0.6522165469820742 10.608910691024317 0.1556173043884094 -0.8821205549365259 0.08871540035953754
Ni 8.031378839994415 7.244923104117769 4.604824619062533 0.21827611687021117 -0.6723635312809194 0.38547058457325867
Ni 7.0876825253247535 5.968080480747096 6.933160900087966 0.7195689853221284 -0.13012738764742107 -0.5018595395886647
Ni 2.507776379654476 5.275736116384881 2.4524780475800103 -1.1714737902592212 0.08104811362226687 1.0054885123729262
Ni 2.3386702911541146 5.2100243095809535 11.32048277975476 -1.2520236240888307 0.36213602361237635 0.7299945515308267
Ni 1.4257665092866216 3.3752227978486187 3.5891035768610857 -1.7317691053872755 0.6127195943660415 2.0309010173632895
Ni 3.6227189090045915 2.5648644712601407 2.739287463958132 0.44979212946946406 0.129129542510526 -0.010111891623021296
Ni 1.0666226340350398 3.237360745563949 8.203906421362444 -0.6020551726736599 0.3980026556019984 0.06702968785598779
Ni 3.307903638892556 2.9268799082217196 7.29863485319712 0.5873767447258788 -0.8865276828652862 -0.47363268353248755
Ni 4.182384480269365 7.024815190026013 5.925687019237903 -0.4772872495659393 -0.607124102556135 0.02003017917799776
Ni 0.7603985708754917 7.2882854919523785 11.171124547555007 -0.2361532542609481 0.1304336060339302 0.7931845539257502
P 0.19210747839880327 5.530122169631191 7.7250626701385094 -0.09780656402752834 -0.8975062933639768 1.4960657941795525
P 8.416195199338834 1.4775088004761912 8.18453060387458 0.2564030056489197 0.0927926557527047 -1.0027199484888538
P 1.667320835520651 3.1962287845921353 10.44960042058372 0.1310172464515421 -0.34426788508270384 -0.345201966861199
P 3.9506638983818343 6.112715084234589 3.9002968865898517 -0.13567479982821148 0.010999693544613314 -0.4599181621598724
P 6.955662927211053 3.913134934649923 10.305131970352402 0.9031596349950122 -0.11833425166723491 0.7172704190959389
P 6.318889602985069 7.803378646234304 10.169624056865834 0.005382347357835892 -0.5405741825500432 0.10230959410420445
P 2.402928256966501 8.535708152897989 5.884438570385401 -0.07374566642358267 -0.39472655595388795 -1.3879627333220226
P 7.037159293351692 4.073400586313533 1.5589157689409536 -0.2404444254371343 -0.665574533383544 0.33659417058753
Ni 5.211306579275355 3.0667285755258846 0.6278344596450834 0.7510470013257516 -0.6038621439754116 -0.42019821786243117
Ni 1.469453979578967 1.0163793341783616 7.0898939890441826 -0.8316289739448774 0.7603855051178582 -0.06845459322797243
Ni 6.6382469974371325 0.8311003934056582 9.301688208971434 0.04075635598175561 -0.3905009479083145 -0.11470411111381534
Ni 2.6751216048421034 1.4911080832914603 9.3795725478039 -0.29527705700629797 0.397757886581044 -0.4245179282837076
Ni 6.3528155694770785 2.0892417453882692 2.654557430369851 0.4485721410194339 0.011603388566883243 -0.46267489896940317
Ni 4.082602225881102 6.832727577777405 10.14032329134194 0.9325576285411552 0.3345403733822948 0.4936523211875241
Ni 8.175670300887633 7.318427859839078 0.23359883608777962 0.5933980112192943 -0.6485633435375282 -0.5011357740487627
Ni 7.610252576134596 3.8656187154109154 8.1233916236428 0.2288685476740768 -0.5116855245401509 -0.08820297949949325
Ni 3.286746188934936 8.389276565824678 12.356200908141078 0.06326816393102652 0.048100712161968776 0.2237739067599888
Ni 0.07785724862765611 4.8327480572423465 9.98981462844453 -0.03171789992857118 -0.09581807284258982 0.3572414145242364
Ni 8.547754263970743 2.25854649539058 6.079340854913903 1.1438819966838816 0.2947669501390988 -0.8741701897411976
Ni 3.4912952953967387 2.961772092018665 11.671405680852944 0.041136879249625925 -0.7435278101305711 -0.49629850056111946
Ni 1.164445363608619 3.3806950192205 12.712687234300674 -0.24234421356300848 -0.10273254057423598 -0.36185680180906066
Ni 3.016322734440339 8.42092695511254 8.011025969119693 1.1262462858799893 -0.7352038636459081 0.11605008361874854
Ni 5.594172443873359 7.671846671807207 3.5838300169911537 0.17352040992107534 0.8413194617597639 0.42462360062363647
Ni 3.1795502484966494 8.502576832413776 3.630391758013977 0.13738304076856986 -1.0657988792272095 0.014008912684582325
Ni 3.3015916211715246 4.334161867758769 9.382824275388082 -0.02758408026585572 0.020018352103455848 -0.8775871858425466
Ni 7.431782306837797 6.072666731455228 11.369542237661188 -0.4014353354326312 -0.1499678194121159 -0.39379401683728954
Ni 0.6711264129471838 9.099419194747913 0.530903900816623 -0.3451636574240959 -0.0475756928964342 -0.5501469138401428
Ni 4.676573026505243 0.40499765892200346 1.6680441439891125 -0.4775813837675904 -0.5960552463364831 -0.2702193427067217
Ni 6.15191461059653 5.6675868989119635 0.43805312683274317 -0.9726017889472346 -0.11672396975732155 -0.9691071455304148
Ni 7.8482942058114284 8.867743763201736 11.344748379211063 0.23675977749669544 -0.2829720143866997 -0.25184495396459206
Ni 9.099690096796028 4.805883604137814 5.534692287182858 -0.40644153039797093 -0.7501699980374371 1.5279677850944717
Ni 7.959770398609899 8.691341379538867 2.299802168297698 -0.3539270054390227 1.0976178235100194 1.1772302331270241
P 8.349607475912675 1.6221614641002255 3.4891470421552038 1.0472859080246868 -0.4787296384394207 0.6002176052442888
P 1.9391891009385172 3.3135022812202233 1.6144651369133372 -0.015356170741096133 -0.4670344614896796 -2.1053989885718645
P 4.586814147897158 1.1343481460632723 8.246410049704537 0.4676019039573753 0.058251941663357745 -0.5800421587376785
P 8.59296781580079 1.5007883164773625 12.486355797156936 -0.9068411976116576 1.156119676400654 0.324093467017358
P 6.35723127286132 7.658707922473729 1.3208967144347983 -1.394575867763166 0.4500811214647926 0.8708807203566484
P 1.6344604170845525 3.2013759235062813 5.90226753717854 0.6589997083795037 -0.6337777005879214 0.35938777144327777
P 6.994745062685478 3.813406860671283 5.864706065200856 -0.7734030004234487 0.41344650096089436 0.9129277701253697
P 2.5657674780871838 8.332703188110429 10.19436463791316 -1.5915863903863814 1.1681113015448916 0.5048229930923629
