# total energy = -381168.9677230444 ev
CRYSTAL
PRIMVEC
9.27120631660239 0.00000000000000 0.00000000000000
0.00000000000000 9.27120631660239 0.00000000000000
0.00000000000000 0.00000000000000 13.56934759224128
PRIMCOORD
 96 1
Ni 8.812402196164943 8.826262649712938 9.261758100190981 -2.0471632448584227 3.2912699280930218 0.8094604082676381
Ni 8.43740971144534 3.1620561926332487 2.3859662873712395 -1.888298122956677 0.2969791272990692 -1.1460772045629875
Ni 3.7975510344040884 0.9745892153614508 0.4993045284339524 -1.220986038056736 0.06795734187657973 -0.31816861689249076
Ni 7.256953358269001 4.739746654650691 9.129538644549484 0.5199467361076788 -1.0125423338959143 -0.45617437884672396
Ni 1.204969422862561 2.3072695061996966 2.1832402342801385 0.3205769692236673 -1.3733200437081832 -0.14061697432483522
Ni 3.2964794140328464 1.1028192708947864 2.7160138177697872 -0.5946020588297243 -0.31627217120072626 1.2078842105674552
Ni 5.01102215352318 2.7910039706279597 1.5342724753882633 0.3665089558690914 -0.3363969669750594 1.306031959984486
Ni 1.523064513987479 5.912183414302603 5.771844236107705 0.7116052503903615 0.022047723828658803 0.16154986782276048
Ni 5.287841833814868 6.924710406198102 2.6924436297730843 -0.725274520347338 0.15388849462276077 -0.9741848171636385
Ni 6.0354162895935515 0.23695071146730737 10.044030972992227 0.9202744402984281 0.20198355035777474 -0.8490140021905442
Ni 1.4034752228064726 3.9587216862290835 11.838359860404532 -1.8670926925236553 0.24188475742808666 0.8113080029993381
Ni 4.626350529335946 0.5763881196942237 11.822172334053494 0.03130935163624285 0.22051349084116215 0.23477617140776338
Ni 6.128183980698067 5.454269259661075 13.229679604517507 -0.500150270207042 -0.4883301376436622 -0.29254731677996065
Ni 8.387975638991884 1.1333586247323113 0.7137447507945475 -0.5618094377797357 -0.09669327635869154 1.842322684667827
Ni 4.24045510590568 2.3985908891078993 9.11674252549467 -0.4872734142443737 -0.2266633124926419 0.7530061819346515
Ni 4.775107035809258 8.979024317345269 7.86277199551691 0.4146168671199117 2.448666714524828 0.18111184911508807
Ni 2.6982362795234445 4.303248986762254 9.906695665666593 -0.010634854006026847 0.14903193786140786 -0.2918526047057812
Ni 2.9611120654096563 2.3882256803676585 11.480889028635001 1.2992442476386914 -0.9716203988705718 0.6112304114150247
Ni 1.5020745027281721 3.483053171357179 5.723035042964707 0.3191942299435277 -0.8377818809201507 0.021649717059291747
Ni 4.5761933027843344 6.88815403941566 7.169419263169733 -0.5967399311083336 -0.2779280242048891 0.09781016357195413
Ni 1.1444099027451617 7.224253813343394 1.1406893676222114 -1.1362049397545981 -0.030860437024282338 0.6836406468566355
Ni 4.887270090674581 3.449102013569378 5.59054394097608 -0.9302593194252817 -0.05434077953440963 0.564633280381776
Ni 7.300667096381913 8.245699705782819 1.975520709429204 -0.020197557993797473 -0.34459364385323876 -0.23451854687100257
Ni 0.7820151332636981 1.7508024276684024 12.888939591793271 1.8519524944481072 -0.68350155017561 -1.1234008460113942
P 2.051430565960929 2.2075669527179893 9.507716715783529 -0.7435753755390548 -0.6676036479984309 -1.105499026030309
Ni 0.3386484285634149 4.5665234345230905 4.003419099339615 1.2845617059258523 0.8035952077361128 -0.06125447593510741
P 7.008800248124741 1.0120727027825538 2.601732292245121 1.9577215078558217 2.447386562260824 -2.5624565413544897
Ni 8.326433370997503 6.685809960027688 8.632710455341398 0.5883697047667673 0.450873792569417 1.1187340366633443
P 3.2605071332527626 2.1201209340793934 4.839222990696564 -1.2163269420181695 0.2224112220845073 0.061213595394842966
P 2.554087562624283 6.84221521176996 11.536048998152832 0.1910234518018452 -0.9002663726076171 -0.6083566894116555
P 4.901529206097202 2.547319581962051 12.94692171653519 -0.040020763367311724 0.872403070538446 -1.0231838727701605
Ni 7.1530045922622225 6.7334639608549125 4.13261243321652 0.3300800236180961 -0.25615258020101045 0.12244416007055041
Ni 6.336007343060531 2.2023750771414825 4.208627981501053 -0.7446151296574789 0.6940849821184111 -0.4304705463227167
Ni 6.055469909007809 7.479415955515938 9.084542698593303 0.25838969706164533 -1.7404388652471314 1.3465785139482809
Ni 3.979034899422167 6.333606100606397 9.524623687750168 -0.7336794565815816 0.2778642608464892 -0.3415386590769989
Ni 4.94453833252473 8.03355596124419 5.026561622547792 0.33527725154831933 -1.5740357830971277 0.4793171355117746
Ni 5.122554766354213 4.729993345531967 3.7610159913963366 -0.2772790777669805 0.5145728733902751 -0.21402016980733463
Ni 8.571758763193843 2.5865182425646784 4.516720368055447 3.1612402423657295 -1.4344379940654264 -0.37584823099214626
Ni 7.752490068427431 3.689587836031903 6.682021745098115 1.6787714701443217 0.6778757193484003 1.3402667127976402
Ni 2.531438005421771 8.275311938981682 3.818591110177883 0.1846535437197594 0.24127180643443608 2.666932289872078
Ni 7.7087207030762 4.009416642751119 11.465515514204709 0.06028414160203812 -1.4025856254415199 0.28744727654923397
Ni 0.21511331194426359 0.15880185859321358 2.9315897629127434 0.7405538151039117 0.06079013470417917 -0.7180916294456536
Ni 0.5665077950480032 6.976619890756784 3.5714661768218994 -1.1956038505382056 -0.6720567986737781 -0.5043792206867248
Ni 7.500350339536925 4.441093283318514 4.61717388925447 -1.8585468598361734 1.1348687374416777 -1.83798909028948
Ni 5.341114185712383 0.03484490208347105 3.2314456097132647 -2.219293202189875 -0.02058965122589357 -0.959515645187238
Ni 7.483819778549583 9.060063932370712 4.206864598046318 0.7951306219085273 -0.19941913206470815 2.4320129080182307
Ni 6.843578079108793 7.718028994288367 6.949744517683252 -1.8200322487007428 2.007736663431684 -0.7962950745302738
Ni 3.203025653655721 5.125864587034237 7.56820908044251 0.7948971657414826 -2.848820097921242 -1.334641910411695
Ni 1.0630179818770285 4.72809274822271 1.8046421773967796 -1.2449404919898044 0.15419317034737315 0.7887391165598868
Ni 3.111685728334745 3.350604716917932 3.093621709811055 0.05055071636435811 1.402903928012887 0.1920855745177724
Ni 6.0499998972397036 5.483538458223633 6.0205295134985555 -0.5878084329466586 0.49285322232499634 0.2034724761984754
Ni 7.684847346630655 1.3923590463489162 6.010407210365645 -1.0297224452196265 -1.4585433717540621 1.8957625496545223
Ni 6.127887302093694 0.8191231368261429 0.1565730605778702 -0.06905751691929397 0.17704924900994026 1.6986851783491133
Ni 6.782054353527186 7.878207627029993 13.192201679820236 0.034421157792347175 -0.5156470802910603 -0.5148402681190487
Ni 3.2398138005978274 2.29146209931051 7.096849822299106 -1.2781966829397728 -0.5328814418914758 -0.24473328262047528
Ni 3.7511671888518308 8.692664565681751 9.970362894164786 -0.6341664513859079 -0.11955449722758121 -0.05673730479104422
P 0.9214995062297511 7.958533359163665 5.416612400680543 0.05636012395728358 0.024814230830202424 0.0933834952591682
Ni 5.939023556791867 2.5313916493898385 7.405240741699149 -0.9004108686052816 -0.826041709665087 0.9211121057083749
P 7.13817066204363 0.4774383881711101 7.881443278058923 -1.0451153827359292 -0.2757212463615574 1.046336913847856
Ni 0.1481946713662821 8.642544423955686 12.99419745214184 -0.5434453334502511 -0.5442775995435594 -0.3119905131062369
P 4.732283333509462 7.025590402890908 0.3429994057206555 0.018680607128638796 0.17840653436878307 0.7221650281840789
P 8.224422287125527 6.455170158747753 1.366690784346921 0.7958405034913585 -0.284774100592445 0.19542955128934084
P 0.17913546844034764 3.4989811039293914 0.19832593854001151 -1.233380812176663 1.4886044528055007 0.49863563333472827
Ni 4.801780296583563 7.08707704364697 11.582930707488053 0.22603776309350102 0.4083585449150257 1.1173091312913597
Ni 9.113512437189572 2.0043513799296746 10.730762209738081 1.1997045029701403 1.1590036828166685 -0.5701027881367794
Ni 2.568745339921529 8.526098071739742 12.926594596532526 1.1612012046886195 -0.54901742822139 -1.0146393256342592
Ni 0.782555644596038 7.475698201754904 10.309434089739431 1.5332452314433271 -2.0098555095468997 2.0437994705925124
Ni 2.9508210263205084 8.669773957113186 6.389900865785951 -0.7486319641263559 -0.29074908722895737 -0.9051031318746282
Ni 1.8405662479036533 9.078383836190671 8.351784557741077 0.04528869663447039 0.7050291398347407 0.3115714232909473
Ni 2.6104286838357704 3.3175714085624057 0.5662417114247071 0.9518995234028766 -1.283493155452022 -0.9000408868603725
Ni 7.38712109593714 6.236388230436304 11.131613943311242 -1.7389823353062632 1.0383693222613473 -2.2868291402583196
Ni 2.0566873399821426 5.423266345504219 13.55427195707817 0.10710752971348005 2.5918897590139425 -1.595552317012665
Ni 8.97951569128376 8.783272065698183 7.044933847895952 0.8174071739185407 -0.3868317265868435 -1.1881201405666504
Ni 8.512719720923851 5.770686262430015 12.928548966838827 2.2376439367829204 -0.555117884692173 1.62867326793635
Ni 7.879857901766811 2.300946543444022 8.87165354906119 -0.4344938085494969 -0.17364613686566224 -0.1411265669714021
Ni 1.5516569144838137 0.3456806386076659 10.707409895091464 0.5428814905269812 0.6868015610831204 0.6141277875674778
Ni 0.8610697830017647 0.7916330827691772 5.318817861473202 0.7487309515980654 0.8460842301382591 -0.6707257385671803
Ni 5.999258584685735 2.5210820678879173 10.49251167513537 1.0889583480628084 -0.4624231879699133 1.4197824489357806
Ni 6.7762042222972285 4.9770802669417655 2.04414061637913 0.1055052182233667 0.15484854454318495 0.16593925513970775
Ni 3.18673614403443 8.151402265624512 1.8211690299015677 1.691335165741945 -0.5750038249828225 -2.5338764157239524
Ni 5.31805669542886 4.630939776497323 10.40876208648312 -0.20834086003437022 0.7474641690704998 0.12499649417875892
Ni 0.2629369758483634 5.118271469003595 10.107264309031528 -0.07398837856200806 -0.5536670111782593 -0.6349254410391194
Ni 2.709612049759827 5.698278140550516 3.1836673747204594 0.45660503862623947 1.2075545951421784 1.2951860184089177
Ni 8.242037579260105 6.202631767982622 6.487098339301993 2.4028002910100166 -1.7705855640338408 -2.693471216702871
Ni 7.044642732015412 3.198250982366612 0.3591387217984829 0.2734707597644838 0.046803847727416165 -1.3058836073320799
Ni 0.4949656038450145 1.9448395061339636 7.40070897601737 0.6134361608170918 0.3206206779774091 0.8096609543142185
Ni 3.8017879757227737 4.72271544851847 12.268006106773257 0.8291553155934043 -0.6690560641742413 -0.1291287711795776
Ni 4.190631642783986 4.943639025505228 1.495355659459789 0.15343778023858734 1.4100428530505136 -1.1348322277767877
P 3.9001554754848073 6.100166394997703 5.187236264831103 -0.41843315554220845 -0.4701007591198291 -0.4798290421511865
Ni 1.7117242927488008 6.507561746038539 8.384147557874849 -0.9222554752841987 1.050401570835533 0.2145819558480756
P 1.5505443697174193 0.3666938278829392 0.9150328397750839 -0.1263005577021631 0.012687108549365245 1.8236965849262075
Ni 7.486721666148594 0.9708714616004165 11.8888109841986 -0.08846111825688636 -0.3860657949550964 -0.09719258459261326
P 5.424564314398347 4.681968496449278 8.01852084584701 -0.980900024400285 -0.25944693468156604 0.23164353931605267
P 0.33215024000703325 4.928925620969664 7.730240100220183 -0.19486108038038052 -0.3810390311644663 -0.22546414997821815
P 8.112175791402725 8.211043936309636 11.355006442558759 -0.26675812363099866 0.426156235218079 -0.7858571670264014
Ni 4.773790524502357 0.9661895023751735 5.710361303834198 0.946421531007441 -0.13010681882213077 -0.0770392495731899
