# total energy = -340861.3984051855 ev
CRYSTAL
PRIMVEC
9.39397597634369 0.00000000000000 0.00000000000000
0.00000000000000 9.39397597634369 0.00000000000000
0.00000000000000 0.00000000000000 13.74903339901752
PRIMCOORD
 96 1
Ni 8.669963507694408 7.0731190985758845 7.2650164226858145 -3.0397602459806614 -0.9434727327917621 -1.137904181833892
Ni 5.361433332513411 4.6109767695538055 2.95030874790253 0.867354452370945 -1.4814935527923323 0.9960613055217558
Ni 5.598227286254605 4.190389674822153 9.819091958709631 -1.464559496041155 0.7731644020500814 0.9011485181022545
Ni 8.712311551629242 0.8639076114513903 12.771380956758893 -0.5222992955002552 -0.8105253591970427 -0.8479590785634686
Ni -0.03624102011894131 4.795108093681276 1.1103764211039606 -0.8107361896562681 0.43456554232769673 -1.2610533383912668
Ni 1.145539012774872 7.742731103837363 2.422840751513171 1.419659293094355 2.7647236843909546 1.6626521959849558
Ni 8.900623195089231 5.8382245858213935 12.745202763761288 0.06198544056386099 -0.07228193739386261 -0.3964386535489882
Ni 6.831196033923328 4.9263419387943195 0.9422064016458939 0.588359163243806 -0.021986788683736328 -0.17491009117975037
Ni 5.8645371126762 7.472306715915446 7.771819550608481 -0.26430657676671254 -0.8388085224124522 -0.6789262721001017
Ni 2.3257511910695894 0.8380553894219632 2.461723357691224 2.526235611349243 0.05465034035502846 1.2393768818590978
Ni 0.13645877457989194 0.706427936713341 2.4585613453601542 -1.7253511176760736 0.6223334633067218 1.0374480959986585
Ni 7.561718579751232 5.463414336274843 5.661646018420544 -0.0007924139943083127 1.0940614736173286 1.6902717574744375
Ni 1.6143265985068838 4.9746833394351 9.376717415375927 -0.18262725731835 -1.6466910446700092 -0.2897959792870687
Ni 4.513533056213963 1.061707170699797 4.090708316392409 1.4583394832733725 -0.4694011619496432 -3.893534131453695
Ni 6.930133389451644 0.11225143775299135 1.8546479902466426 -0.10807503583307194 0.7597586701671367 -0.01843223856325858
Ni 4.9215416170439426 2.3054132329686774 11.811093030054044 0.6450365613311924 0.438551009338006 -1.0246308896293321
Ni 3.400647504112888 3.014930848397672 2.3697835749062657 -0.3933541010863935 0.9111436816417534 0.11471902351215081
Ni 6.714663761294316 0.2629589951723582 7.436137090014317 0.1762288099911739 -0.5420487102130407 -1.3084703942226499
Ni 1.9250981134696397 1.789730918904217 8.146728436903329 -0.6755612122826107 1.0411072900178004 0.3176189150366079
Ni 7.835149040002153 2.010949660390764 6.009152676641321 -0.4315776633439664 -0.0750103920686192 1.366611521339756
Ni 8.528142651597658 2.3104953739998986 0.9470884509877155 -1.687551530329797 0.34305612416278985 0.05338947136473386
Ni 8.85726999571939 3.781366564581136 10.890925835567758 -1.6635680229310057 0.5904996066255765 0.20411448065784846
Ni 5.967579635728811 7.31000699207736 0.9201268003893658 0.36650278522150426 0.48993990533294335 -0.21272973313068522
Ni 9.522015921398294 8.180706448197093 5.203018957160563 0.9936670942579662 0.29662045840806983 1.9903943154984947
P 1.3233951609155485 4.718650522788287 11.576067022601347 0.9783021817661215 1.4165189476931606 0.09922735563445491
P 8.034667696863707 6.56012346165547 1.8271912771116101 -1.5468139712666973 0.3145194501756777 -1.130588364898769
P 3.676539186083179 10.170763905901284 8.5300928410211 0.6226684780486372 -1.5249135716491802 0.3617477870350222
P 3.4874478426128532 2.763867445069741 10.140063452843737 -0.32342883685016555 0.25528534710470874 0.3269383926653209
P 7.1386138994440405 8.291329909904407 12.535351672666387 1.6923016434202727 1.434327179519175 0.9471694649170591
P 7.261299226371482 3.028016657004864 9.42251492730829 1.2276889039982084 -0.9401891769444841 0.08136307375952438
P 9.313328743933278 9.292342601486425 10.632842313954 -0.5687948679586333 1.000489002275806 -0.32417522809788685
P 7.60393510802167 3.795335406934972 12.892042821249873 0.2187710542287587 0.16100710794541304 0.26916981839628484
Ni 4.3492512034339414 5.190012057952007 7.101760392088065 0.43852684096828987 1.3534312752040563 -0.8091171659956066
Ni 5.184497794023493 7.801762849198162 12.24095667611348 -3.135013190348401 0.656472828192592 0.48920894070418974
Ni 3.5751969726916606 1.3932769485888434 0.5919416720632563 1.9510289263269949 -1.1386505730816132 -0.4545324723679268
Ni 5.36210030481141 2.860803883704064 0.5259114145614967 1.7057551978220171 0.560784596059647 1.213785663653555
Ni 9.34303249613424 6.367002102469075 10.359085882734904 0.379016858528115 1.5156054068743767 0.27921023335142237
Ni 6.7680027571820665 6.530297587766142 11.334455837952923 1.739443334103082 -1.206000106170865 -1.3342544451652893
Ni 1.9822792455528964 9.056328347755567 7.081934405680686 0.19023489446227884 -1.7809211416318942 0.33807152646400485
Ni 7.346465013042551 8.315134245159701 9.701978198964477 1.608474938611604 0.17576652564277473 -0.37272279798928715
Ni 2.7773853765742267 6.839932431629493 8.624438421066861 0.486396153845743 1.109143821871748 -0.34150600606685055
Ni 1.5288789925549695 0.5276558759099214 0.3877739364653771 -1.9744442199271417 0.07958489881317908 -1.4905407505962653
Ni 6.231118239222104 7.276771104889819 3.5371588849585374 -0.9691842786252535 -0.6747639131922959 0.5320178083395999
Ni 2.4442749866165663 6.715236793832032 11.146658044981672 0.1425224188776642 -0.14579620453292955 0.0017336948616550787
Ni 2.5637099978382722 5.604370946577006 13.432172957927556 0.36971923527627293 0.16352601771252484 -0.12567063742764809
Ni 5.5371664420717295 4.977351228627091 12.574096187396826 -0.4810873400383199 -0.7135245789002614 0.33244518141616297
Ni 0.7228213642800391 2.9571766837766993 12.764506445101503 -0.02562258566411071 0.44153965965268477 0.8589171202368692
Ni 4.1500425477813145 6.463459448325962 2.3639405218167657 -0.22269327210130035 0.5117276906319962 -0.870711798878952
Ni 1.2971483918929398 6.154360061096216 6.325311636856212 1.7115921162187686 1.268767419206073 0.5456500544110537
Ni 8.423099211651055 8.112543758136946 3.2874350626122184 -1.0503059257979332 0.040051102384614894 -0.6258571601892641
Ni 4.518286408084199 3.249902370789408 4.955124141946921 1.5331398162137144 1.2578960237092078 0.5541948586572714
Ni 7.3806402978329055 3.5092982308542946 4.360120973096096 -1.1508699979659405 -1.1940089952472597 0.3131827336421251
Ni 6.0496641982626524 0.8681715371705605 13.359468280457806 0.20982310100685153 -1.6641280091995339 -0.041015780290729366
Ni 9.026079744944973 0.005667385737773734 8.045054616158017 0.2368250835169921 1.0774516329747894 0.16479768533609682
Ni 8.95255309457276 2.4509822855006544 8.133447233594751 -0.17983401084392903 1.1567202860991306 0.12433237823219875
Ni 0.2980417380470305 4.252746887696913 5.473463072432139 -1.0844234363069323 -0.9264954815074754 -0.8430966082648447
P 5.3831146291863465 1.760816260689618 6.310572488468069 1.397217162040755 -0.44384799607088726 0.14600909187468403
P 3.3962699112837766 9.14313808023156 12.450396311058348 -0.12790852561923133 -0.5211065607437347 -0.17216800965823897
P 0.7797779803362231 6.243508893603215 4.117285753371209 0.47360465850802946 -0.4732966403493075 0.5262981322470033
P 4.763187363137674 9.189572503738631 1.8645060286905675 -0.6304368091401465 -0.26716127260668826 0.08097612273375088
P 4.542466502380618 4.806634502267798 0.9439142264878088 -1.064553951076515 0.8087155596818136 -1.0086967348975788
P 1.2043265147589397 2.874951211602435 1.1271935169895275 1.6318745484824668 -0.9862219508338306 0.2093299634205169
P 6.712512540783874 2.3369018406149853 2.7343666027509865 -0.7579385862392625 -0.5127957268851943 -1.6554075986074006
P 1.1332516921300715 6.964496553762562 0.4443547934804359 -0.015458243536599185 -0.8910623375108462 -0.9517635120456448
Ni 8.95714674885052 8.315810611433728 0.8248540349096254 -2.1791932488451953 0.8945994041298271 -1.5871383819173568
Ni 3.2911795014570324 1.1518893405698911 5.804993395621867 -1.6458731767544044 0.30997039735241455 2.4051639061461865
Ni 3.2538290527691687 7.868817050086988 3.975959020413537 0.036982747871936304 0.42303722997312304 0.629004190458678
Ni 0.8241776686355996 8.28945111469878 12.31272665296843 0.7971828764518658 -0.38740919635686827 -0.07728684680762174
Ni 3.393573840163702 3.4840096473865563 13.042745681681225 0.10822081738231686 2.5444099682654246 1.492761412396668
Ni 6.58399355474296 3.730902125357995 7.235249730845464 -0.5020284610663611 -0.4636799431951498 0.06912642248401643
Ni 6.769862764435636 1.0066960470790394 11.097971885420657 0.8771187308465602 -0.62708871860352 -0.4209353531387718
Ni 4.248942327405518 3.1101951592989874 8.093876988371438 -1.295026095792286 -0.3569125704299079 -0.7588148181966285
Ni 2.359729202363353 3.8289470531636383 6.729244151487585 -0.42447859040534 0.6010357302702101 2.1683079693912592
Ni 2.86510632472495 5.220157327026292 4.235870609762369 1.0419629531498764 1.7347942653668447 0.7996889307031712
Ni 0.6501946568113232 1.4694245182729042 5.886318924892636 2.352450377802555 -1.9873437015976292 2.883504536677305
Ni 7.060390261057762 0.7564912531600798 4.225710085290338 -0.20763740620944238 -0.9550902624260326 -0.022573771535457896
Ni 8.279418348300732 5.27954604347616 3.502277173170867 0.7398498470583516 1.576135860159266 -1.2411440010618495
Ni 0.9012148478495249 2.0321800462143482 10.491007366893209 0.38950901630869045 -1.2957789147979102 -0.6609090095870747
Ni 5.712082275715599 1.584181329432599 8.951816606852155 0.3905873369745338 -0.2710528943516106 1.0770860221052547
Ni 7.813730774658005 5.148772503188496 9.105091537920012 -0.2637810432805457 0.33137508828043577 -1.2801190967734664
Ni 2.525993184085311 9.369081991660257 10.356597418485052 -0.538546353486737 -0.5617153354040326 -0.09610552217602158
Ni 0.8016546717105436 3.871032065769682 2.9758274837829584 0.28931209767211463 -0.9751762345426302 1.3554747879966462
Ni 4.906436103590702 8.623942419132577 5.564178820140632 0.9192470274751783 -0.1482950596953833 0.7157529540101479
Ni 1.888264333463323 5.72023624690802 2.217898012892971 1.4812762945752038 -1.194785211291652 -1.3776729213602403
Ni 3.1621062708304604 7.947707660771264 0.5867524397053147 0.3960979823801178 0.5303231942459963 -0.028513791168976697
Ni 5.097988668780399 8.681752947609718 9.84729173534849 -1.5169328674365488 -0.03393367663296736 -0.04200462656655991
Ni 2.666508277514152 1.7493462159592654 12.157349350065477 -1.3019822153951446 -2.6127997696937326 -1.8754351509510798
Ni 2.3141120547707303 3.1734917697765597 4.707544964327826 -1.3940392785334057 -3.063410795520066 -1.907031437700122
P 1.6647628558019396 -0.016245002745453537 4.28362112931098 0.126988070687491 0.4575085242771153 0.6617908979713958
P 7.3258734175888796 7.830348718251776 5.453430418552141 -1.1803628652187348 0.46319246203577 0.3267123926974438
P 3.479012052139588 7.193315021855869 6.519915365459848 0.3894879332627679 0.1929039566540097 -0.5499180856587884
P 5.5684014123652785 5.342626592505086 5.008139985059303 -0.8051442973907875 -0.2999238117496899 0.2204515272549752
P 0.6421853528497354 7.640411916938918 8.552077563119742 3.0258811740057245 -0.4481751626913314 2.0202731053357983
P 0.16102590068867015 4.649369949580793 7.57992504469136 0.05353113914892071 0.056140808857625894 0.8007590238388984
P 5.362194244571691 6.381976100257922 9.569230984313302 0.016734282035545372 0.48125471885411963 0.13484356217616777
P 9.453815655434035 2.3451121756635755 4.26504642051055 -1.9467598666379955 0.6189861441010437 -2.4080718238216012
