# total energy = -340892.2265587084 ev
CRYSTAL
PRIMVEC
9.05461819027102 0.00000000000000 0.00000000000000
0.00000000000000 9.05461819027102 0.00000000000000
0.00000000000000 0.00000000000000 13.25234897629324
PRIMCOORD
 96 1
Ni 6.082005280898455 2.054538185478477 11.190668059795001 1.7902671016231684 0.05501080901824074 1.3257518070109169
Ni 4.474801462293245 0.4781608151774538 6.1186493215173545 0.05017430686154585 -0.8749998847313447 -0.6574318496717517
Ni 2.7421006328212334 1.6658868003821032 4.827300472549223 0.814576646448281 -0.22958357146323044 -1.4384810537865484
Ni 3.3657374743400634 4.523524363842615 5.266815270982045 2.0139746739215965 -0.39519064007450005 -1.6903599463128696
Ni 5.029532657874387 4.299721361130151 2.6806188685004053 -0.11566801768898144 1.084394639951526 -0.09976985840148624
Ni 7.251889140568253 5.916631730648002 2.583319750219563 -0.02910771599923374 1.0873658067647078 -0.6269581065629267
Ni 5.118992287554329 4.705359210323648 11.296646935263212 -0.17173606432714295 0.06300848251173666 0.489195570967751
Ni 5.689306481382351 7.890303119297373 12.447322327483313 -0.8160614585239236 -0.15047175563172796 -0.04075224221669756
Ni 1.9712900240131537 6.611419763464908 0.5218339560514685 0.04616827102594629 -0.13568971222654697 0.2074139773447267
Ni 2.671682865612639 1.777747555955586 0.1870448739018668 0.1745136270722801 -0.779178212344329 0.6044542690334558
Ni 0.2996770829620632 9.184914347270936 4.935254160288 1.4143278535791126 0.3471711747724279 0.36745717871497363
Ni 8.78016385067953 2.194676514279739 1.2907947063227452 -0.9033514392908442 0.7773280465094677 -0.0935408467726389
Ni 6.7986873809791355 0.8478925751507262 4.854256071492259 -0.43168076458073396 0.059212505804414145 -0.05917342503636261
Ni 1.1179918416843988 7.422867499601285 2.744243860993828 -1.6225419582276315 -0.22611541040897187 -0.03968086352938972
Ni 7.415904498060407 3.8687396350668006 3.715282868077661 1.5066307141795923 -1.4997504421199912 0.8877769818913549
Ni 7.491610162407977 3.9344580553316812 12.672784136284578 0.9015650368143828 -1.2562975688738365 -0.4958002207684623
Ni 7.838981542270458 -0.25310736966551667 6.7907817936639985 0.8200497537477102 0.7636577481112267 1.5939317506901065
Ni 6.896776061983469 0.661019738998244 0.40481931169116164 -0.03881054510929445 -0.004028661543418868 -0.44903853913289116
Ni 1.9551546940445652 6.454313079803301 9.418365045876516 -0.8231296782246146 -0.1195418988220909 -0.4490117996600138
Ni 0.19998573450293705 4.856363081191299 1.526869433337357 -0.39569483340442824 -0.7108992254622725 -1.6534525317635589
Ni 6.16658447126691 2.134019625694118 7.006888370746102 1.3942236266300696 0.217002135253794 -0.8584838893541926
Ni 3.3853316685331194 4.246969154397829 0.5961433982435083 0.13146179018812842 0.7645463213637672 -1.3518991548302457
Ni 5.940155629221736 5.666950628580754 4.621889210707802 0.4605100301076005 0.1623119427997656 1.6307144667360947
Ni 5.396163211049543 2.897296792002834 9.0998579785134 -0.4772929059928941 0.5200675779562591 0.0331965413566267
P 0.0836456592125851 5.608666050012961 12.353349875998463 0.8341761658467634 -0.9041117144956364 0.0749563989022322
P 3.9274045076069166 6.322722310760931 12.614831862211648 0.18436506594506313 -1.0039795319275677 1.5937754276179004
P 2.363345945623663 8.700510372714504 1.5200051271369153 0.5329704020608563 -0.045037756965928884 -0.6893176426367548
P 6.267851323325663 7.924746887647829 5.779522171697747 -1.3579186215514485 -1.1842786553333733 -0.908639684272977
P 4.7997536070254085 0.9482086922786698 12.693444964523819 -0.5290520408430566 -0.12106219212135924 -1.2698277421497872
P 4.025230604677979 6.156343697869338 8.414884246567961 0.4711739375793498 -0.3078435808173989 -0.9136510214446393
P 4.698704065807983 0.8948697462747625 3.898814550044728 -0.04101372340820034 1.1564662611067953 -0.20284718390965065
P 0.20205109295738996 5.397539513044619 3.552795930169513 0.1159536672502003 1.8097285527818898 1.210092788183
Ni 1.2380108084260624 1.0534686310468209 2.8624011981947843 1.6403543038187038 0.00328098474411693 -0.9605978225078231
Ni 1.9094198165634528 6.402194696358184 4.8364709900532565 -0.09182772073627411 0.7014812745824822 -0.38706415431262375
Ni 6.129849884464124 5.712350485181486 9.172653488510855 -0.9150728414928305 -0.9071278756141409 0.5104827624813015
Ni 8.715142636030576 1.9687366216275524 10.058864303220544 -0.430630983159981 1.1234705229070652 -0.23095679766167318
Ni 2.423206027791082 5.508422369832127 7.1310760837939045 -1.1419863223230657 -0.4230068909558199 0.7556197082980987
Ni 0.9102155135198603 8.932362931174485 8.838375992300213 -1.371858114450676 -0.7576740197239661 0.11249887593238045
Ni 1.42689920263186 1.0244033060192281 11.346316949896035 0.338225792653682 -0.1483534237371445 0.297016665405224
Ni 4.4531337604891865 6.833185477039923 1.8060966606686357 -0.3576018831874486 0.03415170618104441 -1.4193355912063492
Ni 5.75685393456174 7.803405946621421 7.968200001294999 -2.008609552954941 0.8105065901439654 -0.02809058758862904
Ni 5.332699390763438 2.9897625549878106 4.68159083705342 -0.5186087340225456 -0.33816897127381756 0.8492014356110019
Ni 0.6030493556885379 7.312328718312546 6.831281290792788 0.8732602763324188 0.461204999292096 0.3178343734815236
Ni 5.089012446069481 4.556809141039322 7.0863363088737055 0.2490607063512356 0.33276734064227204 0.07221431738072079
Ni 8.163372300662525 7.12679958752894 9.117351501240288 0.3805358662758027 0.5162155512000206 0.18512431270859087
Ni 4.657550825231532 0.3726056958498325 10.266925851864325 -1.1270104177395237 -0.7980987033979158 1.2928661120264897
Ni 8.119185762925873 7.296166224488792 4.769547400080845 -0.3828349467226245 -1.5750308000205455 -0.8065455486136884
Ni 7.106689280087732 6.270314179527378 7.099667423527327 1.4840399733632699 -1.8814458759215338 -2.042247038503728
Ni 2.419176722608129 5.226869011036802 2.550361844746686 -0.09384809360041256 -0.20762069403889405 0.902021150515195
Ni 2.211871234599801 5.2378613177606335 11.697888767229015 0.3954786036285641 -0.37670080880042867 -0.9569244874212939
Ni 1.1391705940954702 3.380315409945803 3.9006571648868205 -0.38514225469956254 0.1879386422289344 0.009277311536867894
Ni 3.652008289315879 2.5511477856228213 2.4332901562905307 -1.2475108238201418 -0.8790108056629508 1.1326357343461009
Ni 1.2038748971008213 3.4776344483871005 8.249096900257147 0.2505262351531686 -0.22412409101055597 -0.20823390214286075
Ni 3.636017833241509 2.601627283139591 7.06269379479908 0.9919771081500529 0.8285472496957602 0.087244729351282
Ni 4.060932964984458 7.0479157521269515 6.136341140386953 0.8344219633089823 -0.5842459124063809 -0.9511950411366844
Ni 1.09827993745229 7.491148376870156 11.586382952696368 -0.9724300392560608 -0.4092111227233082 -0.22452338333150365
P 0.2911204685847813 5.538891160709962 8.101214156348066 -0.051349301006253505 0.592200134256451 -0.13774710897620793
P 8.577512436522973 1.4208688267850138 7.940702030710483 -0.09443481934181801 1.0386963665834628 -0.4554542128512479
P 1.7286986881442248 3.0289147249003685 10.52840874353935 0.9312473943701638 0.766653597514757 -1.1058641226792116
P 4.0601814316582 5.996846594953125 3.7797155325313527 -1.0410975198257877 1.1653401665576575 0.12894468019322955
P 6.940048083262866 3.9532373338697586 10.310924053538493 0.08285842735812826 -0.018107251123672043 0.5283786689251159
P 6.132032047495791 7.701378506618021 10.151750200498755 2.178128812136423 0.2536879207106018 1.1227056197165826
P 2.3413160590840576 8.526426279574162 5.810001828117647 -0.2350978164132403 -0.3473511519937179 -0.11810979436125466
P 6.810775296527994 3.82960557439102 1.6328356323398232 1.1799664011112647 -0.45662200790710394 -1.1937737393080021
Ni 5.181641192185455 2.6838432181086067 0.5540638702058972 0.6104176857057423 1.0067884621312726 -0.44221740244599966
Ni 1.5701251563036547 1.3517187061508316 6.761613245986775 -1.5510935724786576 -1.2896064674386112 1.0137988320108346
Ni 6.801711623520948 0.5632461587138355 9.067495866930496 0.6510249177041434 0.6558598771989413 0.3197516451088945
Ni 2.5549054522541144 1.5298592683292918 8.84950774014723 1.2924567924032127 0.24671560315782676 2.657895633591106
Ni 6.257302692902876 1.6975417462688522 2.5573981886965123 1.9941280715093141 1.5131993685360456 0.9089561870721313
Ni 4.079359113405378 6.908782485966831 10.518641526683506 0.42420348236708233 0.01664377920426811 0.20302150470398583
Ni 8.263652199316915 7.063408204189946 0.4007709918095926 0.4908061099879806 0.02242130511799364 -0.14276693078830252
Ni 7.817875226806496 3.7674094006793273 8.256412126453343 -0.9344165361267648 -0.3949132180433973 -1.134907561099413
Ni 2.9362497603108415 8.523420146269128 12.594595695574837 1.8703734201574564 0.22340778166982167 0.005134493013087931
Ni 0.05570672871254152 4.622916909894915 10.082878056649106 0.0915173885847069 0.5342197010869251 2.1978167774836534
Ni 8.644480394125488 2.618124797843726 5.884600112636286 -0.26249703436179955 -0.2334785356422624 0.1911185826188128
Ni 3.762148667395517 2.858561134536154 11.42435961124972 -0.9622518131714783 -1.1550956060115138 0.43480336937011577
Ni 0.9502640906528952 3.375118058990713 12.559396772050768 -0.7815161164488863 -0.08189323523138155 0.25246921781215226
Ni 3.2383480482300318 8.29633937169997 8.056394700786047 -0.29801013966674483 0.02981039849321318 -0.07750307658348589
Ni 5.8354118037017395 7.892530555420984 3.5219712927890043 -0.39887066002924854 0.4232364904681227 0.4337875265110916
Ni 3.2165988548604747 8.246077185024529 3.583568050763368 0.5277690603655749 0.26541832177365254 0.7090441745314047
Ni 3.4401845467316106 4.29142733068614 9.492842903970587 -0.44264677667393443 0.17467174991669918 -0.5827173915769964
Ni 7.14819565078134 6.0901272735930805 11.472797292319845 0.9036309182044759 0.29175875944039426 -0.5856970430306107
Ni 0.48990737161305997 0.05725054114780773 0.3758590202368774 0.32055717172932535 -0.039419896558519206 -0.025126105643666408
Ni 4.6137626907039815 0.4411265205060031 1.6711475336659136 -1.4342844992066974 -1.9290369954369357 -0.905572358201563
Ni 5.920932674382614 5.3490882500469095 0.355584824202833 -1.0975553457032001 1.5334149242519721 0.2745241407296627
Ni 8.204969217540022 8.751587475044925 11.017870627927689 -0.865813076025754 -0.7617949838708752 0.0538152460482428
Ni 0.02721818287630639 5.153336455102509 5.845359207463519 -0.039206494996132484 -1.094640228938934 -0.11166506717717543
Ni 8.03890751629203 8.813792703375006 2.608340377212942 0.1771945163385529 -0.04836296468441993 -0.16377335783664052
P 8.478201382036168 1.6860423809152563 3.698691185342284 -1.1533840226370458 0.8893972911035972 -0.11113284882278925
P 1.7057452305289764 3.1846451065669004 1.6118832453884684 0.11652985146864446 0.016407494823745934 -0.05675427407190871
P 4.762430470027359 0.9411098714619619 8.23663955627803 -0.2388292584312145 0.8097589133446634 -0.8337485913910414
P 8.353682269955343 1.447063837783402 12.202484540792158 0.3220568962033034 1.028363617198887 1.2793377385227516
P 6.5233998181087625 7.730824125617937 1.3498317236786352 -1.1708806367599125 -0.1829617578396333 0.6406065505842967
P 1.8769227911665587 3.4114180241108434 6.125155970291443 -1.7148067665013242 -0.26383863599135854 -0.48847129120721683
P 7.006228289065569 4.170394246684946 5.9723303102039935 -0.8173824913281923 -0.15669253973045916 0.6442906843041033
P 2.5546519229392324 8.492199822065034 10.212711324262234 -0.8763725967091551 0.5467872533392906 0.333878828538896
