# total energy = -340858.45521932153 ev
CRYSTAL
PRIMVEC
9.40877404274892 0.00000000000000 0.00000000000000
0.00000000000000 9.40877404274892 0.00000000000000
0.00000000000000 0.00000000000000 13.77069186501263
PRIMCOORD
 96 1
Ni 5.142130177333996 0.6072940183177558 9.480680494422526 5.450621716732258 -2.364187720844141 -1.2493699885160676
Ni 3.5196623816433523 6.765106046817378 7.543199420215284 1.8134990755679155 -1.076444531866514 0.32123388608137576
Ni 1.194876655232072 7.622386484323048 3.933115898380297 0.1361882491295203 -0.5929907484785465 0.9505589502145823
Ni 8.288245416027777 7.506667973640041 4.693533949055292 0.422703243672472 0.6502630998374543 0.43889270894814086
Ni 0.7073459795139534 1.138010025541195 8.914003212324584 0.6377986488218564 0.7013275226134373 0.1286500317709462
Ni 2.5117004294951597 0.9919105838072535 7.254799799664207 -0.11693042934117281 1.4083317838966778 -0.24380022928324468
Ni 5.638301871038234 0.7331711822233379 3.3359918238138433 -1.1764396189049287 -0.5416257637430092 -5.21485361372487
Ni 7.736985350907245 3.5941516449230804 1.0721391991901306 0.2644878395395832 3.653312620660644 0.019130293071547698
Ni 6.049719329094651 0.9579543186592759 5.298631959535546 1.5068798540759212 0.2901410213313132 3.2831845799817265
Ni 7.14021504624092 2.306400982133323 12.742571637320347 -0.8818379906991007 0.009039484494448947 -1.0782535600507945
Ni 5.282603172252063 6.245064293628403 12.160760342340573 0.2176325697489413 -1.4641720307947494 0.09218124742095093
Ni 9.024519611896391 4.2111790398813405 12.916358278126317 0.06377312859190307 -0.2221289149573981 -0.42089292993661065
Ni 4.364240974330579 2.351892404131237 8.18623548897475 -0.5951134512485041 2.3701624503703376 -0.5134297609247674
Ni 8.821657036984908 3.2186662945419537 8.61586739250082 -1.088917467522544 0.38210475342481937 -1.407144705567112
Ni 6.39170944425084 4.401226864687104 7.456802412637612 1.8619504862010838 -0.15840232333271428 2.127271877385556
Ni 2.019593326132825 4.887886287938416 1.0882921822896174 -0.09431166350039241 -0.1286312627178688 0.3991285416763255
Ni 3.3795186938131714 0.3366045329531679 1.795752948845634 -0.7477241076001059 0.03224523318695092 -0.35465282786145375
Ni 0.6457730810984936 8.766070000549815 13.111268557304058 0.30651149226953667 -1.2119740643661128 1.2156198886488159
Ni 0.8925087688902813 4.47024963030793 10.417596794552882 -0.25225093115375913 0.13390253841913716 1.286798822786487
Ni 7.036511539878767 5.464719400626752 4.97515831149247 -0.7462454661720503 -0.4121156979646129 0.48613004466854987
Ni 4.035677179586183 4.427976008997356 2.513825871528113 -1.7288223640541258 0.2837672565944855 0.0726190090183072
Ni 1.4832085326107836 2.399312624786767 4.9651605483042625 -1.4937145203385567 1.764301273687026 -0.7608953548747412
Ni 2.4683259816336536 7.523490861444027 1.1719916943788091 1.8468917920957484 0.1277552878708187 -0.3259965975773418
Ni 5.638527681612784 7.491510438823362 8.70959101234525 0.2732643001806326 0.8182227278413005 0.5688727723844204
P 8.27077332282196 4.994318338743049 9.647843358375026 -1.2134208241149684 -0.008377168320101701 0.20486755677378912
P 3.3766584265355357 4.6746646529194456 8.84364816431391 0.5135452034567091 1.3285468532575506 1.0315080763651396
P 9.036628703956644 1.4514445117907304 4.817937698961934 -0.9715923738461137 -2.055206941098506 -2.827439575362937
P 6.308761693199421 2.310089221517642 0.9893720965983523 -3.071918318770445 -2.67205521292094 0.9350204882593509
P 3.1056669195274873 4.909404153938256 12.861082672108624 0.7202333583790047 -0.3104625064974847 0.9966601154480189
P 3.704601242199918 8.270124117420128 9.706602092505154 0.00790897043443154 -0.10371855863658912 -1.3317239654339517
P 5.5842108296595345 5.713722602937981 3.170852787135749 0.7603669931750969 0.6578941340201508 -0.9218402421236511
P 1.4101964468395711 2.27006429717863 10.979193338723444 0.014200202759781996 -0.11617298234985798 -0.40562391959268207
Ni 5.4727074497014625 7.729618280912547 6.190146221020414 2.018785465046678 -0.2942303609093384 -0.051353414771311556
Ni 7.699067991930701 1.0448819810871408 9.187764662380447 0.23801061918466104 1.9211658202189754 1.1319361371759151
Ni 0.15728365131593106 0.27458754040775957 6.525861624836291 0.3477347605853818 0.6791982948145658 0.12326639886152962
Ni 8.59393648132503 5.534024429465766 3.179707384290297 -1.2830007891966355 -0.7712252760458396 -0.68816038910386
Ni 0.11372008709823901 9.047147713221104 10.546560036310648 0.3795313362706883 -0.6567744185934109 1.0412255607632197
Ni 1.7054343642899412 2.969992399318611 13.283911091198975 0.39884417766668734 1.0589340337865762 -1.55020217101264
Ni 1.8963383875242064 8.41166971256731 8.190518362872053 -0.03802790130699902 1.0524628242399356 2.270245524868026
Ni 2.032718565778552 2.7696701933708168 2.624665932923444 0.4036230871125694 -0.03170941528813894 -0.7446786359055626
Ni 5.443352075009945 0.3133065269239571 0.5678486744534219 2.391782342632958 1.1308611589441815 -0.029327545319523685
Ni 2.562893568500465 8.340736965836745 6.05080039722031 -1.1512348375045272 0.5837453186208785 -0.5741877568394306
Ni 3.544369822008714 4.171097662898691 4.912928680656027 -1.985436200162271 0.3619509041847638 -0.7266114939912067
Ni 1.32707933785724 5.067941994820335 3.9044313692706716 2.5420062439199382 -0.2483163719860433 -2.4679625866399624
Ni 2.6487109956034582 8.46776482279514 11.592429938661446 -0.4484852377325824 -0.9958869847274203 0.16875487021163196
Ni 7.804634435532892 8.734390658695219 2.2738165162257378 -0.28626996841168123 -0.2554509261482955 1.044417071117324
Ni 4.770897592773564 0.21448899686863346 7.128577333755042 -0.8264374024416089 0.08500581271843426 0.41688329455658535
Ni 3.3310164641545885 1.2123863835336475 10.065136595756718 -5.679060118847452 0.5599908965137581 1.614752801200516
Ni 1.2371596853165858 6.102399054382411 12.948884409635477 -0.07071562134800725 0.8339231692956928 -0.6194911087619202
Ni 3.746780775771097 3.3193025405998 11.219244092631154 -2.3580067888444103 0.4494738268980969 -1.5327487514228828
Ni 7.23802866011689 9.188458089019795 12.225633838654042 0.4929049014985381 0.001872534432364517 0.48574926429036336
Ni 7.211966356304227 6.242740326465324 1.2458486880497965 2.5823681926767525 1.3285010876212797 0.571697386317409
Ni 9.079899655304814 5.378986652489214 6.80762429625038 1.366436943435105 -1.5931905016487078 1.3369926700320587
Ni 1.9921949764207414 5.6155232293304875 5.984136411226139 -0.312234767906559 0.6519394590986126 1.4041758527467754
Ni 0.5485748010381734 6.771315837617506 1.898524045710373 -1.597751638656829 0.1021509570391531 -1.2707309706903471
Ni 1.6470717395426693 3.387948955263043 8.491146566912413 1.5275666930013112 -0.19171225033875372 -0.3892747888106973
P 7.076489420348082 5.096431762309411 13.102193794839327 -0.9363798305007228 0.2439159289255025 -0.38304911961595967
P 8.073320792925742 8.173091431781145 0.2714083156935724 0.38577603162881946 -0.09066326811452773 -0.22881429739737366
P 0.1668222663358866 3.6464832455750757 1.8152112342300983 2.840280178771031 0.9085442963456933 0.9181494235356252
P 6.309354445957616 1.911552374984522 7.320320619624718 0.511371592844158 0.42566052652858305 0.06722380614466486
P 1.6152700836268576 1.370895998093907 0.7929742902607609 -0.2350826469045887 -1.6977243570977407 0.699367313563273
P 4.135015014840366 8.318842748879321 13.652497928527595 -1.4083605802520842 -1.0182334707434206 -1.8435830394374897
P 2.548611049660168 3.0771771520384115 6.583464961526638 1.3037256804488129 0.6689082257424673 0.7418833325486126
P 1.0474129412768902 7.051330358833622 10.84367594503936 -0.7789437277360197 0.1223369450687248 -0.16524865683058637
Ni 8.15513008233047 6.979315603100005 10.940222197065667 0.4943097522658648 -2.2488734869501528 0.6411431398140571
Ni 5.428147496323568 5.212752434524553 9.595790257431643 -1.2212616603156257 1.126823241429382 -0.6103467232584908
Ni 5.070077786504622 3.756641170859786 12.929921966637629 1.3520241104438844 -0.09993955121013111 0.9061667972524524
Ni 2.895616041326158 5.934602979943777 10.957655714298332 1.062312720450822 -0.25954052283663687 -1.1454092319616853
Ni 5.277080221949524 5.50461260213061 0.6801856717825413 -2.5385995322312342 -1.1129156302093544 0.06037772975710892
Ni 2.9857332781195436 0.8575006028158577 4.765375583348419 1.4514957208786616 -1.3505642380689065 -0.41744096683226817
Ni 5.222057711950806 7.576038863896632 1.6594508634149867 -0.2666802192052117 0.6674123579232312 1.6569461467391142
Ni 5.477082529583372 3.5134525908432237 5.626525849575443 1.6236477896973003 -2.7546866118699267 -0.5047898258615822
Ni 0.727100641277515 0.5948226884608302 3.1755487062089984 0.14268105594271557 -0.012757556775984481 -0.6378261596256822
Ni 8.367476701373057 2.567522685278743 6.301950681744552 -1.3432008557252997 1.9851294675551294 1.3550559552916728
Ni 8.478330875929299 1.32433197586688 0.6877992516544569 0.7997341821188099 -1.410255740392268 0.551586731610463
Ni 6.232588259384507 3.440750994612018 10.582693491748245 1.0382183985057796 0.1643557127026718 0.1232921098931425
Ni 7.715665069160136 1.895726817218133 2.9928811236814497 1.3149318335772773 -0.5208301671538965 0.3113690774721541
Ni 8.463521465748384 2.733719268147646 10.799058598140434 0.539422071223471 1.0274963841025853 -0.10298219469119684
Ni 1.5062506199888377 6.20065488063354 8.566210706279849 -0.8123428720217559 -1.7043287497881359 1.0019313911492873
Ni 7.583095444351324 6.849897917560956 7.095018118867315 -2.0916153045242103 0.9728010494422343 -0.030778418833437314
Ni 7.289372339505229 9.244515564151866 7.45173484699375 -2.381310753677673 0.11028592744146168 -2.8155700776188604
Ni 9.252061400851417 1.1930701706356708 12.2117944730663 1.194737388772852 1.758982175466958 0.5445236541160944
Ni 4.168472614969546 2.400037100380115 1.1396951369537753 -0.19735710732935688 0.9956980086450659 0.07149080895113495
Ni 8.877799191082438 8.213605612365017 8.507932760498035 1.2992650735742979 -1.1466163648959091 1.0505301259935973
Ni 6.05316294035654 3.5556791682841 3.2428741290111227 0.590612220944041 -0.30383086011357996 -0.08440340324774497
Ni 5.0784610040847955 8.36488928853967 11.47726560476348 -0.0034481064496005133 1.1606255346908076 -0.049379835984708506
Ni 3.303241763484921 0.9873943723162506 12.769039459289804 0.24743602626361902 0.65130208262493 0.4398954391810424
Ni 3.8479721394913784 7.057860047947696 4.876684201685941 -0.051360356749847035 -2.4063142177005457 -2.4907862694026974
P 7.250730504935334 8.595328979868091 10.077874193916132 -1.7044745313373808 0.4354584864556113 -0.6929732371114711
P 5.091972003462045 5.505374712819717 6.230989708692171 -0.9112562959602176 1.4459105134814 -0.006437528095227623
P 3.071974100049818 8.470371053176406 3.377385724761066 -0.6221416590108899 -0.8761291132397815 0.7450303628180266
P 5.311601013533877 1.7560535680849312 11.277742203723157 -0.4846359766215266 -1.0729123503435392 1.6934912928529997
P 9.15625185582458 4.467784531535758 4.962585366876997 -1.4836568789922382 -1.1687412218194067 1.0159125359197276
P 0.39631825763816486 7.600172369051679 6.6333145276133685 0.4071971776170729 -2.232010649756543 -0.7991561981281526
P 4.24122125507045 2.2943859778124676 3.737655205927089 -0.2851697933689669 1.587442286311021 -0.41826809071925386
P 6.343705879611055 8.276136323967526 4.154714164837684 -0.13405191951280787 0.09344751572788422 0.3640972611038052
