# total energy = -381164.99615517346 ev
CRYSTAL
PRIMVEC
9.25899426890042 0.00000000000000 0.00000000000000
0.00000000000000 9.25899426890042 0.00000000000000
0.00000000000000 0.00000000000000 13.55147402602386
PRIMCOORD
 96 1
Ni 8.847265088256593 4.818741596584073 4.0151525783865685 -3.5883477857534847 0.3971297660787419 0.8821560361601517
Ni 8.440961912012494 5.583460431923223 7.370876823901855 -0.21456241546404983 -0.9642755284697264 0.4660939519532811
Ni 2.1267816708466603 5.054771872524427 9.667255488487706 -1.4772646023126494 -1.9038250149476825 -1.9556774808425996
Ni 1.7408205044974683 0.7948253803433728 4.442579223622127 0.09021178239940593 0.02299080446821847 0.598588297170982
Ni 6.97502242242626 9.102313337944846 10.626049320096389 -0.28412695392674936 -2.192504878352437 -0.3380324456959533
Ni 7.104676115898438 3.0270336608702166 7.22429028213846 0.048603877050632426 -0.5049237803362853 -2.4671344343117125
Ni 1.4731152099633629 5.943524191956506 3.284822572792831 -0.4122344829306643 1.7513303153486548 0.24185544685204802
Ni 7.52641403519889 7.566514738364497 4.2030166414574195 0.1040592298054595 1.3414195954551607 -2.980509687849461
Ni 1.4168945981828114 1.9135100022443503 12.793959442446543 2.5246656957589617 -0.881456696100282 4.575321012931043
Ni 6.021170115934059 1.5474001191062097 8.986103703811496 0.5181189388703206 -0.05252532359222568 -0.14623766294572235
Ni 5.7901767327487494 5.96014408624934 0.08840580094563319 1.0838865899668562 -0.983491696386861 -0.6808818531645757
Ni 4.029745678885139 0.4059929999439257 5.103322333646378 0.46921964206645644 -1.4913856150950637 -0.2887361705639866
Ni 8.597985191852148 5.951857286588011 0.38597690663905143 -0.35913528911283954 2.0123484511720826 -0.88101318080496
Ni 4.057467107025945 5.263839957834843 11.623451305032237 1.4024035913377009 0.49799028644124554 0.2211174429737482
Ni 7.934170873506484 1.954119950081883 10.26521428585999 1.8334647200565648 1.1659199503205275 -1.229116123363038
Ni 0.9717592009559012 7.906930913055499 12.226613657052194 -3.4804601833408704 -2.040631357277176 2.0018933172770295
Ni 8.919698198592437 3.4189761373660215 8.533986099182789 -0.4690730891862631 -4.114736935052398 -0.9924558475586842
Ni 4.417169766291862 1.1176068749953032 11.176672436364115 -2.384481695206487 -0.6832999756877652 -0.8931040505312231
Ni 0.5166102016801328 8.299169677360425 3.264035205284841 0.3727731916112484 -0.39007003101848303 -1.116071916450149
Ni 2.288517778650131 8.963891377121518 11.111191904649154 1.9872837948939708 3.2255579306071933 -1.517955138053476
Ni 6.640698665810292 4.515916937675193 8.749481778152305 -0.47579986638713534 0.600849582401333 1.757507133583328
Ni 2.8294189511811005 7.857867503664006 6.402989734251393 -0.007268251526639095 2.4168801661418504 -1.907085430866509
Ni 3.0939206337790934 7.0733066441078405 12.74854870620186 0.30857788788026214 -0.19605201536468816 -2.3547582000001253
Ni 5.025180127588549 8.286475596538432 11.826574190272778 -0.04484775244230986 -0.672114648494907 -0.2816900623504826
P 3.2164356428502825 2.555537907625646 3.072715685640125 -0.3799671382565263 -0.7141262170400023 1.1794292976608718
Ni 8.652205860921137 5.58722884249547 11.5769156010123 -1.3193189069013793 1.481444701832268 -0.5361243743088057
P 5.135038091813886 3.0210338327355326 10.13800681861186 -0.9975990823225205 1.3833314051975985 0.3638956866159604
Ni 9.09993377647785 3.295285236052387 12.003733004440356 -1.3405395068430526 1.5345693495713895 0.12021604207098005
P 1.0671638754925947 0.4143760931432194 1.2022470430668997 1.4082914175770456 1.155761521730287 0.8195021087743564
P 7.345826615540148 6.587052054371472 5.897276442651058 0.6283732417428984 -0.23165150973585266 1.0847301689140738
P 3.1711591620191073 4.5098430375882295 6.127136524966483 0.47817376593595073 2.310632927546137 0.6127828435038092
Ni 6.181785885459294 1.077895049579166 4.407264494473214 0.9053113912306925 0.20209950711034871 -0.6520857548684899
Ni 7.7693792976714615 7.765620146093249 8.830085950724044 -0.2946247681342797 -0.2958100466916325 -0.23164225376447206
Ni 4.821000791128615 3.388384421074364 12.796060308193084 1.3288900955295821 0.3092571733354738 0.5334008047300555
Ni 4.850361061213616 8.124563567848297 3.1557994168144368 1.9000565490441856 1.8185541214933196 0.5239825967399493
Ni 3.524195345579821 1.9677769662835158 0.5634727481895047 -0.6674825490395343 0.9128470374861052 0.07862073512769686
Ni 6.362502931034525 1.6486472188789916 11.783182840627129 0.7094362677635008 1.9839796702214023 1.9136887951156396
Ni 4.461251836892522 4.538657027025166 3.759747857427967 -0.6550988306632008 -2.9841349433068736 0.08531897308347887
Ni 1.7110065437047517 5.226729909742542 11.73819153681223 -0.5898329195758552 0.24538737126470642 2.9490362998315276
Ni 3.6688671273767772 6.4224734353992545 2.430904440719248 0.244428864006179 -1.2414684742808038 -1.7135440977388166
Ni 7.5498300311134185 0.8714509631782688 2.2364535292918934 -0.9853246358305418 0.4041889869183684 0.27196794996671225
Ni 8.525709484414897 0.6584876190773247 12.159141515720306 1.0336788587642132 -1.1911393870089486 -1.2071473324014308
Ni 5.81812963574043 1.1943639355454962 6.686391801373043 -0.7266498034283099 -0.7783868267912852 -0.18143246567930044
Ni 4.575646708195012 3.46146566099266 7.5248890788813245 0.6203781393525638 0.48596112319085333 0.03827395587953408
Ni 5.999328149005482 5.051012720946214 5.9489481106622115 -0.21287345779740116 -2.6409883163128067 -0.7080622702341096
Ni 4.187111541504088 5.279913571479612 9.40369266788486 3.4569757270656853 -1.3731822325787384 -2.26919728610917
Ni 8.232375294391897 0.976860906669189 7.7928693655382695 0.4760459209596704 0.21839798716005612 1.3622172489268023
Ni 8.67439041062901 8.630910174640626 0.6403492497627494 0.8036399449311191 -1.406618657860313 -0.8804760773545676
Ni 6.921681357790595 7.944809457652705 1.8420787150630922 -0.9692822376556985 -2.1213161740227533 1.0519923123614205
Ni 0.43266260636235465 2.391653713206054 6.283479268744563 -2.1837901241872584 -0.21090476410680448 -0.5529072501940994
Ni 1.0029342338717637 6.962550557461108 9.934910784454022 -0.6130458673572087 0.3835893083901458 -0.09517709682448124
Ni 2.494928532672502 8.672649719750428 8.682713320367077 -0.1368366813467966 0.28227113166493323 -0.40823821728707754
Ni 0.09612039477559951 9.121960923287126 10.005161549895815 0.3668295724333037 0.4429784489817403 -0.5550160690069861
Ni 3.128632602416328 3.101855591667093 11.290044188825735 -1.5089789026967948 0.13708376436059616 -0.8560354278137
Ni 6.321031896751738 5.803324504278457 3.0186181611918 0.06460822289868874 0.12798205916964409 -0.36336989601947745
Ni 7.430490856996236 4.092873500215806 0.5903386452814758 -2.3323420370884542 -2.0280239529258104 -1.434335407049291
P 2.818428525261549 7.52650662513924 4.089197679583908 -1.7771033105477008 2.032000935295687 -0.10727079476422172
Ni 1.5881026568840926 6.645448529750249 0.8449693143387504 -0.7510719410264162 0.2674196684743975 0.8039096536527381
P 8.615169884781116 6.421612348953999 2.48795558426474 -0.16824244935158766 0.8127527058656648 0.2411633058810298
Ni 7.728861939774278 8.751453017982358 6.17008066520024 -1.295214814764324 -0.4619159093161916 0.4267604444609811
P 1.0023138812714183 1.8426138849183156 10.931824820404225 -0.656454830470463 -0.9652314646250924 -4.447614318909973
P 5.070401054455514 8.348807144382087 6.77041069094489 -0.9839964039374214 0.6135549457831433 0.2061911606812191
P 7.432990785385687 7.431953778053766 12.498943819106787 -0.18769207343576708 -0.3442845972532522 -0.34820835778769066
Ni 9.216856353151895 4.228591834780912 1.884603422867064 1.697473160318883 -0.07574572757274697 -1.2134336796307745
Ni 4.921886790134032 1.5326690595965164 2.358200041858177 2.1001421110482994 -0.3653419321441837 0.8521003544253519
Ni 5.13463995507038 4.107234199964098 1.6393891507433898 0.12881252549073943 -0.5490549663275447 -0.5685945790223691
Ni 3.3294046290713815 5.17759242839877 0.28091232362563684 1.772522633155554 -0.635280510385693 -0.21124877770978456
Ni 2.7765408362471855 6.117945121587933 7.554891923152355 0.363045165690207 -1.623290920578514 1.5794279006469767
Ni 7.171683455729771 3.3617925902058294 2.906641739131254 -0.353517685815746 -0.7323720506240678 0.5662335349893604
Ni 1.3704422251091903 4.112613675498436 4.8866479847362045 2.37625030843563 -1.146123998640523 0.4415964810325491
Ni 3.5897397643536224 1.923389348879701 8.942630875018338 0.7838460501336437 -0.6981085014555074 0.09743272562787736
Ni 5.246433049049034 8.605133135247172 8.97669934357014 -0.8345461475916723 -0.6322813185480529 -0.07762237577016953
Ni 0.620928509774326 2.2376210884397074 2.9353714717224717 0.6761607935398226 0.22747141021623402 -0.8417622057241374
Ni 4.372467343090857 6.359067844247539 4.821261894760402 0.44863564726751765 1.4466455918752117 2.2547322597237747
Ni 1.426949865704827 1.6656282139391911 8.823933349187783 -2.0728557645285206 0.32512833603977553 0.38483757897495013
Ni 1.2829539904724259 4.2610353498795694 7.329165055774157 1.3531422832087276 0.8834138198266528 -0.2604404089430869
Ni 4.737438369962692 7.825192513714473 0.5298709329370673 -0.5443614175066174 0.8383848046114722 2.482803251197221
Ni 0.4645996544872981 6.622615850459927 5.353415169727097 -0.0775365009245826 0.3469875980067121 0.26095540090629255
Ni 8.568439741886445 1.8370214525211723 0.40414953423155614 -0.10950122675663722 1.4343400350349813 2.2394560502909946
Ni 6.530979586495481 4.1531958463538645 11.266071727369702 0.677749221072865 0.570583841538256 0.2765715101769946
Ni 2.459540657470712 4.3125246157082335 2.191774253575976 0.2986685991863501 -1.5293687792070565 0.9196229227573582
Ni 6.477073723223681 9.243031529288855 13.543573154916984 0.5544820508803869 -0.41328015058635925 -0.7724948867868824
Ni 5.976319548828493 6.537627544212614 7.652273392915522 -0.5772535402489477 1.2346645639850928 0.8186050508813837
Ni 2.323664920007011 1.3086384399255304 6.68087621862639 1.4158121514341229 -1.3045589749833855 1.2772608013890647
Ni 3.5065939979192753 7.2584217118496985 10.263668959755549 0.1178441994046938 -0.5304846595245252 -0.11297273024500544
Ni 3.676089142724081 2.708292791215162 5.4064284659739235 0.6463946180209835 -1.3508239194881961 -1.9580033007622988
Ni 2.991525418745971 0.20006834310839242 2.498159921590719 -1.2274343647852408 -0.18641166406144669 -0.3437667770765692
Ni 8.5873929026761 0.892327217028995 4.275544193532423 -0.4473742640565908 -0.01008386659856328 1.615501249330766
P 9.065499577661665 4.992218108823931 9.565917650573379 0.2951688135632078 3.793165463125945 2.1452402889385187
Ni 0.5232340860127755 7.468869387271332 7.540257157180626 1.0419166732929734 1.5443585677476694 0.4602747741683427
P 1.5913618227844144 4.029486427052159 0.2957461579691187 -1.7873938938404312 -0.9873360098336156 -1.5467990588683618
Ni 5.978004685742865 6.554552985308604 10.37779994972804 0.8197350507207689 0.18807491069648255 0.1463811305021221
P 7.90900492771934 3.054292139309272 5.06014764446115 -0.43884077266428295 -0.65896011339082 -0.16354864342034414
P 0.4926516287151534 0.043221910054807786 6.21885241627963 1.1483071223347707 0.30471351982884937 0.12186874718305463
P 5.928561657595936 1.903880648447945 0.4361069521433766 -0.03597256143986708 2.2006565609252937 0.829422967432494
Ni 2.808688063536723 9.103868848942726 13.49519398518468 -0.44694180450486254 1.1723338242666714 0.4670948824139697
