# total energy = -340868.9975166531 ev
CRYSTAL
PRIMVEC
9.28815598777968 0.00000000000000 0.00000000000000
0.00000000000000 9.28815598777968 0.00000000000000
0.00000000000000 0.00000000000000 13.59415514930816
PRIMCOORD
 96 1
Ni 0.3127712205056651 3.978637322666156 4.299287685849448 1.6143298547304843 -1.1440375484251393 -0.5537652273190206
Ni 7.046375904865988 2.433886956891195 11.699143869858107 -1.1789281896547374 0.7539657176344434 0.9670428068022184
Ni 7.895629154407624 2.2544212079614367 5.049698237587508 -0.4167058884384566 -1.3040077304656057 -0.3298085151242643
Ni 9.00231293377729 4.2635329295868925 12.46342070958795 0.47269371665798593 -0.9013066409466737 1.3761258885880945
Ni 5.339658675938293 8.314571427747689 10.0161736692033 0.5752593926370545 -1.2984677744839832 -0.9433830012914333
Ni 3.730225592248684 2.2559816181581143 11.943770676733044 -0.3227390098719926 0.040793379867278136 0.14514854364660162
Ni 6.480299953397555 0.45912655116687945 0.6108764427937498 -0.30569233880235097 -0.9363312366509745 0.4927614339421385
Ni 8.621052709055796 7.960989907705352 7.2170141903974 0.38007229637582285 0.13615739589158488 0.4055159332599081
Ni 8.21007038534997 6.302636106718723 0.7785982473623244 -3.594254895266539 1.8508494911919158 -3.3994719764222614
Ni 6.276619981951502 7.4735196198945415 7.925080039238723 -0.5637218243111001 0.10018072068665972 -1.1360473311308112
Ni 0.5746470617630379 5.899297935345431 11.18168212654092 -0.952026021678412 0.24111471203128151 -1.1552233898386297
Ni 5.783818292635376 4.931899342341082 7.526227118365284 -0.2864728284511066 1.7366937963824027 -0.1441537838335001
Ni 7.644040874661203 4.576627377919012 5.366523738157754 -0.9585527670533361 1.504744552900473 0.19554396538001806
Ni 5.55330483870003 3.546366545562805 5.500969795282185 -1.5275540945958208 -0.2115889346580227 -0.1754263686945366
Ni 5.1629422211645855 0.3164855540631131 2.8910964326735855 0.653383647744307 1.3795171736578307 -0.5443434197844883
Ni 2.891663010185474 5.641588760839425 5.075785881155411 0.007822324257896206 0.1898721118062214 -2.9592330378588714
Ni 5.6429726960733815 2.8527827894515974 2.4863845430378615 1.1774333502767658 -3.2534623703269454 1.4304098467426396
Ni 5.099429810897445 4.89428231081404 12.730287077027912 0.5752570786442093 -0.684799443051427 -0.2342542374660224
Ni 3.5700884958146735 8.337968292541916 11.506405346100658 -1.0995659483753257 1.1948487175397358 -0.25529588862767
Ni 3.5654722823161697 4.982547656641567 6.94144760729537 0.5967754123319594 -0.3993285735022736 3.3035770275951495
Ni 3.5820330643440013 2.4014620045304773 3.6305636790918525 -0.4130261255940242 -0.31782151796571717 0.4246045744602429
Ni 3.6231424425017025 8.33169878728741 1.866450290578637 0.04286028969863586 -0.4833288277743289 -2.1707847130665257
Ni 1.7356776991255511 1.855299859381547 0.06667038328422542 0.8835012373341365 -0.04930501688271509 0.09701389292290388
Ni 8.36417018042779 8.793060068771673 4.616303593616313 -0.1184851754228024 -0.1304801430011495 1.4094823525613533
P 0.5038703847410085 7.288722469459469 9.1351632857125 -1.0418120293943092 -1.9051722730041964 -0.9405527309314897
P 5.942246368377788 7.2273741995246255 0.9957376855703142 0.26698360937824345 0.635414464860396 0.3866319518712116
P 7.758415226815278 3.59298380018854 3.179332989283279 0.15047561228646986 -0.43865899567078 -0.14210821415838107
P 1.312983010788714 4.6084207356763125 6.205963122141004 -0.6505106970718861 1.6994752783505764 0.6361369448487173
P 5.755340806546015 1.5765530116881938 4.665119354751295 1.8650000716606847 -0.4315900046391406 -2.0622929014110096
P 0.7928825023710747 3.682855996992408 10.49237649505227 0.7732741881550683 0.5297997176423587 0.7613190726757212
P 8.117244554959536 6.633554526285508 12.154711199671613 0.12083464949158544 -0.16033142203462708 0.4759423055022707
P 3.4638041274778955 1.237108064975279 1.5134780735654791 0.9175884088258326 0.5416864417776155 0.041925950809824565
Ni 1.4737052610464791 1.4230012178103986 9.223008806891874 -0.8833441429309818 1.994421691490333 0.8256485879917265
Ni 7.333862907291921 5.821193832108171 3.046804007543338 0.7564746000992262 0.4196765410310062 2.4581170613044505
Ni 0.16236160977986938 5.6381614313002935 2.21634998560929 3.712191397274723 -2.4260934572100026 2.4686287594690515
Ni 8.614699610397896 2.879709153500214 9.2112908693673 -0.37587625601660424 -1.0964137758995893 0.006586137857949948
Ni 5.507421348392971 6.031143308808733 5.2149623960963165 0.1939624798255111 -0.7219657676890793 1.4495720214933874
Ni 7.278626243960729 8.157313659652784 2.7082275034101215 -1.0337727040296003 -0.4420747062205483 -1.459388236252861
Ni 4.296524459459499 1.2665886719053612 5.990767694969707 -1.3919417725744285 -0.5535194298568015 0.7131453411839718
Ni 5.4780429111781475 0.4141830222401993 11.933628939270234 0.44928562214669077 0.5999617804797409 0.9600756314557658
Ni 2.130071376335746 8.566001808843257 9.147819326986264 1.5866922955188738 -0.14012023719407482 -1.1022239548234631
Ni 6.928490629769388 2.949862595259165 7.505958504489159 1.2319497361570912 -0.2763794487708466 -1.4828215275751364
Ni 7.493024747353008 6.9796962334258295 9.943159475417106 1.0458926272215858 0.005653598741351553 0.2003935801628355
Ni 3.7425695514831143 3.455528380541946 1.0939989448125094 -1.7897814202360014 0.35474024536893745 0.5145294217468493
Ni 2.2562138220564294 4.533864708005307 2.8666407181030413 -0.41546867359724576 -0.8387157055883298 -0.9642652440570812
Ni 8.543450166238896 9.088878547069152 13.159849427861314 -1.0719625848357603 -0.6790951935777982 -1.167818452894821
Ni 0.5157898752493182 2.3518911163181744 2.3340755044238484 1.6287910244611368 1.1005974749636334 0.7740743154588604
Ni 2.33596192889376 6.3666500774062245 9.998134212750998 2.7707176971908605 -0.4235293391181931 -0.8897986403070739
Ni 6.083704983231335 4.750836030590917 1.6543543210420508 -0.7713286343929232 2.0579539077160236 -2.539290901871304
Ni 2.2612480025719 6.868080463583738 3.0934314791405986 -0.15622151363131162 0.8184970645486096 -0.1956108140622115
Ni 0.383764311560924 2.7574212924915606 6.795419219722983 -1.9854757951509545 -1.364825890194243 -0.7111923312226591
Ni 0.5544555395811519 8.455444888777482 11.079726038868735 0.8648316859490913 -0.8396736986262248 1.9161570541504742
Ni 2.729844757527662 4.459745223663134 12.565172457829618 -0.9666239740972449 -0.0913780347933652 0.24369944203932223
Ni 1.4800769360162447 3.8992793183779946 8.39647067149901 0.3873932555172683 1.304295951129986 -0.07668289467503567
Ni 1.580101087254448 8.79201979530722 13.357372280739646 1.5698741955202704 -1.943051564548473 0.3915661559480353
Ni 5.969293478453528 7.197224845367395 12.276024733122936 0.09821974030554698 0.4547021651765717 0.5397115774394319
P 7.109266008685643 3.901629221828943 13.478482403576045 -1.1967341074879065 0.05427701617600974 -0.4513525319780484
P 7.343234656627917 4.560753919430193 8.875868622988797 -0.13461344844323267 1.0166774391102105 1.466854976943551
P 4.346569043624364 4.432958181953507 3.2597832807091143 0.14708946942305637 1.241324749614088 0.42167583084922217
P 1.1966302814209946 3.816512560862568 0.5766235813454959 -0.06769123269938665 1.8342409361009568 1.4088609169272703
P 3.7467306453409206 7.634409056959093 4.83321175674158 -0.9532982035226164 0.4170601864540817 0.25943767871018547
P 1.4701943381039553 1.3632505106959623 4.764588074264728 -0.544234919231082 1.9332122098605478 0.8286241256802828
P 8.248894877148253 1.0913025931452747 7.446415852067612 1.9932646950677542 0.25899879140055393 0.2241598293444978
P 3.19496774216463 6.595946782914399 12.401716703280888 0.2648331386941439 -1.8616062154877875 0.867670440949467
Ni 5.7112592184898805 8.584903206166103 4.886744972274733 0.8184453853750678 0.002639494505376099 1.6721843038451072
Ni 6.432818900270088 1.1716822945860226 9.844860134735587 -0.15406795762341852 1.102639959314959 -2.342710781917288
Ni 7.095250181383346 4.812444368891874 11.062815093362245 0.4573601716247091 -0.2280283111609686 0.13236090496363012
Ni 5.369492232793815 2.456252836376904 13.593530147035235 1.4528514635756073 -0.5517070592384111 -0.38598789052930943
Ni 2.33613840385648 0.3685159459663694 3.1764508744973923 -0.27653191518831083 0.2687335021898146 -1.6139863553481364
Ni 5.145248284112976 5.8250855694439325 10.379286694863675 -1.529235853173618 0.016916059029048285 -1.0235875359664823
Ni 8.78480289814759 9.214844517827114 9.314320667865296 -1.7737354225167323 1.5093563406408717 -1.7226977392136267
Ni 2.6165571196177013 2.9380387727569617 6.030815436904311 0.6870949239538231 -0.8840609664923483 -0.26637528637028324
Ni 1.467575078130961 8.410898892924717 4.85959755011492 0.9561379869642567 -2.325411628517208 -0.44317179593946904
Ni -0.052708427286336366 1.7692265183541136 11.41191229172032 1.0651033958220817 -0.6487978281458375 -0.08155976315136276
Ni 6.281589145375444 0.7156486993446998 7.422422687662512 -1.8623217534975733 -1.6647643572319522 -0.3119609454198821
Ni 3.86672433183422 0.8401099888415821 9.985341635585023 -0.15784465105703138 1.2190937061300295 -0.4308410422882579
Ni 8.492801851938411 2.2550713788767194 0.3256046655577428 -0.3527450693157796 -0.2872791264024859 -0.5312369643095173
Ni 1.5987981451467783 6.767731226887893 6.886024252029934 0.32388777876445507 0.42040262056375344 1.3039059147804188
Ni 0.2324806853618704 6.2241419009322945 4.964300145496375 -0.8272282737740204 1.002894269283189 -0.1702196276826165
Ni 1.2732761441768359 6.349569158646166 13.375914226427902 -0.30055527468610177 -0.3746128159231484 0.9285958156799297
Ni 8.673670112413992 5.4257041524979295 7.4101335285480845 0.4040293214120526 0.16882171889382538 0.18593215332186688
Ni 5.099485539833042 6.886164503184516 3.2244790000092896 -0.6154501059233272 -0.3308454410292108 -2.458726926974307
Ni 4.007746403358934 6.175081861296285 0.9242913325055442 -0.7365346666421896 -0.35563858881349075 0.005712734114061129
Ni 0.9894208107205507 0.20812063879743206 6.653264921990085 0.26648018737926366 2.0566009932325553 2.0564418419468713
Ni 2.9700457581007123 3.890585604425078 10.131220483846896 0.7119006701435934 0.11554331918565908 0.38235646442430926
Ni 7.941326881596031 1.1037858747186933 2.5083389572157557 -1.301326584089017 0.12920693271568068 0.46405995224238783
Ni 4.647718923427155 2.7207423647137112 7.962069191424721 -0.7615116483025014 0.25595049149253335 0.22097089009355494
Ni 3.8082925428622136 8.470370955361176 7.035844993669603 -0.32115109655958235 -0.4444478344384152 -0.033802550371741784
P 4.195794408370418 6.882607139462329 8.45991434941225 -0.23603755461869028 -1.0656289293082488 0.7010619276568765
P 0.14882969540165986 7.60214200324923 2.9823534935270044 0.039927175212240915 0.5095026579562193 0.3595026997545873
P 4.901647818468593 2.8743220230593036 10.120385849951512 0.6341885628730948 0.20282532953277974 0.9510274052105686
P 3.0594999878876132 1.1727411443623392 7.895063505711328 0.16600121872589474 -0.6850632382357751 -0.9252487535845678
P 7.285592360910182 7.057335928866459 5.912723035930416 -0.30599135810000855 -0.8178254924028818 -1.0121875216596568
P 7.517591919794744 9.245959840201335 11.125864024648347 0.22452364044181977 -0.28447251019162617 1.02956149416173
P 1.9655502703015464 0.8059537242150272 11.75417247849641 1.2072784586626564 0.3337914110314122 -1.8110472715933132
P 0.38056825710451525 0.28819661753918363 1.3109581927954066 -0.5095337683044708 0.9807218469512078 1.8698936523075602
