# total energy = -381176.5294804929 ev
CRYSTAL
PRIMVEC
9.18908923717732 0.00000000000000 0.00000000000000

0.00000000000000 9.18908923717732 0.00000000000000

0.00000000000000 0.00000000000000 13.44916094598377

PRIMCOORD
 96 1
Ni -0.12992453215079092 7.327563507156354 11.504492487649436 1.1533583116054331 -0.49202944087212025 -0.36943949925232505
Ni 6.043140186522567 -0.24289335691600722 12.748997485904251 -0.4314632492532892 -0.24374006546927054 0.2515042827957217
Ni 0.1854606305283095 5.649883925264683 5.610532569689143 0.4985286754432188 0.43533661616576635 1.2108438074164114
Ni 6.456171367731546 7.7362298709969455 1.629500268324955 1.1594178875359515 1.0697272677473384 -0.6078275563810629
Ni 0.8782159570622059 7.414427967331855 4.215330184245691 -0.03521871399297806 -0.1641255989697367 -0.4051768047529345
Ni 2.554281934890954 2.296555550193788 3.047646890583408 -0.843041072436561 -0.3550654899188401 -0.3145233068304196
Ni 4.82599937698632 2.2373778157676547 13.261209263538941 -0.053992137945739274 -0.7104441402027248 0.9649108480608801
Ni 2.2456479960445987 2.359004600373912 12.693707655117203 -0.19949420827701772 1.4739355379394163 -1.4879645052286568
Ni 6.3692609621100615 1.5485820677685755 1.7494399361547155 0.7557737173774598 -1.5255617467561404 -0.4595839187489053
Ni 5.901352540218961 0.37274253853538597 8.812805183092735 -0.9407051973489541 -0.1791830075234914 1.3573799754391591
Ni 7.56023124561438 3.7442046622268594 11.002650597173112 -0.029741750038806844 -0.8405054504989008 1.8110848096994678
Ni 7.854521016224835 3.9856663590460357 6.339073885190295 -0.06612594509479579 -0.8715805746371506 -0.27198826168168644
Ni 4.612353053165266 1.0283050265460256 6.197628991913722 -0.7012994975889792 1.2266015844713005 -0.6023760463481884
Ni 3.0573478120482633 6.991279598917416 4.598940658573901 1.8028616504587274 -0.09300862841825272 -1.198224318880188
Ni 5.432185213107926 3.9240810832503925 11.963365278133514 1.966595413306684 0.7674886918215428 -0.5562869652996096
Ni 4.444881902557149 8.432900668437515 10.261534932015326 -0.38532068925895574 0.794104237526542 1.0789271890790515
Ni 6.3814273162063655 0.33321383353835243 4.0283193543699145 0.40937721598752724 0.27008307423917355 -0.4369186159409056
Ni 8.63461036539218 5.285508971351724 1.1308148299876668 -0.9115769125244301 -0.023010344852244242 0.8308540434520659
Ni 8.005681533508978 0.27117921128099515 11.72617558888184 2.624905808928647 0.2825457254825586 -0.7495809583031865
Ni 8.389142225683285 4.747616446139283 3.751791174267576 -0.5980231686961313 1.3264845714118834 -0.6865009991235661
Ni 5.096939671948203 1.6673234783670985 10.979935168679106 0.7231379336203093 0.32158895542794935 -1.246135283628854
Ni 2.2281887265710503 8.261597667634414 0.6938230986985419 1.3050551978935137 0.1881615568730179 -2.498581082856768
Ni 8.73130715100805 0.8334660115836616 6.00849364461569 0.22254337678699737 0.7876474261576047 0.10462692938347143
Ni 5.858301657332868 4.580944746291271 7.770064097418843 0.7419499241204899 0.0209892006571574 0.46689819302213137
P 5.630026303510819 3.038188561073343 5.676742714077437 -0.42481514780915225 0.2200478640586533 0.10383040162410506
Ni 1.8543673889639831 3.1299140494338493 9.25147576097808 -0.5700639644790441 1.1261128456259186 -0.5804715329656132
P 9.316725645545327 7.475048388761857 6.99478799317268 0.4133012336322818 0.6597602406946121 -0.0973944161907742
Ni 3.678677267165873 0.1435234652528459 4.006128622869035 2.449960750745903 0.40247946042642946 1.0152360786779933
P 7.9231635125234705 0.48148622008800357 0.5914566450483677 -0.3543468665852607 -0.0886485516773441 -0.02106916196547339
P 5.515989706580958 6.736374264603607 6.714614501386048 0.11735723246594627 -0.49899713043920507 2.122573957689254
P -0.018598716533927494 2.7157709884320815 7.4332573300046185 1.3686542628013978 -1.694894086737797 -0.3746092163787226
Ni 7.638402827409894 6.396727149718712 7.8581700035448065 0.3138360509554079 -1.6806607167472347 -1.7489024226334524
Ni 2.1777222487032986 4.914398415057654 4.053456107867227 -1.2711063517518946 0.4190319654684719 -0.1716779573956979
Ni 0.05438930004578233 2.9845242801651732 13.316228935103611 -0.6514427219678522 1.2786738796865074 0.4059789889392556
Ni 7.388064470426798 2.425404958908576 4.277304158514351 -0.7267307931778905 0.14438312623548683 1.1382875333152398
Ni 0.9842617220267004 9.318195899816784 8.071675734301154 1.5390343273212785 0.3044391831215402 -0.49468590465836093
Ni 4.06240444292688 8.173014847779147 7.437896901139984 -0.5952101247273685 0.3259747432004708 0.6391582481735444
Ni 1.6257336606632666 6.465884235012358 1.9489856026035801 -2.3706244776084207 1.1859958951347962 3.103208387132978
Ni 5.712599459031508 7.058157790090303 8.9373302064316 0.2037164738884814 -0.49056314073923896 -0.14426099883532575
Ni 4.074736200628723 5.2264506950851475 5.932424526428359 0.5293353764114304 0.14236506736419355 -0.34136536672392825
Ni 4.308451495255162 0.1637716232975639 1.6173964000351875 1.2410429567076111 -0.2437122975551287 0.36998123068840794
Ni 1.1623830270136817 5.80387468202138 13.114075405140749 1.0287690801674219 0.09731368355150982 -0.40056527412285203
Ni 5.65256713931009 5.268518345427203 0.8588040061343789 -1.0027451452998344 0.8771863508597022 0.4152814972871041
Ni 8.391136258038948 4.062974166457069 8.863481172194168 -0.28064002381941344 -0.3630240826442845 -0.46704140346821504
Ni 6.606955132358629 2.0951766604502002 7.54250457364521 -0.01608636403890133 1.302624476964834 -1.7777067484596543
Ni 3.7899295700691638 0.401848059656711 12.387416934015981 -1.361926714269577 -1.7462323320004574 0.6193833795394623
Ni 6.537255890802385 3.6555299514796262 2.4507466290949718 0.13535058371957334 1.529799438986572 -0.5434113948885221
Ni 1.9646915938584166 1.7141878332697815 6.538887873043702 -0.3008941460827592 1.7286179613528034 0.8560943060760935
Ni 8.797294000528867 0.22429464038207975 3.0253082147464623 -1.047304677077764 -0.1959129186836626 0.6389769854006737
Ni 4.894402956965844 6.175518205488852 11.100292021158394 -0.003309781099523332 0.2885379385102515 0.22949281152163703
Ni 2.3364086300394615 8.889828128738673 5.798256472886576 -0.48736571684786384 -0.903804981888495 -0.07099072938626484
Ni 6.776264100806068 5.73992781030221 5.408217311756421 0.17060940692186746 -0.4862488296346013 0.2003529567328872
Ni 2.4781778981646756 7.3822385878761505 9.264198973879697 -0.24330477770406486 0.8464015042683618 -2.1731521848574378
Ni 3.957869364226307 3.1398934003013617 7.68896579071421 -0.21830902699067561 -1.1427327135707868 -1.1227436720433697
Ni 6.402782759499274 8.898557763475448 6.723558241901103 1.5068945093639403 -0.7564969686967294 -0.3098156169421052
Ni 0.8369762436567646 5.7142718732652895 8.481739758608548 -0.2239374289210466 0.07683433265123542 0.10992802988141068
P 8.407244731400596 6.9290786541456 2.878295652325666 -0.47145881580962024 -0.09621222295721496 -0.6266398039915595
Ni 2.495196091356787 7.510913403896203 11.428155048057564 0.4495237062994258 -0.80872044477782 2.3464885037921652
P 1.302994469900124 1.0796996024226346 4.312688584283716 -0.7788393409476716 -0.019994440844055886 1.0343290907537026
Ni 0.33736638294629795 2.254377630781373 11.043240641972353 0.3358878885491247 -0.4540953848305083 -0.19517706895890258
P 0.7731111548314437 9.16359866317311 10.238361886879328 -0.4183246549888021 -0.0499148825525721 -1.1086457991894068
P 7.155892942785389 4.061825530307494 13.529452560821621 0.5295194673977783 -0.6349948608244741 -0.518141821688456
P 2.9901571918426915 1.5515041981330955 0.9203001477648152 -0.3306567220571725 0.05850853775885407 1.0776858604727826
Ni 7.117114986375718 2.079408183388827 12.472994002795039 -0.9464338723026152 0.629894306373115 1.9157443920930877
Ni 8.075049967854147 7.8938411288971055 5.175654328915237 -1.4242134881239408 -0.41088953886699553 0.03575324634020939
Ni 4.890479215878894 2.1839156948218097 3.547727232660741 0.520435245708323 0.5012185635705562 0.6261484661774378
Ni 1.5812217125949146 4.086599314781539 1.7562187272550507 -0.1753633766670851 -0.37203605633490766 -0.6842502554161765
Ni 8.347469706176684 8.292335170997056 8.95075270902108 -1.10408569062255 -0.4179413035074544 1.2394023357803943
Ni 2.7093386259944583 1.258978732648388 10.350420072905163 -0.07290800101363573 -0.7651726420938564 -0.3128469475692612
Ni 1.9918453524343829 8.84911127450852 2.7954615266717946 -0.8006651785735114 -0.12605553157089258 -0.47716229395230086
Ni 7.529365095002985 5.800217424521131 10.214880088346327 -0.40980144800913937 1.7437573880974035 -1.141781405401111
Ni 4.525589672970925 7.348064365153978 13.650629080057245 -0.5149662521739519 -0.6133001494598599 -2.3152627130086643
Ni 1.8110040770452065 4.100971050285029 6.892412350433308 -0.2886263844589997 0.7313451520214501 -0.2744081839770887
Ni 1.2559003877675257 0.19866259497707114 12.177811971623594 0.0869901901383147 0.32733691365532014 2.0479880547525635
Ni 5.483276549041046 7.717373859965512 4.882758543135906 -1.6422353228915008 -0.5264344007145514 -1.1365877770153137
Ni 3.42632649964872 4.5841149820641 12.406232513054947 -2.0036640360242073 1.0161025404433468 0.47454722492695695
Ni 0.27911490871118283 4.703187199873701 11.294080723225585 2.314326831457956 1.1774024970388304 -0.8921470859345926
Ni 7.0814521312036955 6.216023710667485 12.451138673049835 -0.24582343036086052 -0.09897178798022309 1.2326585892986577
Ni 6.312187529109951 6.0732895881766265 3.2322363954558795 0.7060300702954293 -0.14639681423140594 -0.8214008684589661
Ni 2.219155851890788 6.755101628386288 6.727929491631928 -0.9975366045157014 -0.5094340095018131 0.44636202074199255
Ni 9.123433154294753 7.767086832519143 0.5541581319993502 -1.158067544155644 0.35524006782349143 0.46441527869927757
Ni 4.208906091988346 7.070471169613753 2.3757673368863577 -0.8216078422634494 -0.6905263182328752 1.8754824592492472
Ni 4.1173276290549845 4.111997957320955 9.82181496014373 0.5525375255595064 -1.171443708352234 1.9867317790452428
Ni 4.4630027864528525 4.692785150903145 3.485578665697346 0.09542597961049372 0.1401379778058877 0.2577466641610077
Ni 3.69873704888206 5.532750605275564 8.244833093304129 -0.9128539794646408 1.7096622461859075 -0.43752128252191097
Ni 3.2218416977566804 3.221134137888542 5.126403567548196 1.2039239403681266 -1.351875757791478 0.39985127877496296
Ni 3.9814577561939912 3.524769212211944 1.5657509620235113 0.18747610077021906 0.5321389072984964 -0.39252877697162075
Ni 7.998082156743386 1.4266704213972237 9.308366331103176 1.2514716082401027 0.6353121349545768 0.2494965083370735
P 7.01916848462911 7.948580533241279 10.77049193425658 -2.558141458918904 -1.7368336643943765 -0.5856692751164687
Ni 0.8040269265244999 1.1288336623568789 1.1918901113328983 0.3078546365609924 -0.049966818836430074 -0.5090629993156395
P 2.2455469160634363 5.445141828875138 10.163181353617311 0.4439130449808678 -1.0688505215693398 1.2594389427162955
Ni 8.908693328859302 2.8522105848232644 2.593105836746608 0.20767622986717785 -0.9069026469772125 -1.2045713441441386
P 6.382539195999155 2.959686172066751 9.56036331868626 -2.1942313741252404 -0.4219113438987959 -1.1705371373775648
P 3.5373766425896855 1.0501199242987649 8.306847499565254 0.02963093549255542 -0.07713206639731232 -0.14485543788621505
P 3.067455810164528 5.581324130768816 0.9666379678565326 2.9344118650501336 -1.1919675393371987 -1.9094277058464404
Ni 0.50357862833448 3.1989792438355287 4.838241081614036 1.0782677011181816 -0.9711737982514566 0.5745315133320944
