# total energy = -381169.9242393784 ev
CRYSTAL
PRIMVEC
9.24075566981197 0.00000000000000 0.00000000000000
0.00000000000000 9.24075566981197 0.00000000000000
0.00000000000000 0.00000000000000 13.52477999266545
PRIMCOORD
 96 1
Ni 5.628756659641173 8.382991532854023 11.273823252586896 0.8659958814605214 -0.6846621461426143 -2.9608821434265202
Ni 1.222949293667932 7.381182756982781 12.527084072161673 -0.5686670841315173 -0.8580737983999674 1.1748841014923508
Ni 7.671739829444497 5.4284725268123974 0.9458190388218028 -0.2631284972982113 -1.1667748421216553 0.9675014916061919
Ni 5.084088054067965 4.295306412740497 11.960057458865883 -1.8224148900003065 0.036628449856311106 0.8729139487365934
Ni 0.07216660347603639 2.4473771082019993 9.436968993411288 0.36820536973490775 0.02015410635037174 0.48781026058445026
Ni 7.0508349917112145 2.6892261588799884 8.78860432689172 -0.4381141789109035 0.41571652794199376 -0.001660932642190688
Ni 2.158270834340178 5.105452680583611 12.722828221855874 -0.17112465599538915 1.9507036817770922 -0.2615578103769818
Ni 3.745472224891229 1.9107017560613306 6.0521902504935 -0.3867363386595598 -0.5241684874985102 -0.43593439765076536
Ni 8.12257780455063 6.507247554521366 5.118060767269576 -1.99700333617458 -1.5619166312360908 -2.373694631893312
Ni 7.115889909821143 6.160183262707064 7.20001127857542 -0.27067879884164353 -0.8061858512814244 1.450272904215154
Ni 9.078136599578096 1.6178067724800398 7.085510002324239 -1.9610073776959454 1.0269975900892958 0.4613615794746183
Ni 7.78127050335884 2.3453591684387023 4.336166260951671 3.113169869221064 -0.33956893694513773 0.33523739944931946
Ni 3.3552074015195528 7.628687149973735 0.7739918122884134 -1.098210977009328 0.6789918352307146 1.0703301914386598
Ni 6.121270441661481 8.005321859110733 6.3245652126039245 -0.23738918355057825 0.4446995454379051 -0.490835163453703
Ni 4.5022993339993596 0.11514905320565577 2.349402923007581 -0.3159145307509914 -0.983517407418474 0.1930389395699772
Ni 6.275332315912719 1.658576985363705 2.7725796208594162 -0.9237935091952799 -0.5645679743614793 -1.5709008370125719
Ni 8.67988776352929 4.949182265788583 9.262485973772105 -0.6549147396768528 -0.8049951734074331 0.6026550110411879
Ni 7.83745429627196 3.411973362023713 2.141513648473624 0.2920186979700003 -0.5271242276927244 1.0419868644092765
Ni 1.3518116279069876 0.3810711958109424 6.236437976377963 1.7984478376617479 -1.148321520512474 -0.08452707330980282
Ni 2.3798549083967084 1.663437622711123 8.48463522202308 -0.452695162048872 0.5351998056120074 -1.4566158157140465
Ni -0.010699870693108805 8.694247897441626 11.013363320506436 -0.7281320444007912 -0.46087101299144506 0.42517587358268066
Ni 5.695142246530623 6.816665008781713 1.4013291398649224 -0.1028415553482745 0.372672661477642 -0.1967870937584998
Ni 5.6744152321384975 0.7912868101200244 5.063664136453395 -0.24232313051708587 -0.6569250852386622 -0.43447426816547113
Ni 5.932370919501941 8.127872757402475 8.648636452796909 1.1329931176855197 -1.3914404074579778 1.1992990400016055
P 9.282061590039728 1.1994870156734565 1.206929520083362 1.0620895486964224 2.214130941262645 0.75337487812798
Ni 6.866990162762773 2.8077942915885803 6.455039134587065 0.38910920976711055 -1.1644973589413878 0.43355895544005335
P 4.105270277665117 6.361844268092429 12.88636926301012 0.1822899285835893 -0.7474389722595193 -0.8384956191577237
Ni 1.456657238826767 0.5959501777395513 3.9777192066192146 -1.0041775068709868 -1.8862147580650868 -0.24513334627237138
P 3.4911851174268813 1.226266724861322 12.466587618697146 0.5803123816799296 -1.2624944417131676 0.8624878683072631
P 5.827063270811495 3.7855955848959604 1.372724381482922 2.6327399602610853 -0.2747501406975397 -2.7638001441354207
P 2.745668692944682 8.97957470233939 9.404496054813263 0.8086109157831494 -1.152270734968209 -0.17052764584133856
Ni 1.2134590378584298 4.3927779008404295 10.699006682477657 0.5164829459287944 -0.8061452278514762 -0.5133832239575481
Ni 5.23700407464795 1.6746651405383335 0.3315167208313541 -0.17313885821194053 0.6793780149255396 -0.12551842812049996
Ni 0.764733499439786 2.4924997168853484 2.8385262718667326 0.33427374998446946 -2.3568729323502824 -0.6234989443697326
Ni 4.525576796885568 3.8025708525902697 2.8385401329998525 -2.655669058253433 -1.0125263930563142 1.295478352838356
Ni 6.164119824513148 5.156951410502166 9.602918175426252 -0.48913643559504144 -0.10922689004932802 -0.4591766560081576
Ni 1.550182924365202 5.380586932260458 8.214816252859986 -0.22574157200932088 -1.186187699430628 -0.6212464008901301
Ni 5.022803364166679 0.7710800502576693 9.640503099918938 -1.1475208789880496 0.826913570747079 0.5996252230759286
Ni 0.9133276187129508 0.4069490072704656 13.066424458163548 1.093150788877601 1.16630098780903 -1.6854751074167424
Ni 2.200861476040272 2.8433619591745347 12.502305910596338 0.49654018425828034 0.47752173417424865 0.15405767321077338
Ni 8.808278819242267 6.93060352302822 2.713935938855265 -0.555563971090656 -0.16969460841708195 -0.2826675957724035
Ni 1.565143707379403 2.9035562399370445 5.348482699803426 -0.6092164663087895 -0.4703167317853771 0.03327110334830399
Ni 1.1085487416507571 8.565986212304436 1.57801700374573 0.504341425470254 -0.9214509771050324 0.6729985937617571
Ni 1.590694396097294 6.8458842773987 10.187892183885834 0.5713042646440484 0.22381093064551133 -6.890556472246198e-05
Ni 7.877512970988797 -0.12944819813226133 5.022656436155607 1.3419901232466502 0.12051146182421181 1.816161195781111
Ni 8.508296176258941 4.139294739097042 7.156663819006973 1.0126510915596367 0.28888066656165085 -0.3285041944905439
Ni 3.2737409017955286 2.9119560866077725 10.223191869564802 0.9715702623589266 -0.37231553524853944 1.150211281336019
Ni 0.9316622015285627 5.275307005836252 5.70956706573085 -0.03713675695129733 -1.090733180575044 -0.09967884134957672
Ni 0.6193884297699522 3.712233227669438 0.6413232108946023 0.1003244453533756 0.10736464002960865 0.22956480241015303
Ni 5.440467027338915 8.563786912516061 13.300957602780796 -0.2937768183116876 0.6759504773012294 2.9838094416466547
Ni 5.646397261725244 2.9561268974835477 4.5255666320546135 -2.2062643940303746 0.13228608586163668 0.4128692883011857
Ni 6.541715572213132 1.333588858231877 11.641738384915863 -0.30946620402248637 0.05779042864590693 -0.14551981094309133
Ni 8.742493881454685 5.463273211699044 12.14871487323359 -0.12927918071451286 -0.311336938682638 -0.8166067895044324
Ni 7.811533977337535 7.421287635476686 -0.10437618054478157 1.3320962611717058 1.955606518395348 0.17862404969622786
Ni 8.672643011285231 7.16180722347004 9.148864417436274 -0.23187159616645872 1.1845005415361922 -0.4506632192205077
Ni 6.2461869733390385 5.3422377972950885 3.0965392519137396 1.7978693394504583 -0.20611325625543211 1.1214151830399333
P 0.4577029323027057 5.990384381986902 0.5052429226021854 -0.10811951591776219 0.8336897131286481 0.3642651541402372
Ni 3.7280349194262525 8.647480434294701 5.021074418828842 -0.5724090676724528 -0.2860246851700945 -0.970883263594231
P 2.7641964075484324 3.849929724083648 6.936548100985624 0.1307223409189426 0.2050400777959114 0.9860872250281791
Ni 6.267034117551538 6.0172564987289014 12.604093755549842 0.1066745559411195 1.0206436228468099 -1.0890653059543178
P 7.0700003184384865 4.336612589438135 4.976699387258433 1.749335139295497 2.732785183811145 0.5822731049507263
P 7.962102846042531 8.769356757441269 7.447081356061947 -0.010617370504530101 0.6194211747559332 0.03748591276059996
P 0.1719039248033202 2.7109881378784086 11.984848557488796 -1.017424858799196 0.2655594753372072 -0.8066252528116883
Ni 3.821930235181221 4.422108058522377 0.653645758238294 0.16024683274062082 0.010851855112839374 -0.038548549697159415
Ni 4.919713496775435 6.368562297277927 5.201928015249985 2.841885061364306 -0.194204163522672 1.3710119644002967
Ni 3.8917256608181945 4.2785529231761075 5.141472221109278 -1.4684477753519678 0.11433515781017083 -0.26987712887595455
Ni 0.9391010096363032 7.55907653944503 4.761858292427019 0.8212098354940824 0.4990704068793019 -1.4485299533821183
Ni 2.805558028778552 1.7223197162049386 1.1864372208787348 -0.41453664870127965 0.037803701111334895 -0.19298777461706765
Ni 8.325310737563942 0.33927710722747884 2.8374719016740704 0.6691229128564347 -0.15519950012470046 0.2652763968791496
Ni 7.46482083422894 0.2469286939287033 9.566793290288873 1.1936644674236474 1.0181589087517433 0.13082904170013596
Ni 5.427862636955116 4.481045596548673 6.909904230902334 -0.6524567650546634 1.234834513904054 0.6099661999906204
Ni 7.659292531902724 0.5333653135516094 13.584694073671923 -0.773041760429288 0.14028941578208742 0.302561249372537
Ni 2.861908155289112 6.425734851020276 5.75134452095457 -0.9587880229925939 0.5026046452848053 0.8802457065113163
Ni 3.0289994946731635 8.46109439760759 11.652530663163105 1.054856778393409 0.9611686074096286 -0.08561979215334932
Ni 2.027273885600641 7.583610745067452 7.714804521897294 2.0116359984860903 0.5859533820157908 0.8136649332672891
Ni 4.060249317291314 6.135519686508854 3.2097144797631056 -1.0821282125148526 0.5787491509578677 -1.1345589195107428
Ni 3.265396499657281 1.7546438786408092 3.6807009979724903 1.494495364368639 1.3562952270154125 -0.1670764540679445
Ni 0.6671862371454642 0.04065285528991586 8.711256431855421 -0.9672641787844053 0.12695258946386523 0.23329033089085627
Ni 3.655291692812424 4.8962050150038925 9.208427554604054 -0.13558995342388905 -0.6302907704805855 -0.5750884142768289
Ni 0.4560617741412962 4.48850288616724 3.4961011993067794 -0.966926078718696 2.0263229110743035 1.2302291539215588
Ni 4.0813644434108 8.969557723471326 7.373344748241184 -1.234924245404383 0.7916454915734044 0.43556441590585626
Ni 4.586325522972879 2.5083291309084035 8.07358978787788 -0.3570220994245787 1.9912592346019513 1.0654664355884553
Ni 7.54937374626102 3.4686099519520868 10.963037242449834 1.6151621208237925 0.9527279328414432 0.5485304612826425
Ni 1.8330516883230168 5.915183114433125 2.2388511456200626 -0.6439998925365619 0.049054591434805846 -1.2781606874955147
Ni 6.06843180220799 0.9787346096041274 7.3957683653272 1.083970922150546 -1.638092761478037 0.24180119657534482
Ni 1.7197138231783762 1.108576463916997 10.845209294249848 -0.4763698799579925 0.3942331612572372 -0.27258347206352407
Ni 6.259022382608171 7.870804182558711 3.9037654410462377 -0.3001071314050896 -0.2150650661320812 -1.1843347053822895
Ni 0.07866008230499187 7.1650876916417765 6.801624755270957 -0.5877829790253619 0.7153744876248067 1.6752680849767536
P 6.672684798686429 8.739453672923695 1.8960523865045593 -1.4803118737794054 -0.4995458038538236 -1.1773011955742756
Ni 7.482563084622557 3.1633508376277444 13.375033346325228 -0.2695310583904455 -0.4332833331811634 -0.7344225053951933
P 2.507562148209096 7.729152642827591 3.0998520627294224 0.7005675045189611 1.9446777872979863 0.9341421994194556
Ni 4.144950081410007 6.602556705854576 10.73361700780279 0.44091205337101486 -0.8712118784438221 -0.2680652724781964
P 5.564265427611459 2.9716051628008957 10.562893127465752 -1.001567065831333 -1.9485622099540572 -2.8947471994706597
P 2.4287477452887014 3.862718929575714 2.4418178697453325 -0.19270469615901004 -1.0872364802756953 -0.06914133488235188
P 7.056970853305674 6.931656969145341 10.477349606453362 -0.27313137414719413 -0.09532622080783583 0.8769089288285994
Ni 4.4139115084707425 6.7165968684106305 8.07931073955428 -0.7247857536363775 -1.2684704567909446 -1.4693921415431082
