# total energy = -340852.0018001776 ev
CRYSTAL
PRIMVEC
9.46356397784339 0.00000000000000 0.00000000000000

0.00000000000000 9.46356397784339 0.00000000000000

0.00000000000000 0.00000000000000 13.85088247328051

PRIMCOORD
 96 1
Ni 1.5445766530786385 1.4231969826333515 8.243490949363412 0.815178541698338 0.12919844807524844 1.0656824082540033
Ni 2.3817519054255447 3.3774797071752527 11.425274565226406 -2.1643952646004143 1.1205613196800703 -0.2990843465675301
Ni 7.270449202969344 2.3747394045835084 3.6145400898916376 0.19975877479231405 -1.087444482521443 0.5737992631517601
Ni 0.17527088136979427 3.365214928374606 12.544383581184006 -0.08959446053038118 0.8319750444303866 -0.07686107212411279
Ni 5.411000852162997 6.085033726620749 11.916495990607297 0.6755576127381849 0.43614137145524895 -0.1288271807787588
Ni 0.7115313000130611 3.753486027628406 2.253442067144059 -0.07833842800058767 -1.2307724280195385 1.2547345952620907
Ni 1.3933110478706652 8.20315913277962 4.6393257645637105 0.061548610136758504 0.23246243567292224 0.13693875414229964
Ni 5.322223159316651 4.2959753640236675 13.998809378295947 -0.3990364961831515 -0.6766791279371378 -2.1268972676549565
Ni 4.003598557661034 3.819314578042987 7.774694384974812 0.1875378072460899 -0.39435785976055954 -1.3780092216537365
Ni 3.5647825636740142 1.5196969436134382 6.990775338415435 1.7282176405905914 -1.0467135804609844 1.5625046425290767
Ni 2.2813245654313623 1.2589473677691383 12.593998207586898 -1.5108077283754173 -0.5262379684330293 0.5767429191611164
Ni 4.181040380587054 1.8553695547700206 11.516455056944267 2.4226391801128146 0.16458119844991656 -0.1567565601991752
Ni 7.000349626002329 3.655462432862128 1.6818295592355954 0.08158701684487239 0.18948593211139622 0.7286879169042613
Ni 0.05027423680598334 3.4443776403093347 6.386946966314718 -0.5751768602255771 -0.5856044833168044 0.09171459219717752
Ni 8.0465844682297 7.956585975641621 8.875589825870897 0.009015830345365117 0.7799330882324826 1.071993695184012
Ni 8.554910338984271 5.414578079313186 2.402491305689138 -0.4995905410488299 -1.2794300411262416 1.5414287956953838
Ni 7.705044447461697 7.443575640761803 12.590285651473092 0.27681190832257485 0.7805151859881977 -0.454592636181901
Ni 8.344970637662094 9.51693838972387 0.02859699736095182 -0.014872032015826 -2.83787542598428 4.478943725150874
Ni 6.411337409526837 0.3389687704592563 7.883631361618332 -1.0003190523568448 -1.6890224584483686 1.0136543360131705
Ni 1.9627526142229033 6.885007709318471 0.09667314419926241 -2.0160153585007086 0.16160540365104425 -1.3539454958363133
Ni 4.726766255832486 7.320899462063671 9.96792641958542 2.2365635592345483 -1.4165312889883346 -1.4216171881516741
Ni 1.8530509816171208 6.809990038367295 11.32308227056685 -0.8686063225001751 -1.413486845735056 -0.24418563764712137
Ni 4.703883358347946 6.572397803360326 3.932569778889234 0.5636745160129325 -0.843424938138541 3.0514214843686736
Ni 4.6087745412596 3.8321471706769965 4.379538633166961 -1.9307418939431846 0.7116841832574131 0.3912653368781649
P 0.7706028658106192 0.7298149054473583 0.28429586915748556 2.302443449756809 0.7674935769175492 0.5135912262032961
P 6.96680129201445 0.15002587833846356 12.571600790929885 -3.71643268904958 0.49070300875121303 -3.0050377548978116
P 1.759181891398284 4.654086085161988 6.750947809617794 0.5728150448616199 1.8654361307568388 0.9682288566905196
P 8.343096852011996 0.49736138563232757 9.415386778339629 -0.12313578682093632 1.9864780111632243 0.22934034510417275
P 8.046650713176925 3.770558296884861 8.621329415785551 1.339074749372068 1.6137271881494788 -0.9659971391465233
P 3.4351601290810705 3.260112587819066 13.37209905506708 -0.9109693608474183 -1.1019452472407796 0.4087946040111798
P 2.926408397951476 2.761136718187209 2.9963195298279395 -1.1188769899991118 0.5976963814843319 1.2128091586728984
P 5.878415736223746 3.502550167537401 11.998077589472153 -0.9207752911942465 -0.05799637400912592 -1.4557881776064283
Ni 5.248539850873878 8.964720509650318 11.388361934275848 -0.5480134124369078 -0.5588922641329406 1.6092030750268802
Ni 7.403033733059666 4.976680051023437 12.616920852039772 1.0175428724342992 0.5237766513767302 0.032009463027061
Ni 1.8791231001323838 5.691604985047233 4.485303423194758 0.05669256759603784 -0.5944771032160858 -0.06907782863426813
Ni 6.82753548581822 3.4278164035029057 5.753102062269641 0.5511231617104831 -2.2218699617781152 3.251041419590278
Ni 4.575519577752291 0.5231600071511874 13.514901395088772 1.864921910124582 1.0107214786370915 -0.08729563719387547
Ni 2.8241261994349736 9.028646883723132 0.6418274201857759 -1.6224730526629092 -2.1379964628919113 -0.2747272578794043
Ni 8.122425469239253 8.321112993096948 6.46916546302933 0.21736208969637402 -0.03450754685856638 -0.6357219687984857
Ni 8.402329298395673 7.554422364598201 3.4499223423921266 -0.970787104335999 -1.2459452791052348 1.2024681817582066
Ni 0.10020116081722615 6.122026797864365 6.597770564504164 -0.08561207884386547 -0.2346069928197508 -0.12411666267696687
Ni 8.630618850099374 6.902837063686078 0.7941198220757477 -0.06419453240003783 1.0603540540625545 -1.0570324458884892
Ni 7.237799907550957 2.6425109448337336 13.4738749529155 0.17864641829373104 -1.0518251906559368 -0.595914864103877
Ni 0.3966084990403501 0.6277238709214213 6.479511977429597 -2.428692071175114 -0.8234680354006398 -0.5588693813148052
Ni 3.0641505703615146 1.6500007548064177 1.1775995189323503 0.865613044199806 3.1377282752867184 -1.3369142513856396
Ni 5.171146825386465 5.125437811800722 2.152884129968203 -0.29663819901988264 0.271071663404688 1.3507390730838738
Ni 2.937537549085396 8.399348275770516 8.327676921010626 -0.0031722270803945366 0.49493324478247663 -2.807590916068126
Ni 7.612680063901273 3.4275230330223345 10.65419568215215 1.0481456849218205 -0.008427561942062905 1.5687619362926983
Ni 6.24050115419561 5.141421771209899 7.904311141429422 -0.46203058051718493 0.681552139758723 0.29746275180370707
Ni 2.831091382457563 6.935940610171156 6.437779553390175 -0.08805796928119673 -0.5742373791304433 -0.4889767700887256
Ni 4.10813308438321 6.611690520629065 0.542146755382466 -0.7602860034255164 -3.3947216062214696 -0.6881629602070213
Ni 8.647085451266907 5.871971049215073 9.001148606129737 -0.16213479379195303 -2.6874805463370746 1.0687199095287465
Ni 0.6319692256822006 8.641889954691633 12.503080802945162 0.8317405598220772 -1.0602344977655547 0.6424225207471129
Ni 2.7171311461015564 3.2947113773986674 5.576060548096142 0.35380564936981 1.0871133244342694 -1.5724229300840533
Ni 2.1310999522512213 0.5689778517216582 2.8941281815247746 1.2168344777822075 -0.5647428093764467 1.5044730444066412
Ni 3.0517154474108588 8.64333787996671 10.37838295166511 -1.0367266444516017 1.9049835540321578 3.2198631942152613
P 7.061427467344437 6.684522108321793 10.723311874661903 0.4752702191359105 -0.22927066820850192 -1.306707388784956
P 8.182859788236883 -0.02414344419460596 4.560333396778991 0.8822362545787839 1.6239658351583517 0.2361738230862384
P 0.6145865515301733 4.952557426669388 10.996714235426316 0.563199890369359 -0.6476909682349039 -0.6404782525365487
P 3.0671883743700077 2.1475381627270878 9.766202038075619 -1.1035637566808092 0.2918433487344006 -1.8678033454374348
P 3.337922010117612 7.733113377957621 12.459589102378702 1.68875737771244 0.7342553836897097 0.5007549936705763
P 0.9853841264186073 8.045467767690752 7.093174885124167 0.3467459143095512 0.7706478062758148 0.40298853885236396
P 6.645447053022511 6.702663760297749 2.4288350284880265 -0.3646503053937978 0.5130705778131358 -0.5648680221004013
P 8.842394482816092 4.512842394112877 0.37510822824005013 0.35480426583765345 -0.0479004232257046 1.0189078711026258
Ni 1.1451101577436933 6.792643325758047 2.1903096860815645 -0.7635263647396849 0.44584060102088374 1.332116829996996
Ni 3.498045511126052 5.85780409407266 8.862750608742164 -1.9825609354970049 2.800027501898571 -2.835533408114665
Ni 4.028932518192925 4.317798342352596 10.044438387274731 2.242443415054093 -2.760398060432407 2.9034722380484834
Ni 9.419936859857646 9.344143176667538 2.681032381645487 0.17393769996415204 -0.05683963469686339 -1.6827975605845793
Ni 6.492459079186669 -0.14639565523049444 1.5929070738617415 0.2138167955472769 0.03674003573351092 0.23196081344615532
Ni 8.876340286487325 1.1625420424279453 12.054658345254024 -0.08469470923591865 1.129910622105454 -1.9371727371701928
Ni 4.882867742187937 1.790402188669374 3.4963089471523494 -0.7741625042972925 -0.8976723866281959 -0.16851730027952913
Ni 0.3648128170847852 1.6713789456325445 4.080178663010348 -0.35426999060073827 0.5746024757793459 0.870945769266629
Ni 6.523300833902184 4.69565005776418 4.237123352908343 2.3031523028983756 2.8401305405670443 -5.339839052160036
Ni 0.3767690837026376 2.3968368262652286 10.186160934656645 -0.31956318324717226 0.6145535622509868 -0.28164738203800527
Ni 5.064530314608623 8.35507772389596 6.1898209304987715 -0.41989662746161227 -0.009509996372964267 0.14149860559884017
Ni 1.6581015654957336 4.026661262859472 8.803482200815708 -0.43351678934820825 0.3081955648401789 0.8135343212266958
Ni 8.637763840835861 1.80792870899252 1.5037905854281552 0.6573670578720873 0.9460168393698547 0.6855486625126258
Ni 0.80529155924717 0.07579084412093946 10.37971258239157 0.0835665091687464 -0.495581676999753 -0.6484011069280511
Ni 6.305951162054616 1.129504740890093 10.355958090672818 1.8052985420349943 0.5257312039999398 0.15129348020207492
Ni 4.212667611105387 7.865820934378505 2.2713509154483362 0.13657365749339703 3.803846596988875 0.43395130578246555
Ni 6.106213182605198 9.351742418470717 3.9824474923682525 0.15783333820312173 -0.8466609285773354 0.11659027239293471
Ni 0.9442166771433818 7.346063078445552 9.25009049330925 0.63065175336443 0.1540273341934702 -0.7351655542088048
Ni 1.8363004735329043 4.589998830503054 0.5339427918467559 0.4965162729988804 -0.2348535616129181 -0.7983465577426638
Ni 5.622473650835255 7.821436819737276 13.722194137591089 2.158166767192199 1.586882814263125 -0.4499911328541476
Ni 6.166410912505594 2.895178637116497 8.842957564867511 -3.125905571620178 0.7571667410702443 1.1311756048608066
Ni 3.513310239679635 5.229385597561757 12.537417451805029 -2.0110338461257173 0.08348886185327557 -0.005973958195247776
Ni 7.7632264382536516 2.0028402708583495 7.559659500854589 3.56946637546795 -0.5172180243226059 -1.1919701104403602
Ni 6.906698197752949 6.163619161158224 5.851485272463715 0.18507726152073933 1.3342732142183664 0.6296909321130574
P 6.373076220722042 7.652266151650581 7.704913850280023 -0.9949418472053317 -2.345016290122013 -0.28645997293530023
P 5.601947180759173 2.0913151296602353 6.940802042941135 -0.2252666892554314 0.6608763565769263 -0.9360944380498202
P 3.898306945827706 8.741408792552436 4.432005577726115 -1.04078590212264 0.06808049771800533 -1.1184499297640222
P 4.585948425158397 5.672961764185139 5.986711083235566 1.0895939247642783 -0.8829924160185181 0.5702128313520824
P 2.0821827905069763 1.3977873135903456 5.669498099801623 -1.895585914867342 -1.6757869335947009 -1.9538576540250416
P 5.574379819149387 1.8359881759245547 1.5014634950677548 0.6631975485109352 0.0743259644070849 -0.7582908273723585
P 9.111566630521947 5.66552340296808 4.511481533625583 -0.40110983377241244 0.0532532028971857 -0.021882144785071993
P 3.057450367127828 6.021978000425759 2.465083317253548 0.20901217506978195 -0.7353167350746884 0.1044145562623492
