# total energy = -340853.7130450598 ev
CRYSTAL
PRIMVEC
9.43476090599595 0.00000000000000 0.00000000000000

0.00000000000000 9.43476090599595 0.00000000000000

0.00000000000000 0.00000000000000 13.80872626617261

PRIMCOORD
 96 1
Ni 4.973213360114598 6.212686187269028 2.3099238019959345 1.0978589929865479 0.9547997277688071 -0.8545639854744961
Ni 7.226800318577199 4.618787136880878 10.928695703497096 -0.17247294249316747 0.4309955655882513 -0.14031821213749382
Ni 5.234358103576401 6.335064469267765 10.001825748541599 -2.525448339561257 -1.7613853855918116 -0.8588065628009339
Ni 0.45027584488830014 4.251859855621693 11.761900183917179 -0.26677560713249543 -0.39943141762872497 -1.1538573627290385
Ni 5.410816434331345 1.657394990396746 0.11629663520385754 0.14072753176077055 1.0795612231186247 -0.37370341673500157
Ni 5.98344980474468 8.278653492981118 13.795939315694188 -0.7618343217492427 0.714563304577421 -0.477038623890243
Ni 4.436177342101327 1.113886726492555 9.255754114297057 2.3077988005314514 -2.3991395543289777 0.25832619081356156
Ni 7.132179102775385 7.613021685619086 2.0006221525918018 0.71252981908716 0.14400620251204233 0.3933422740118516
Ni 0.5848070422399457 8.917745318286064 4.374824979740569 0.26769374807139057 0.38638281197488294 -2.075932089460999
Ni 1.1978844016629164 8.15140687442303 13.335307877380416 -2.6547300913789313 1.2123599869506216 -1.2892390567968635
Ni 8.36226434295975 8.735946912933072 0.12346044905950794 -1.162723554870417 0.9543978643446982 1.5399429551784771
Ni 5.7062187941633145 8.395238831864658 10.585561945433701 -1.284493571692078 3.2250138851782655 2.055608033191666
Ni 0.13646909721461234 6.3524904724172275 1.4245771726826113 -0.5957533988253482 -1.6839015922820355 -2.2111407482860694
Ni 4.634684708784962 0.822862095659693 4.227334194989844 0.8719664972216596 1.1679835177177755 0.5874099119566594
Ni 1.0828557983070761 1.9890268316006332 10.168524762751982 1.1917492526788056 -1.2860580879657206 -0.18112059086583646
Ni 4.167720659039722 3.1040079903429647 5.17078762895769 -0.8657842796703477 -0.8999411280577146 -1.0257092102951753
Ni 5.54914889679881 0.23773521502951078 1.9890230576963235 -0.5688352342782655 -0.5766881546637811 0.07090999674700045
Ni 3.139746864154638 1.0065663226890211 11.35186359372972 -0.48405747841023733 0.21104463211877847 0.21165501200926773
Ni 5.026944322722169 4.071514403427886 1.574263426265432 -0.4566173799214136 -0.1954948573096375 -0.6275777424247965
Ni 3.203931541699732 4.162399453963222 7.8347536594238445 -0.7543094741271074 1.9902480197286174 -0.3929239555275104
Ni 0.5449781996327706 1.5978616499132035 5.7041082381781845 0.19957519802659823 0.5863197642162741 0.14631505315087703
Ni 8.986354898634136 1.0021036808429489 8.234129913412833 -0.3003501006538311 -0.4407086791109572 -0.3669969512491035
Ni 5.058654553683371 2.368502344689155 11.31938537324152 0.009567331973460942 0.31672391402616423 0.8560968771792546
Ni 2.714673152245679 1.225537685491326 2.643819042309489 0.8370277763629456 -0.13616690897328163 0.9698928746565039
P 3.294929809364355 6.089421037757541 6.495817697238414 0.35498090062483384 0.11273387476132198 -0.8096591545420057
P 6.4568294918161975 6.407381910599993 7.864580712134569 0.43628972410765504 -0.10845890153505192 1.2923714317782582
P 7.080901177969037 -0.12091778103093191 3.5561755047664394 1.2614004373180403 1.0338668064053034 -0.2934407751285075
P 8.412957312598111 3.0050090455420437 5.968034349116144 -0.5605333992807895 1.1273906838970777 -0.19236299654887515
P 8.353046581683612 1.5135620623980761 0.3289363300507732 -0.7536972944644053 0.9099008103735878 0.4594080552926733
P 1.5806432115007683 5.901235299360593 9.636958075559363 0.5894940481791977 -1.0616000106545136 -0.9875776935307766
P 9.09127887320109 8.825907356912563 9.7379137897448 -0.818521747138958 0.16284570381604857 -0.9030665610605738
P 2.558056123398324 1.545913857091906 5.03510350383947 0.9240084534195635 -0.06169876256137761 -0.5178988524397146
Ni 6.157662662435428 6.850287320371693 5.81325238123932 -0.17813219766147387 0.6962079419986849 0.5185470275466746
Ni 4.169617045955284 8.340187002748737 7.896106021784602 -0.2870479842282863 -1.9849389488108782 0.7614039190800436
Ni 3.754232833361158 6.641363977793632 4.13547830757087 -1.4932640630646992 -1.620833460176957 1.6114414774390957
Ni 1.5831905969097313 7.192967266441861 2.8920032548961347 2.22750607701797 1.117023738840457 0.5240191064048394
Ni 6.605426974005705 1.8483168094181361 6.6348992797113295 1.701833237059792 -1.3296963934809616 -1.965124999408745
Ni 1.4426692699427128 8.303325392404965 8.502709248364498 0.4269476207711228 -0.12791701025966357 -0.4360583248231394
Ni 3.319969664458384 0.34735675698580787 13.736603161710821 0.6403923776909616 -0.29680737760789533 -0.32751457688376495
Ni 3.417430743253153 8.632032457768931 5.107019024362727 -1.2324837542836902 0.23035721640446136 1.6356286162082603
Ni 9.106270708070875 4.787358007628812 8.857220384445181 -1.558112426998652 -0.8167191467125805 2.6745499543183358
Ni 7.0796746590684245 2.8694598375028897 1.9000391114569364 -0.8511696150809663 -5.193464092305501 5.100011434371294
Ni 7.759345390462075 2.507693370387048 12.129957749517082 -1.5513373130583477 -1.8240840501726132 1.22309305709741
Ni 5.527769728885069 8.039293612146336 3.9659073521809 -0.5597091036072812 -0.6430994922094795 -0.5216218098172566
Ni 6.642430105761087 3.380163438196102 4.092216155518059 -0.5090786830449233 -0.16918938664588926 1.3413694589435154
Ni 0.44949087279190847 1.308393754608041 12.660723425519993 -1.1204273652053671 -0.9316754830465179 -2.5186796533788556
Ni 8.691405407319316 5.442809708115766 6.293410000450834 -1.3468407664707323 -1.1191996634458532 -1.1720042088413944
Ni 5.507720862240452 4.685575808399578 5.957816503197971 0.24698016967312303 0.28014431512991755 0.7305568517922
Ni 7.108969591271499 9.161162146253641 5.813239172574237 0.012281388470514333 -0.05107445007831204 0.2914929073735173
Ni 2.7634036916430635 6.9664292254988585 0.03339527923542755 2.263832679363146 -0.7110054120228336 3.1554393194132366
Ni 6.76204400285306 1.9613924172937716 9.882104295176802 1.4823276186578536 -0.24135973816255207 -1.1000079210087508
Ni 4.868553558849314 2.8141155308029755 7.398480886476222 -0.9702476868927613 -1.3203008111986747 0.26599656287462575
Ni 1.5036838678677638 4.771932173763425 13.673041178376806 0.6058832881704985 0.4167282570359597 0.5907587738242343
Ni 2.749110029070549 4.450782351779382 3.5685199457630583 0.0437671177836214 0.9720181485296226 -0.018787565020148292
Ni 7.254717775707279 7.010697123050171 9.920023542203332 0.826561586724299 0.5093350220301035 -1.4707784803676733
Ni 7.512173527706473 6.776620708248793 12.778319227282422 0.7968707445280857 0.008577200146049744 -1.4352972567419282
P 6.2934949132978 5.583783903599933 13.89144079467621 -1.6102996505251688 -0.2891146369493279 1.88360123170164
P 3.4640101571940805 8.41165531561131 10.432313126182642 0.9183571686710571 -0.15788835981077323 -0.5426380070576073
P 0.7612719773274319 3.39633461816263 3.1889595198275713 0.12546366362316458 -0.274340821074263 1.1449181512578797
P 6.075419852769018 0.5122093885127325 12.238315033529672 0.20565714255462 -0.07004353498164712 -0.4425812135433217
P 9.354084134559105 8.331648544248322 1.897954029325896 0.13559432429926324 0.1761218520996644 2.245307881086082
P 4.940804956856123 2.283032846838059 2.6721959722892596 0.2605255124577255 0.05798557537584852 -0.03192718772589985
P 6.8779689084824245 5.521080483496347 4.112721664584134 -0.7395711394756682 1.1987339115267548 1.9238814193779257
P 5.11130051880194 0.4095639086726844 6.704357045052977 -0.7331297547256987 -0.7835866258246699 -0.31709903797739586
Ni 5.353726696888253 3.961061659047406 9.280624143697155 -0.1753993721113431 0.4585639621248231 0.6965491273881875
Ni 8.037680268053991 7.526080365087256 4.515605762628871 1.3008442451359599 -1.767290952442969 -1.0363468925146797
Ni -0.19278329732208777 6.657157767329203 10.566022555870878 1.9342581346265593 -0.32391708934049374 1.3235918232451207
Ni 7.3937201061896936 3.697709181564501 0.22496998370237395 -0.64192064141003 4.031975695393766 -6.527326444238694
Ni 2.1364355339326253 6.375567897270278 11.74218153389965 0.4767483463433338 -0.7815557114375701 -1.8874907965640333
Ni 2.745496515694131 0.562743854170094 7.159700299952958 -0.6613111301214998 1.515207914325642 -0.4303072812719751
Ni 1.335396039943049 6.966834920212138 5.840635830909595 0.07965586126043056 1.8966449522594755 -1.8349916982240526
Ni 1.72153249413797 3.8005386392396407 5.713442990487918 -0.02806179123322264 0.26645113391354114 -0.7071549279284918
Ni 4.212592381280567 4.030426020257391 13.026089253871092 -1.4191301600637625 -0.4762572656395282 2.4206792281729665
Ni 4.392947268235147 7.084505256584681 12.40950121996414 1.0798607566369143 -0.30266100817519487 -1.575209748800571
Ni 8.940417048425836 6.966306573608797 8.149482183225146 -1.8582491260900964 1.7836873915231217 -0.6956458988476277
Ni 8.578773233200055 8.814500731136873 11.82051835260565 -0.784700684824455 0.2451379742580617 -2.234206628966598
Ni 9.2955508787176 3.5806143655991685 1.2968408900403552 1.5024745259193737 -0.6414760976734437 0.07722694010396376
Ni 7.71550205714559 5.174673806920475 2.289956074293974 -0.6422947369199971 -0.03223392033304126 -0.8443723896534748
Ni 2.2872030111001393 3.399136742112489 1.5584800149667128 0.6614633394286479 -1.6564694642130118 -0.5572961232904144
Ni 0.8975740792763457 3.1899209219504354 7.855701658770218 0.26124053624687915 -1.6523101906289994 -0.04729955641691209
Ni 1.1638815238336473 5.5740944042851 7.462387238578485 3.158231794556709 -0.9070443147613992 1.1536413900634905
Ni 1.173825761689377 0.4537034934774714 1.0282058900001232 -0.8362703293716307 0.5534541238365049 1.3571532041403336
Ni 0.3166985018508994 5.469557254909877 3.7389192731489804 -0.4636691445618724 -0.417888595892648 0.8183669667286487
Ni 1.435923415989348 8.616644362946639 11.01748529366454 0.03556247048564198 0.8629864052102363 -0.07143167357842536
Ni 8.367821417055596 1.5877758906458646 3.796515657245634 0.648245298076477 0.43726160110262113 0.15706740657137466
Ni 2.8544208288292343 3.799453641750638 10.25840595474097 0.3596842196377741 1.294201028787829 1.2269155161672936
Ni 7.272917429240203 3.5399033728596296 7.729338133820569 0.656126757707083 2.2397743528623617 1.8391005781861036
Ni 6.400126579564835 8.973919883934085 8.468491257989582 1.3681863220260437 0.3469438892529702 -1.245091672855688
P 3.3715400668487234 8.651798281590327 1.7604471084261508 0.06693815658344601 -0.5021685861886513 0.37882171179817337
P 1.9619679377009818 2.080327011610022 13.641709281322639 2.9530145677529855 2.0013289601331277 0.484084732103747
P 4.975081442747837 4.692727357066223 11.361722918738485 0.6290715533615038 0.4427640189780891 -2.441158579073241
P 8.78674366493995 2.9902813839739273 10.46288552499451 -1.4033137618567961 0.6014103400008094 -2.9246717549442343
P 0.4331828887941584 9.089684398630293 6.399626537243817 -0.16818639930267162 -1.9502516818413382 2.6775697149812663
P 9.643929420295226 6.231593447859998 12.66717208450898 -0.7550378676526998 0.34771290620851086 1.5217457154441598
P 3.084223297000019 5.36474649747221 1.3203589182215478 0.95461357989993 -0.3838543891260744 1.4744001362806607
P 2.9187564625467113 2.2563230390870435 8.805368826183779 -2.6843348016192414 1.0525142463031616 -0.9771526415427108
