# total energy = -340862.37307777116 ev
CRYSTAL
PRIMVEC
9.36288630492484 0.00000000000000 0.00000000000000
0.00000000000000 9.36288630492484 0.00000000000000
0.00000000000000 0.00000000000000 13.70353052231129
PRIMCOORD
 96 1
Ni 2.087502323481396 7.950513659657215 3.7967140776726502 0.676997173398189 -0.5762158430130527 -0.41236380941967693
Ni 5.2900963211556284 3.7973900780662517 4.952715947430599 -1.195399190726567 -1.7768613697402236 0.1372729975532668
Ni 4.391465216210247 4.955934907753592 3.3031673138507704 -1.0741644775830854 0.5469808574073354 -1.906469137438749
Ni 4.081890742331712 3.3678770301983607 9.606161277397595 -0.7389792715279402 -0.12400919056482512 0.29190788342374885
Ni 0.7378506844611807 8.945844654701117 9.773851507999215 0.13787514991363997 1.7731715795934622 2.962962937214949
Ni 3.5636268948662337 0.38585297258531753 3.750820953998472 -0.24798881344329546 -2.9216103424100908 -1.6923191269217694
Ni 0.7737882510921988 5.279600525570768 7.297733224174167 -3.6066674099982783 -0.527509378946285 -0.2780774052985598
Ni 0.6465363265842579 6.163204197943712 3.044033517540764 0.4937657068369367 -0.36545377513169963 0.6531823303667783
Ni 4.252894498408338 0.30167500667519287 7.264337681183908 -0.8281045057313867 -0.8340211283261377 1.0428774945443458
Ni 3.115528517617479 1.311403312040987 11.074220658490907 -0.4303669308653169 -0.2747059177231656 0.8871542607056914
Ni -0.22834768974213798 2.291884769352874 12.28114539446379 -1.783334121948761 0.07623860804876546 -2.083589348895941
Ni 7.291956323303642 6.097120946170342 11.525038954220841 -2.034335239855819 -0.6864398068683275 0.16949791902524358
Ni 9.332447594482106 5.032298608726049 12.270991344230264 -0.11193631856069108 -0.819027483130783 -0.44658236428291476
Ni 2.689844890261816 2.4730098055608427 3.166625533518299 0.031769579102113026 0.5340327818870997 1.1461584514228842
Ni 7.292658539778989 4.084943043277889 6.010929959697554 1.0223467215808457 -0.25894634089606366 0.5528727974117382
Ni 4.484682112591045 7.5347921433651495 3.553695681327552 0.40267512137700323 -0.1746187851915767 0.42738316564664464
Ni 0.9757531997112139 2.258431176467319 9.869981198319755 0.0138495042885826 -0.3281756075065316 0.08822560520731257
Ni 9.149693416051331 9.470091386536556 7.858631910868212 0.09083990290170807 -1.7793216583552585 0.10181157142186338
Ni 2.3527622563223347 7.0008267355109 1.4657430030132998 0.8247327610456764 0.9995392367680271 0.03916175780112611
Ni 3.155714025780032 8.819810841705745 9.425987510441562 0.24334051603800672 1.1886194488005724 -0.5240077935509297
Ni 4.716301194819669 7.848467561459715 10.961001828026312 0.19919750297220531 -0.05778991442527466 0.2490393661949969
Ni 9.288142416330848 8.400540791491592 3.4556465993077294 -1.0135705180501124 2.0828205890507165 0.6446760926679801
Ni 6.663378949004238 7.7652315019151885 9.655480281182836 0.9826650867205075 -0.52560367728314 -0.8172102274163862
Ni 5.3664412963554105 6.613456039050199 1.5750013325569363 0.5900612335365774 -0.33795994058680506 -0.2801083196856595
P 7.939559082641794 1.649028993388071 7.351875987000728 -0.5599281615966228 3.6864371711287545 -0.4190795308769557
P 8.347003807411097 7.319464483364588 7.671771170489604 0.026489561650096312 -1.1060564411956757 1.1306968654521752
P 8.829679323905962 3.3992707880895634 0.2601927387548308 1.374453385981678 0.03491275271678503 0.3115331138538441
P 6.058705023525663 0.831148101664485 1.730893390084084 1.185657537958771 0.45044416123116615 0.7079931075590711
P 4.3854823318402865 1.7996684716796194 4.751068400658441 1.5465308928086396 3.0712994542395236 3.053613606923986
P 2.017149595537913 9.27625155068163 7.641855812351166 0.3296215959244388 0.4484510420605374 0.14271936537981875
P 5.892120549800558 5.601309300143308 13.42082681704603 0.4147204825773116 -0.598258167525073 -0.9831237715244812
P 2.319364840754807 4.97569996081304 2.369655712141928 1.586826507103893 -1.628645242911892 1.3046186245767275
Ni 8.539383032997302 4.94571999875887 1.61716709117997 0.9615889827764988 2.2546777523367556 1.488648932890191
Ni 8.696276919362612 7.528537735291388 12.592243209949514 -0.24028347437923778 1.4922366502414495 3.3024377717843834
Ni 1.7538839574869616 3.2355419946975377 12.760617867542438 1.6930107536721553 0.23917044382071712 -0.8019417312930898
Ni 4.431575821282097 8.817516934552945 1.0768424109249741 -0.432370591558907 -0.44908430476916206 2.116696930083187
Ni 5.4530479949816035 1.9372560864160422 11.095653241607147 0.8235806497191043 -0.31001847698153057 0.08846111825688636
Ni 0.04934802873288801 6.865261504223478 10.758175493864202 1.201409401476389 -0.5985366179974402 -3.288418831797472
Ni 6.87686212039622 3.789356721588276 0.9151781339704698 -4.061894337330069 -0.9644858447083198 1.3629741816974847
Ni 8.399061455450193 1.4975281295534297 1.5146921727881906 -0.7581884974665394 -0.2742230645494761 0.12663788643692384
Ni 8.403920793459596 3.254567379736286 3.4978535546306504 1.0991939097478876 1.4447162360629828 0.3863858972986765
Ni 7.032913346991114 3.3785039061919533 12.40697135138246 -0.7279973185951398 0.5597188737992941 -1.250006336548486
Ni 8.763268371110764 0.7624835021277377 5.58122871781427 -0.26970717895699353 0.7219269440313437 -1.6498331898434166
Ni 6.874090706040182 8.545431457571627 3.0894472614344384 -0.9385860941234222 0.0373082495321551 1.2344439633338546
Ni 1.4146104081443953 7.181062297516762 8.560389604785163 -1.608845177466829 1.1350543710899226 0.551402897734431
Ni 5.860005849661332 7.991186037909343 12.984437665451537 0.712564014759205 -1.3328164271671818 -1.4867874542014201
Ni 0.42548794303119875 8.791460021874382 0.7526758786887173 1.238041707987442 0.2572730669586989 -0.1396083305546628
Ni 4.438260922127405 3.9146040521312586 12.345346706083228 2.8969976860677336 -1.0393036611501585 1.9353734791779247
Ni 2.7291128355632495 5.79075794230573 7.666563533108428 5.068858148696941 -1.1251489390507525 0.12990524433428594
Ni 1.3451565172893574 4.950092466678701 0.560645888762919 0.21025890299268948 0.7770902194670488 -1.142867182266122
Ni 3.3714442898931263 8.290892029587662 5.740285430923651 0.12720121513956156 -0.5387751816680916 -0.006024351817208979
Ni 2.437046959136712 7.23752986502104 11.054925622325625 -0.7257591732932404 -1.1202782412220125 0.2502377573784723
Ni 6.802839141008254 2.927119155838572 8.92487647074724 -1.474160766576345 1.499575607105024 -1.0083519499636504
Ni 1.0782861679982887 8.438572835796412 5.938164415944777 -1.577223179686174 -2.1673669456342286 0.07525798930305104
Ni 8.022411263846463 1.4939515069723264 9.96378233880804 0.9746298751208569 -3.1661867877377277 1.3550868085296082
Ni 5.301472228056258 2.3753923526012004 7.124794159491483 0.43576393351117215 -0.3508316543431506 -1.1769350704841086
P 5.193405793943445 4.450367134162397 6.967944278691961 0.5188632732355127 2.129798243351835 1.280792211581091
P 3.965285355878673 6.819729787961946 9.144845313505533 0.6936311824104442 -0.35126591366709187 0.567596733885474
P 1.563264954532295 6.926579046850824 13.088899388324231 -1.009906438934964 -0.32902175755691077 -0.3077453646766377
P 2.4481138907881883 9.250054194707998 1.9985361774980352 -1.1335551608365768 -0.08717093869055309 -0.9753634108527718
P 7.520963160243973 8.865801339397839 11.284939905835921 -0.020727719465654625 -0.7093776466114236 -0.6445585932535093
P 5.9206773531313575 6.979451266001323 5.18530596097247 0.44031144367253844 1.0737554150701247 -0.5642725546082475
P 6.5766692586283275 4.186146481704973 3.2844892918951607 -1.1531438816017816 0.5730916955617742 -1.0774400630105638
P 8.155860482821504 3.568270886489865 10.533835119474716 0.6827399894192371 1.1924359943331848 -0.0406869361964009
Ni 7.6321755241663425 6.141669559366387 3.606796354904697 -1.5648530881565954 0.3815108285945623 0.1556201326018868
Ni 3.896383875317575 6.568373741332889 13.176506043211319 -0.558920803378031 -0.6044653247770493 -0.47119939150064655
Ni 2.348155716244055 1.324370909619071 0.28369451975176135 1.0404601433521048 -1.0785582357754069 0.1517285108569645
Ni 8.021652870053087 7.901901553790491 5.671356797992173 -1.623674272059862 -0.1669792663684479 -0.6702925076845037
Ni 1.9902406602025966 1.1280967233162722 5.5662237561690455 0.6627578898703553 1.3420045214243532 -0.02827390724402873
Ni 7.281610333900188 8.592582953169629 0.8005352084938687 1.103703881803099 -0.9961741769505361 2.1403623920209265
Ni 5.403040819050522 5.028778163462975 10.365775054862745 0.46369999779980786 1.4757473943371746 -0.0944474177473083
Ni 1.0698221187487666 2.8552402774220003 1.7761554552190835 -1.3068079189185624 0.5132600681161226 -0.43665456364624156
Ni 5.527548481572805 0.003104733109669803 5.418498944394506 0.7446076734583112 -1.555810775448669 -1.0103653808492534
Ni 1.67141565462215 4.5311782061453885 9.694384946494356 -0.3604280397823341 1.0331857211778788 -0.42962182516917624
Ni 6.552335117035951 9.477113551290032 7.6173681194228475 0.6844340892922084 -0.46955954190437843 0.9751582368205013
Ni 7.362749106905008 0.7505870187467171 12.979710344139496 -0.08164563799694971 1.860469273669867 -1.3655036329875578
Ni 5.385035988622612 7.363844564606551 7.533228541346709 -0.23876832328629205 -0.7724061837278181 -0.7616378894677206
Ni 6.743412901421179 1.5879548858055135 4.21247866324187 0.30892704368956475 0.3133334002873765 -0.3555761110066715
Ni 9.101174939047988 5.754298862905686 5.325904679955183 0.5523061262749908 -0.13637105456428772 0.1269469330369104
Ni 1.7041857568050338 4.297789538398889 4.512353186874273 0.232373989724174 0.48865461086261647 -0.6750868437493536
Ni 9.557728002659927 3.132381713025819 5.938849779224717 -0.7478426354558412 -0.5240360756857039 0.02665385514210248
Ni 2.933982151524302 1.9620770980979922 8.175005712805378 -1.241320892959346 -0.6251891875879619 0.30492435028807485
Ni 7.428766818474013 5.219153731372853 8.241385768075661 -0.35966467925374834 1.195785113311076 -0.04645006393242323
Ni 3.6697926630524393 3.4215544575739245 0.9155208156104394 -0.9585149718368654 0.6325322582165945 0.46192156574314647
Ni 4.959839231356525 2.4521680205725285 2.7349777475653516 1.3694093957998672 0.3960709857969243 -0.8817351465726491
Ni 5.262663064185386 1.8508085568575943 13.592600202379636 -0.1763445096334318 0.17960878220700036 0.6668104626731742
Ni 3.9380019050898376 5.981919992667998 5.612061638813829 2.3495725420341276 -1.066086071450325 0.027867158723913297
Ni 3.0871496091271013 3.6796236937073044 6.493610157635589 0.1313736013496963 -0.3699195242125371 -0.48310077092392284
P 1.0777712092497005 0.762652034081821 12.247023291493703 1.9359020979878854 -1.5055716767874587 -0.6282750256021373
P 4.292293524118502 0.060535741618124576 12.853787949491547 -1.0211575863687512 0.9869104922604229 -3.328645540528003
P 4.99715969629966 1.2955613083571471 9.074505693602923 -0.24572701399231228 0.0030709256158398725 0.527305490465595
P 1.223251737169029 3.2776375316730366 7.788730474046218 0.5994452458546385 -0.46462122406249656 1.0988990042152882
P 0.15845561580648312 1.5230513577107274 3.600465171162964 1.115988355597407 -1.2537863724162084 0.21436675451347595
P 8.575720394874951 7.227324318912657 1.8234333497826472 -0.6432015650049825 -0.37219700739280415 -0.7432321332670232
P 1.9435947604668455 6.345059539286042 5.367220288498729 -1.918508070881154 0.08089744697701552 0.21648585773900783
P 2.936987638038789 4.651903262587132 11.404420634683351 -2.4435185946649853 1.4130343315786698 -1.578878970122042
