# total energy = -381163.9389303241 ev
CRYSTAL
PRIMVEC
9.31683280623969 0.00000000000000 0.00000000000000
0.00000000000000 9.31683280623969 0.00000000000000
0.00000000000000 0.00000000000000 13.63612657182875
PRIMCOORD
 96 1
Ni 8.001826874610009 3.455510716798293 5.002781326243588 0.6467507158088216 -0.3491524668685148 -0.7905126635205418
Ni 4.142496683526448 6.190094245798794 12.12966165871365 -0.9162182679511834 -0.2702026305361733 -0.6832302987920942
Ni 5.492244852288538 3.7130000186653054 10.620796896507787 3.475710327360711 -1.5203627190537043 1.8418997381977953
Ni 1.2299802860143068 3.4672033416795425 6.661820385988027 0.45838886999953954 0.5114772651840869 -0.7941898552618128
Ni 4.957561147659019 5.2757775642479325 2.2769192842162647 3.6830862523786503 -2.161667067035974 -1.2786882778642108
Ni 0.9490591502219211 5.144857432908235 10.178073124440342 -0.13394650428319513 -0.6360148174485563 0.4414699827570139
Ni 4.08215155894011 0.28067796646218596 10.981049929990494 -1.4968021581249447 -1.8700666875503147 -2.205675868516756
Ni 5.290488842883386 6.286691165933295 4.396341240490238 -0.6203747969184541 -1.8649242241174269 0.10182802648209559
Ni 5.675311295548838 8.613011091510396 12.307695149017096 -0.3141175867515687 -1.2527687297849714 -1.142803418907722
Ni 5.940552202118002 5.628652598014734 13.479761072063804 -0.1274197589082709 -0.19797957140470418 0.49957177199575253
Ni 2.89527094041637 1.3468785843290807 8.976252964883068 -0.27964115024125386 0.13061178348300734 0.4006935721706002
Ni 8.121268668217676 4.867122653856397 11.573648929270869 -0.9692673252573629 -0.19825365100169728 0.8992021930091612
Ni 2.9399731031097853 7.324660849415587 4.712958888609333 1.5860194378215653 0.5646085977914277 0.6661838848327689
Ni 1.5602713176200333 8.14759803707378 0.9673452975162868 0.25743144691343406 2.037348572760846 1.1383831783528395
Ni 7.195576134093105 1.1057589572958177 5.142114557398242 0.20542574327010427 -0.7281145608992945 0.26420347552994494
Ni 7.305934015940439 6.823992900516303 2.413908400295124 -0.2434407890612969 0.753007210375916 -1.0792511480773734
Ni 3.610952751474605 2.8505594608903797 6.997405241862698 0.1942527573724203 0.3816159867138589 -0.1258382733537639
Ni 6.081767433452745 9.066591768577142 7.011900369982419 0.4816097882006932 0.1582974223237338 0.327836478999558
Ni 8.270999484525696 2.1687816035714818 7.007755311169935 0.7925494914449125 -0.6640704380341919 0.8981426413963951
Ni 2.121228490110208 4.5072506788259945 12.679865343046105 0.8625169217729856 0.6910302544524873 0.24420852046525685
Ni 3.141347122379374 5.924881289727354 2.8698322607544062 -4.082627970332995 2.319865244777682 1.5158892566633828
Ni 3.480116471628078 8.050004215853788 13.306131648518418 -0.4889559441531192 2.39223382834808 -1.7268338728691874
Ni 1.825670610342967 6.0451336477690205 0.8017227598855989 0.02737762068200446 -1.985556013569587 0.33242306992897586
Ni 1.8101674009386644 7.998025606919531 6.857267036373591 0.5492691392208798 -0.7450097939927361 1.1039190831376988
P 8.866279868221069 9.151384261839496 6.734460002839941 0.0649154697264624 0.23439230570578343 -0.3820443325005291
Ni 1.8212637485351333 7.032419762044941 9.098814034036744 0.104722060200439 -0.3140785059835171 -2.18918404150932
P 1.0443237632982392 8.94054434067401 10.003748665184883 -1.252107956272521 0.42352599668408347 -0.585585714263727
Ni 0.706450693343221 0.6439738774637909 2.106140811438737 0.6973777939370699 0.29348062722750745 2.0657559202589457
P 6.223094466778385 4.385600795898123 4.475744877791385 -1.1141474457339264 -0.4720064607829742 0.20957139000736166
P 3.6607791720841063 0.012414679405789131 7.377812447570999 -0.20909856413600117 -0.8008068463576983 1.6959042731698664
P 9.043271736642666 5.152590403945236 0.7134569514393962 -0.058997561580130656 -0.01408450311752413 0.08905375753556276
Ni 5.541530896608705 8.388344990804056 4.788830514681411 -0.1650044020302642 1.515066246541455 0.8115396593941702
Ni 5.319100835720293 1.0294913658393152 8.816382639684 -0.004122506808805803 1.5759024039922214 0.17783060726065503
Ni 6.761681924256703 -0.07841046294868392 3.134890557405106 1.0016035754962234 1.567923756662119 -2.623836487123868
Ni 0.4340209187594179 7.119951404084256 2.755684291415684 -0.3786445627903608 0.4368165431454026 0.27212453014923454
Ni 5.546776273348263 1.8889225866926123 1.7268106315760718 0.9438450285295166 0.6237583686787063 0.5454243115534929
Ni 1.0157676714567805 2.8203170223529 0.9519743871345451 0.11056052125908702 1.335141732866249 0.216152385658989
Ni 5.87453312649367 6.39463598814378 8.549851351803241 0.39541046939478997 0.8290265033250238 -0.695134763539164
Ni 6.543751893501871 8.450432363081863 9.69041799559814 -1.7497943383201027 0.2666102851992247 -0.45521227204377085
Ni 7.995770933436453 7.349629960715786 8.257287902025508 0.015018327785703167 2.359286941108414 -0.9589425462925871
Ni 2.025768223549821 1.0768860931468194 11.255517295858384 -0.0006980545082891204 -0.5139390964610182 -0.4351029028884055
Ni 0.082241544503401 1.5721782296505011 4.485821963904182 0.5639092577315579 0.43248500564958425 0.13991274916895902
Ni 7.767089277890416 -0.0005916188684935158 11.385633384546887 1.4630368887490417 1.117513791102998 1.5069747277825725
Ni 7.974919862134271 5.410685299929605 9.336424010239119 0.027367850489991578 -0.3354826826909061 -0.15990539024080203
Ni 6.4743135403226235 3.4610728658453893 -0.29543862431028484 -0.3922744948689696 -2.0216242200470536 -0.30915844297408046
Ni 0.7129622276296795 8.420478746354199 12.621148800793824 -1.4131927115334049 1.8680748539312666 -0.9276751036378733
Ni 5.884353068027405 2.545051203933358 6.456173667299681 0.4387788090780959 0.6547776998783562 1.0251307120838862
Ni 2.5289051330814014 4.003135501874071 8.786765360612282 -0.6981486106648234 -0.6486520465965925 -0.10969585926594656
Ni 4.324855047511072 5.366952087823958 9.759989579483205 -2.1790361544420405 0.4702015463637515 -0.5275397179635882
Ni 8.492386060165742 0.3435908101061122 8.992562080305083 0.5569271699867698 0.37887544785424426 -0.29847062424293114
Ni 5.281563317276823 5.088648981985063 6.68899758660843 -0.651310310155046 -1.7927759840879514 -0.10898314946963811
Ni 3.6903414818436326 2.779239107531043 0.6957139754841356 -1.2262218325343786 1.9741637125722453 -0.04630531082444283
Ni 2.2851302087643486 7.628426858681141 11.13305125839697 1.3325801427866597 -0.2602028390109841 1.8953522015899806
Ni 7.99709392366206 2.533768519685395 11.864888457139735 0.8442644033207007 -1.1080894124653045 -0.32254874823805735
Ni 0.8765592858586275 2.447913907509525 10.024447872116097 -1.5146155321572816 1.5010599049600342 -0.8714936713502992
Ni -0.09006582049963492 4.666782803002599 2.988698274108957 1.9247016012863756 -1.8438008118752505 -2.291275348955131
P 5.966872254141532 1.09837070906408 10.995886054182447 2.162515273968882 1.7055600510920756 -0.3414802950352377
Ni 1.023789464303598 8.70186572377532 4.907709571601567 0.038848083215449226 0.8351236173616972 -1.6189655537302827
P 0.920238460335341 2.8755658395208776 12.35963462725454 -1.2103745810894768 -1.822181690943578 -0.6499234571098483
Ni 2.0599982664292726 0.9690623897598042 -0.2741692272254998 0.01131208257870955 0.5427807032830588 2.1301967643418345
P 5.1048695874976175 3.44079943816284 8.606781857250951 -0.5284475744898383 -0.023899689435733035 -2.2534778184913837
P 4.035874851541569 6.719635058847077 1.0202509312917267 0.5807191302000451 -1.5079252646213 0.03872595581528815
P 9.368820500467868 3.8750942717999544 8.351036666441923 -0.3303528176635085 0.4352954785151858 0.9747885121859083
Ni 4.34361914831652 7.239709969999463 6.83803988898918 -0.259564691206353 1.502729322242657 -0.23200992151653593
Ni 4.660885247982813 1.4717427744952238 12.761355019160726 0.3249676420921952 0.9243349835210468 0.5828971116879703
Ni 1.1188304733981234 5.9887761275246545 4.741540135898744 -0.45203953074274406 -0.9051802649694669 0.9658418445155816
Ni 7.01981408757137 4.365513704867067 1.690648277620627 1.5588657602249087 0.23186054042286522 0.6967471023316064
Ni 7.601817984847794 7.0887586486241565 12.874480000282748 2.2203627811049693 0.07095653371421973 -0.5192466247168604
Ni 3.424401812831366 4.542244701976571 5.048543744484005 -0.4259122375280729 -0.15344652198933575 -0.1271449079803294
Ni 3.721496969973433 0.5036251115584944 1.282270077156559 -0.17679650956918586 -0.8481267144895845 1.367775202630554
Ni 8.603452021288753 7.229396236339269 10.75599904409882 0.4844392872296883 0.4869743949467162 -1.7568167923845228
Ni 8.053283740920083 8.237328451600726 4.699690787339701 0.4273312293627866 -0.3827732402467537 0.7331081574591439
Ni 6.238057299893355 6.4941397600415876 10.9760179087169 0.12065004428460513 -0.5654899719551164 0.26060521665572534
Ni 8.863820224421348 1.044174693977044 13.823623001997841 1.5820542825262303 1.062642335876099 -1.678760157290412
Ni 0.23068943296588504 6.105637158509129 7.340708161842253 1.4340392159651107 -1.2540164861491436 -0.5996213664211868
Ni 7.993227438143559 5.81236190272269 4.205176606356007 -1.739103948485792 0.9201757099370346 3.4758692215360782
Ni 5.35484952230942 2.1346260953526284 4.1376370236554845 0.25459474879558736 1.6291165261213556 -1.2850116489790773
Ni 7.609923629187784 4.647767147717635 7.044409593885323 -0.022350599781058283 -0.10562914539574067 0.11162675774007227
Ni 4.911768915554364 7.934261204778276 2.614236139266573 -1.1946965082325876 -0.06740892557227746 0.2980273660579254
Ni 6.691582075964652 6.930176841370171 6.226895734468863 1.2075265701177205 -0.8788079456235252 0.37859674027156087
Ni 0.509559933908579 6.271942619967543 12.332008355304037 1.0815764537764405 -2.085554185931795 1.6391420286781577
Ni 8.162430434532704 2.3799289802119317 2.4965971527621105 -0.2547101913275291 -0.5018793370830066 0.0666908164593303
Ni 6.105525356518233 7.724977194652768 0.639431921583624 -1.329305585800446 1.1409833349798477 2.037740665992942
Ni 2.767425363826322 5.623034547972191 7.223438121907749 -0.483851018826386 0.02804353640077751 -1.0018555436060295
Ni 7.6661320801109545 3.1148780010346484 9.570501975212421 -0.25044370274169125 -1.0001866405440387 -0.6198904010828679
Ni 3.279021957335731 3.4868711752447368 10.905478305927321 -1.6486967622461284 -1.2093379122948464 0.26255462707261235
Ni 2.7403972325271146 3.7445374969306684 2.769129412504235 -0.47157117301776846 -1.268823212144673 -0.1621363364538498
Ni 2.5165882804176465 1.7673099710950397 4.358487881422485 0.004145903847573505 -0.07738840538249253 -0.4629777749218027
P 4.533486879356352 4.076477607902117 12.628375867822019 -1.0025317437374477 -0.6646944447714359 0.6093203388765055
Ni 4.244255128907333 0.789552181493267 5.60815649803365 -0.11473573568269918 0.1391218778365475 -0.5103452084621726
P 1.249797188900696 3.7421430709589703 4.493676053764655 0.3339821868859797 -0.5294245936911269 -0.6836828129484807
Ni 6.7541725572014935 0.6495257779950552 0.18784411500460738 -1.0590980701682664 0.3269319649074176 0.2476525131497993
P 4.289451083727208 7.562025792921246 10.047330012919563 0.6387188466432806 -0.8143822710492878 0.383073802206308
P 8.367279632352657 8.703673189294813 1.4079709188879104 -0.580977011847122 -1.26955726209722 0.8003679590480668
P 2.985047939106189 8.886963236536905 3.235348372958563 -0.9026253597580971 1.227798690103195 0.11881376240681475
Ni 1.8607205344889923 1.1583804276777292 6.825562786805141 -1.053645017473495 -0.5028082766551792 -0.8782798410341971
