# total energy = -381170.4552416429 ev
CRYSTAL
PRIMVEC
9.20987098279706 0.00000000000000 0.00000000000000

0.00000000000000 9.20987098279706 0.00000000000000

0.00000000000000 0.00000000000000 13.47957713134661

PRIMCOORD
 96 1
Ni 1.7123268541007746 6.066643365218802 9.803264877265633 0.5869638255581762 -1.5442163857428501 -0.5965918355662435
Ni 4.116876825734443 0.6566435437159802 7.572219666228579 -0.10491540715816769 -1.2115336343945844 1.395243840364468
Ni 3.7352289795449884 5.971901421789884 1.8622847373993716 -0.1961160358334042 -0.31502030107149614 -1.1876177470089353
Ni 2.5769679674471004 4.81641258087622 7.849117202125677 -0.13638673829357156 -0.8463194860775166 0.49648953352600306
Ni 3.9097376160853923 8.177656326940303 2.1703328201283565 0.09735147876798073 1.566240198312109 1.1187741458726603
Ni 2.105634397031846 3.1830235314929762 2.4002683025853453 0.7022142960937648 -0.8439874955102304 -0.3416134781789923
Ni 7.631741220811296 7.701192858353579 4.389031278043916 -1.3717946082025922 0.3031873129923101 0.17611156768701927
Ni 2.1436619545722366 2.257597269256707 7.510362488349121 0.13326156240102857 0.2794087225154736 -1.510863264203701
Ni 2.9679914623592767 5.799418956879146 13.023387611297771 0.06628303949795036 -1.3509984973928475 0.428585670595178
Ni 4.169446769653201 4.664882572590423 9.566496591481151 -0.9511737009804458 -0.14709126919526924 0.9357313982834466
Ni 9.239158433850653 0.4993214475306561 7.495130282629564 -0.2443980107682436 -0.31264485886078414 -0.9156279426653521
Ni 5.744620224167757 1.9890926888419436 12.122938519332642 0.02126867957078918 0.3482813771174712 -0.2176081442689091
Ni 5.605265665402037 5.60011734748848 0.2091082800782435 -2.2531888264960545 -0.04880416598689659 -0.28187698155030816
Ni 7.661185178538743 0.6260741397469647 10.987958219259603 -1.020155884577114 -1.4081811172514265 1.6459040299923395
Ni 0.8752508847889341 1.5614875861432733 9.225368493936575 0.17418066921289357 0.5913992356217106 1.804596373761647
Ni 2.3487565728495348 8.273752121412679 0.19036158756832205 -0.26977942695582574 0.27106189321267515 -0.21479510030014623
Ni 7.313475707146174 3.69692512587328 0.6267667220494683 -2.5602348511128232 1.7668034712835894 -1.650441512851377
Ni 0.20583601289633485 6.201798222788489 11.48546255923329 -0.13107458205203878 0.3810459731430018 -0.15896025271871334
Ni 2.413032262865129 6.918280140651097 6.76260937434395 -3.6726162060852623 -0.9961037287239168 -0.029562801258781343
Ni 2.352928644432436 3.1131390300116286 13.274795908093687 1.4908207437305292 1.573234113131439 0.6860803666463797
Ni 5.710829207307573 8.077121374624753 8.410271881871076 1.7895927012639632 0.5063844240422118 0.02965381831069087
Ni 1.5870265585480938 8.17178963908532 8.841834466157325 -0.48082688728808154 1.9488763987603661 -0.18804431456886322
Ni 5.534672003850306 6.302112138198985 3.7906051711708324 -0.7748351048842849 0.3155435205648178 -0.19024672153682076
Ni 7.825332710154725 7.621951127891598 7.189804637781165 -0.6259959997599736 1.0347492090102566 -0.7006163554790256
P 7.051408826591119 7.586097099917574 11.362367106808527 -0.32069832529287995 -0.8098352751085537 -0.24402442947890873
Ni 9.232435227988585 3.641408023220464 3.438856250338395 -0.12632164074808566 1.2656214173779234 0.3510846508942212
P 0.5135506982935295 6.499903328738446 8.049882260025223 -0.9551589108804388 -1.1925115847661267 -0.919140840914617
Ni 0.03764903184048534 9.211160425877104 5.164605570498595 -0.007550044433116031 -2.4290024033266815 -0.9835343766993384
P -0.18256819469094768 2.9039644388618684 1.223835293930677 3.4436113899436367 1.046456984365488 2.4787493928428215
P 7.137152726010116 0.6562484402481956 6.555953682924705 3.1292135529474883 2.644207594581052 1.2785476385212884
P 2.5957468945056754 0.16733967291980784 10.530447744294184 0.44347544322281685 0.37410887970353635 -0.5694492137131806
Ni 1.071632965058674 1.966906109497114 11.710786659258584 -1.2325058657708774 -2.033755198982633 -0.27294779738147834
Ni 1.8797162603242197 5.29570347987343 3.5742984558846524 1.5633723898460106 0.11217440271342617 0.6281680677106278
Ni 5.731385639477628 3.855325697957848 4.865130035737301 -0.5411462530034293 0.24837807846191418 0.2822785878641009
Ni 7.332079646654915 0.8707905442423585 8.849813898429785 0.5352841377956974 0.36848716264138476 -2.201509910064525
Ni 3.814949623301255 5.351736335304706 5.7541487567498075 -0.8432506173442057 -0.29894422144524 -2.242573512874054
Ni 0.17781313827096612 3.5531774586196057 7.785978931184008 0.08500452716685361 -0.6964727656242973 0.8384010025613884
Ni 4.829527437242777 6.441061462638771 11.290210530140643 0.18057551699564384 -0.1555352861975644 0.881769085134378
Ni 6.955027526116382 3.146801108677196 2.7430808855438564 -0.7145777027551241 -0.1746979751689443 1.0551406281824152
Ni 0.501657070827397 9.021031848046192 10.823075739934316 1.151770398293023 -1.45867835467003 -0.11565979015886532
Ni 3.728496563811875 7.401420765744671 8.973354187625972 -0.509456120989 -1.1474542874161722 0.8114015911544091
Ni 1.402156817083268 4.349702365725018 5.935690971806461 1.8731090739210643 0.6483802809924446 -0.44341862184295244
Ni 9.24247398742647 3.88791943158232 12.600910564796363 -0.6950319194127127 0.7009097183497283 -0.554757930249593
Ni 6.045589600012376 1.6413555878362425 1.1187386924870675 -0.8752569950474732 -1.1114411025463566 0.08982843091805821
Ni 0.6977582500302968 1.97116106991941 5.579183310605624 0.692451046059414 2.8220533713503593 0.16322417020138985
Ni 6.226112282344467 5.837114959061955 9.579086485198205 0.6527424146158822 0.9139814082008646 -0.032994452648149625
Ni 4.68989658234574 8.878785389772679 11.365750813430068 0.4549644176990229 -0.7907227226488188 -0.02512764830556317
Ni 7.700400809443802 6.234659042673234 13.148721062386212 0.6475385018174397 1.0560034904033426 0.22170931092147622
Ni 2.182048697083341 -0.09513888887091114 6.590718183154231 -1.1810390653501532 0.8280885648917868 1.1139772387046492
Ni 8.229093456720657 1.697176616233508 13.266384532869266 -2.3698040385896544 0.9691218008184341 -1.7122822003072578
Ni 5.080791139063301 4.3655709735337105 7.323036474276879 -0.057224785950424024 -1.1884165887611469 1.4877799000216765
Ni 3.1444986409162134 3.256334105002667 4.906350655568622 -0.12139874952517156 -0.13521354392107682 -0.4484795813056276
Ni 6.049485375463958 6.108410130403029 6.154195162323723 2.2005038373975134 -0.041238180714180596 -0.18815949999048884
Ni 3.581635960145352 8.077296362174588 4.766729010542629 -0.07244854487871394 -1.5438034665751474 -0.3287821307422789
Ni 5.794169330384104 8.591511092170384 6.019494351396502 -1.8407095745444364 -2.4639128420506213 -0.5825469274374031
Ni 3.309125085826479 2.230741285292604 10.632906638670812 0.924503390778111 -0.19641839756517138 -0.8873676622680782
P 7.3959132628604 5.070439244009923 4.172468528342715 0.09145413944693927 0.5495103086974085 -1.0227825235666836
Ni 4.616982033290938 1.936089880984121 3.682620354167846 0.38097423936480196 0.24190918290811886 -2.2026291112706327
P 3.4956986534344323 1.1025136626689744 1.2021893340161258 0.4890873275246609 0.5272941776116854 1.576019646296376
Ni 0.016166086643412 6.555540159714832 5.7556720694204735 0.599798001208367 -0.9441178225749287 0.6741944138420711
P 4.625399855425091 3.884926223493042 12.62110320706018 -0.8523168413115321 0.32000978386628753 0.1832615484682392
P 1.4002135342929984 7.380873543445661 4.405045401815103 1.0193935524897928 1.0243658088934036 -0.6744011305362385
P 3.973626491517141 2.6037871119270273 8.412266739939191 1.6255907723562844 1.3198372412986947 1.495009070780264
Ni 4.614891392563965 7.845133932899176 -0.007205803104771578 0.3154527606232244 -0.46956391277975257 -0.563207603678843
Ni 6.756564014990714 8.954251073106649 13.11721961946755 -0.7134998963099132 -0.6448319015195539 -0.4613266124716248
Ni 8.514682347921912 4.258202296903564 5.782617389133702 -2.704126896644504 -0.720269868043895 -0.5756057202328797
Ni 8.365160091523695 7.598309388921827 9.414595425392285 -0.8409870181210096 -0.08967185073553588 1.2423110247867573
Ni 6.706443896769642 4.417100202024504 11.931096905487562 -0.03934841989063546 -0.26678949108956634 -1.7341370913988197
Ni 9.04272109435465 8.98056367467916 12.984687733171175 1.1010350767216843 -3.4598455924143123 -0.24580388997683475
Ni 0.07994352263552947 1.4017147432731591 2.924825717763477 -1.30725503375831 0.38892306189823345 0.6234053562146618
Ni 7.631685961585032 2.13820971091423 4.8089065359754155 -0.303367033103284 -1.3624810441111503 0.21809948208303082
Ni 2.6225568291145582 7.428037293061631 11.492175634237213 -0.457095862219729 0.6949097920125517 -0.9169800858178724
Ni 2.065074124954374 9.69836260410105 2.7389419694967136 0.8832502976655949 -1.2378324201901134 -0.7636068402686332
Ni 8.655003943147245 8.437715455607782 1.944550068525076 1.2577301875553049 -1.221784622698631 -0.8600849152927252
Ni 6.957698388719122 5.578538619632549 1.9985088609972586 0.8649476427016652 0.5433368328968449 1.1157937230880977
Ni 0.8982470117985254 5.098897745535669 1.07881666447294 -0.3102815008349301 -0.7380189644971998 0.4422176595563158
Ni 1.860964962878776 3.8702825285331923 11.06580281228422 0.035377351058029395 3.3624812581305252 -1.0460276101375532
Ni 2.727512519531196 0.9253986326231382 4.786975070058502 0.450283981504218 1.7541431022071015 -0.09384526538693515
Ni 1.5676029405164436 7.238838912206158 1.9286446212322073 0.08217811346165202 -0.3766653275768029 2.1597343687896355
Ni 5.080312225769016 1.6435383272736543 5.893904865893041 0.5662052528545861 1.1029706031815005 -0.8017327006060773
Ni 6.198187953339268 3.4639522279460024 9.415983352958605 0.7155061281066645 -0.6305483950173463 -0.3353330444869192
Ni 3.1398476560390285 0.9422803262466637 12.646607181955035 0.7777882739753379 0.33914521914415785 -1.0312242265761338
Ni 5.33700975150546 1.044823030449791 9.787143918990335 -0.8631434996133909 1.131867745831825 -1.1334502598275964
Ni 6.897972374999229 2.871527273045144 7.032861988282851 0.5753802344856348 -0.37117987898219945 0.41582657115729676
Ni 4.479248411828951 3.5004969962483203 1.454931220139201 0.42021544425361174 -0.7536106482878698 -1.1983736999738588
Ni 8.683609802609695 4.544877952888003 9.986776162751479 -0.18251875676494372 -1.1089463611489612 0.2113220541498812
Ni 6.26786983765765 8.02369491269891 1.742289327567995 -0.23415782109747416 -1.0412204185568972 0.10894535425316722
Ni 7.712622308319098 5.231400160244704 7.91298397386692 0.09184546134808699 0.37024991096876236 -0.40408768545381374
P 0.6310566799817313 6.933807983231164 -0.08924180844148215 0.4766622143874307 0.01172217353293465 0.8791738136033762
Ni 1.1523574847587288 1.22876257493918 0.5761188782175788 0.9539877733904731 0.4576707608865925 1.4725121752293284
P 7.281149059781977 0.5582066000242375 2.615442203733122 -1.329819292212071 1.4344922443421295 1.0168638440894038
Ni 9.029265472759466 6.324105310251892 3.2652925465670983 -0.6119114966424494 -1.019265768662677 -0.8014195402410327
P 4.15833966517422 4.515231377997589 3.234802347489061 -0.6015669201833317 -0.7695954537519004 2.823064072003061
P 4.355550633837914 7.1643771048159754 6.753092814594256 1.8696141733939284 1.1379754013914596 1.6503468962550416
P 7.676630132279415 2.6486760233951463 10.808517696775173 0.33213947725028603 1.7566923509915167 0.20555584109006533
Ni 5.658452670680738 8.95099998862814 3.8408035732957777 -0.40748771227429825 0.7654991721953397 -1.1096053348891988
