# total energy = -381171.1840786954 ev
CRYSTAL
PRIMVEC
9.19242774569541 0.00000000000000 0.00000000000000
0.00000000000000 9.19242774569541 0.00000000000000
0.00000000000000 0.00000000000000 13.45404719066050
PRIMCOORD
 96 1
Ni 5.110741647690328 6.098798939579758 -0.03672191047801479 0.290616418305835 -0.07965071905410799 1.1154998459967629
Ni 8.218067201108227 6.206350344554418 1.8772160110693847 0.885471730796946 -1.369950098794686 0.7870763841454832
Ni 7.496277772167172 5.491308157600664 13.304828562460314 -3.1358002050260705 1.2326081956766963 -0.5489690914819577
Ni 1.7058663996036445 4.690509811928225 13.12751766158209 1.2806415449358397 -1.8873128762252722 0.4891600897441252
Ni 2.5665626046619714 6.755303746458416 12.393128171889003 0.3433600285564538 -0.40607463397685545 0.20193418517707803
Ni 8.1609730321939 0.27923654005421045 12.71177356906004 -1.026518079349716 -0.08714111389388218 0.38074592540407975
Ni 6.876625408240943 0.28373807193592765 5.660346792723615 0.6962871319760525 0.762276551492984 -0.7648815932159989
Ni 2.3146716987546516 8.262052968014528 10.521226303316702 0.9913939819530732 0.03621501646797634 -0.6388450878084998
Ni 2.9443897710951754 7.458938130542635 1.1802093674113812 0.1843997758377405 -0.6840448242735897 0.3437906883359692
Ni 4.190846207757059 4.368646145792947 12.270077414441884 -1.4977771204437045 0.9891476091210577 -1.386841732343702
Ni 1.7796632097862577 5.916715330200436 4.769877233342859 1.308028935809857 -0.03757281604745142 -0.8298477136747386
Ni 2.997181883810515 3.606796116605776 3.525189419785003 -0.05581299320456195 -0.9049033571589964 0.697907955408927
Ni 8.227323975878267 0.5228717265762531 1.5269670472057941 0.9585951902554974 1.5981450174405056 1.6665260771180654
Ni 2.388413354370611 2.6989703343418863 11.354637544251457 -1.3838937054589715 -0.26653315210438616 0.24876348682579094
Ni 5.74352079848013 0.3188880772643128 11.836399814572395 -0.16671007186746128 1.9063760635043103 -1.5981858979807702
Ni 6.9017391209239145 8.88758848571715 7.864374753799891 -0.17531889658239483 0.49300594585277674 -1.1220417608803386
Ni 5.020233003811652 4.213468772512841 7.467089975494049 0.02368937319713985 0.6556606167039418 0.5366249680943082
Ni 5.911668687351624 3.2754458650060663 4.594018736053181 -0.4160258316522964 -0.06695229765083308 -0.24404936917957326
Ni 1.8857989808834739 8.986581740432715 12.76942479909757 0.9554970109461481 1.488100516585889 0.7842170603198172
Ni 6.842999507437754 7.925499802293823 1.3596529115335476 -1.503121158364437 -0.3687890101525197 -1.0726570397996236
Ni 4.630887725375605 2.588891011728933 10.959478974490112 2.5150981066751847 0.8438355433133983 -0.6919509664945438
Ni 5.202050032785482 8.351100015876883 9.202487968569624 -1.9128889249221637 -1.2042949505543 0.9392098437503501
Ni 4.80339282501274 2.5174750403402033 2.3200694923444907 0.11346098273533362 2.6777286091566337 -0.16431020417671702
Ni 3.5273275784856097 6.3480424262877015 8.273027807535833 1.1668889991020164 0.6773807819898527 0.4221090617318988
P 1.337976247595877 7.197128595065431 2.5675700947461784 -0.7956008766767266 -0.9313409825252348 0.7881960995722233
Ni 1.5539615306116565 9.379401756567942 1.9901229244661167 -0.1874287924720514 0.5643957104496732 -1.4864971766545108
P 6.9661964244865064 2.8120463884096893 0.9208542101502641 1.8577500749664908 2.192063162829328 0.1556766968714351
Ni 4.16486840686318 0.515862500397349 2.0991809683532 -0.9895296750508249 -2.0995952374058935 -1.1609412661590135
P 0.08670941347901527 6.981648895577309 9.607333518720909 0.9092402939714533 -1.1093487387937024 0.8762574112875295
P 0.7666098682893828 2.877266663477657 7.4624891653923555 0.26131818356235 -0.4211304998687135 -2.458424308132224
P 8.505928076901515 1.021793501825927 4.217305691866381 -0.14213418230031005 -0.5967918673921915 -0.579895348747169
Ni 8.19111500287013 5.041283663417803 9.986104747486667 0.7037839545737299 0.06399938567009623 0.286109788684733
Ni 7.126769752870896 7.718045092253812 10.251580223160785 1.0155667225445348 -0.2847422189132451 1.213444221153736
Ni 7.977823101192606 2.0605194556145308 8.074527441392044 0.4509110735652556 -0.07475482441438738 -0.31673059889438354
Ni 6.3521514415034 4.583390451059019 11.483150442282843 0.4144227488312347 -1.096317359531041 0.2789299831068422
Ni 1.453240099474276 4.693644429799709 2.037628471967702 0.3948728517237651 1.840000978513186 0.41715814548452673
Ni 6.003749236379931 1.1340238525383737 0.7756552172205851 -0.7840113720669142 -2.169967359371553 -0.9743280276097219
Ni 7.524195175321706 4.493911359091212 7.583844839157652 -0.670499224378671 -2.368778168428301 -0.6119482634176557
Ni 3.7775914246766464 2.214134116172783 13.267560621772429 -0.10892658520008983 -1.2127032292226532 1.005543533980578
Ni 0.6429027714990843 2.048201602395211 13.429977951168606 0.746840933664204 -1.3539102717230038 -0.11428964928421607
Ni 1.5310080384559532 5.543328106382853 8.69066829790799 -2.4851532394866362 0.5646211961969179 -0.6087099589860162
Ni 4.721469908676487 5.420406962167369 5.1010748906414936 -0.08866346407567956 -0.6083546325291264 1.2458866579531576
Ni 0.24893554037746063 1.2988992371217505 10.91228137331901 0.005341981038203702 0.2323307951910644 0.4763099732543345
Ni 1.2995335146382676 3.3054775265489904 5.3671423586643625 0.10703708148686084 -0.06495943559052038 0.1723374453565677
Ni 3.650386609117728 4.384650162550287 0.9389825969665486 -0.5440760250557145 -0.35975826740881917 1.8580840612671419
Ni 9.2510754648204 0.3505605871651839 6.8416252394853 0.4707221947539119 1.1783635754005188 -2.0018390670003265
Ni 3.1027385319578675 1.8583503915454964 7.162692841375211 -0.7615715550061594 0.7216407802494926 -0.8271557686648722
Ni 5.545534289049 7.7753598794347525 4.718657025777149 -0.927706728206757 0.7238056491112953 0.7049620340422311
Ni 2.693850152070871 8.764897152196056 8.2118126732497 0.5322471507415866 -0.6602312667937597 -0.7772956506096356
Ni 0.1467883636920826 5.935835579973709 12.346752373761042 0.5097355999026318 1.1139762102633848 -1.9294941375790124
Ni 4.532547133032109 1.2614400939361314 9.030773417721193 -0.26309095919205655 0.8406764288591264 0.10937035760572777
Ni 8.296542957028626 7.1859597953180625 6.0569448966746195 -0.9685309613119707 0.8100363353757664 -2.900380229386721
Ni 4.591718790623723 9.15253263906584 6.9208161662866425 0.8619762187781671 -0.6230777976719141 -1.1299185925252542
Ni 7.231471505235117 1.0304987309294313 10.069856956950266 -0.8067337533650945 0.5919494516982257 -0.017416909924866778
Ni 0.28550301806884515 5.177304017213534 6.516628793964093 -0.010738212353110538 -0.36617394112717583 -0.07632114046024274
Ni 0.7885273738347744 3.379642033842628 9.392148896164384 -0.9032352254279542 -0.3375143684089542 1.7455450761254454
P 2.318210783448262 -0.03235183031348885 5.530017470963767 1.4032242874667833 0.3850417245659562 2.239188398451905
Ni 2.005061538844264 1.2826654096700196 9.39879594068893 -0.01665406361691325 0.7765011797327981 0.1052041420431801
P 6.629569719343595 7.759208783833002 12.451868704617942 1.9141929884455677 -1.9565400859532112 1.4767745500501084
Ni 6.259298728541944 1.0098893078565094 3.2501611731664672 1.3627900907111368 -0.4514474056846999 0.6940813825739852
P 2.049929778817026 2.549060222177206 1.562149226031394 0.7622328427392422 0.151397609880107 0.23049297065137725
P 5.474109125232494 6.909617031527614 7.558510508208065 0.7973438275097623 0.7354805143460624 -1.0883963049117513
P 4.203936224909531 3.145207548281195 5.631850266619218 -2.4097124447488176 0.7723308504051924 1.5393865684543746
Ni 8.995314546819547 5.303516050572687 3.828497251212431 -0.49052431708150357 -0.17437298772935775 1.1465960531809352
Ni 3.802089244698653 5.760453250442808 3.029420647262364 -0.4682727047721548 0.46674624082529936 -0.9300533740620628
Ni 7.925499802293823 2.7551912226175292 5.4479208177425535 1.42469171331194 0.08019913535841026 0.7106539422206858
Ni 2.685972241467171 4.842635299186829 6.686163820186928 0.7286120693610032 -1.1472771384083595 -0.32046049825046097
Ni 9.144388148056647 3.498003733881408 11.705276267052733 -0.37173549437535336 0.7492832245571095 -0.22574234334026927
Ni 3.3703668742170354 7.224843764808901 6.135651382532187 0.8132926375295348 0.322501954160522 -1.2888572479774125
Ni 1.237971825824994 7.478711042687977 7.021169900312998 -0.48032783616447594 -0.9686399760860093 0.16003728783297602
Ni 0.3599019322707608 2.93371736244769 3.10168232200645 -1.0354004694410104 -0.032638869080943794 -0.47720188894098464
Ni 5.897181421177261 4.507479382488015 1.6451476564173948 -1.1665915224662553 1.826084882652726 -1.5219038382885788
Ni 3.1822530322169116 8.39882710088786 3.631099057158939 -0.3105329547241039 -1.9061413217856849 0.6540487921321316
Ni 6.988092787448014 2.2415091660885555 12.166817953995656 0.4842672804281982 1.6186845321547543 0.4329110374434093
Ni 0.7864195501458265 8.124396362074739 4.516698468304176 -0.81761774726745 0.06600947412158953 -0.4061242562678683
Ni 5.827686667193634 5.7493763749731945 9.62871142875587 0.28761902624040786 0.06593928300528644 -2.124765566023934
Ni 5.802664878788418 2.0020831922449656 7.062635103523229 0.05686226040468271 0.2188726128036295 -0.5768485915010452
Ni 1.6012473790894046 1.3332053775803343 3.983393336202603 0.39511864918598405 -0.8265695571440991 1.0909064729281146
Ni 0.17644405493898443 7.710010910377926 0.7057155497326187 1.1653501938599866 0.47109526182261446 -1.0265427619400644
Ni 6.556443956388601 6.010220705533961 3.5803504211381174 -0.07914961104797337 -1.0947662129938371 -0.5473192145833606
Ni 8.856177960007884 4.003274718995697 0.5968818010832605 -0.33745009082992206 -0.9254194748344772 1.648762068266425
Ni 4.756502250929344 8.431322333074649 0.08883194505240406 -1.372174103029198 0.515412595682751 1.147017714099386
Ni 7.795233908285625 6.569488011402195 8.026779213797182 -0.6998635364734012 1.3971883656853485 1.8965876166589786
Ni 8.833794398374268 8.876281799553148 8.919750952018461 1.8922357674481864 0.6709818204420444 1.1935379691481123
Ni 3.9710552596421764 1.355910674186096 4.3855758400272915 0.7269758193091609 0.06992603556717635 1.1054936267136704
Ni 7.335217245110674 3.713226045391812 2.9967810939594983 2.1404079005468812 -0.8531478218532597 -0.05162877991988528
Ni 1.9559647820947201 4.979437009343486 10.824278585251966 -0.04588570678852097 0.17722022737016577 0.7885712235234549
Ni 7.731217841256263 8.083912910150945 3.5672999314250813 0.3953791019362223 0.8758051542414594 0.36560906976264135
P 5.099582040370734 7.375176728651259 2.6152245595777286 -0.5474588254850185 1.4611787524943805 -0.7969411927547049
Ni 0.20097312921542748 8.161386691443802 11.478602948262248 -0.42138735307452585 -1.4254733286729708 -1.0197946445829533
P 6.534648710132625 3.373473914805192 9.23021600771198 -0.6603485090979144 -0.1810563132868043 0.546956174816987
Ni 4.777323099841105 7.318100944592484 11.482558449934096 -0.8409163127840744 -0.11066953603312554 -2.0169810648480877
P 3.7337895063258557 0.7270116471603789 11.188816258849968 -1.9369847895291028 -1.132881788918636 -0.11054586597106768
P 7.296802089436392 5.137160685117436 5.390996708742076 0.5399738299618829 -0.6722370330053842 0.5865557914864802
P 3.877329266042037 5.7554158000217726 10.253208202119847 -1.732195908512049 -0.6974999213372309 1.878570611256268
Ni 3.1198364476205063 3.660498279670901 9.030168555973557 0.7069158153344922 -0.012773497615584451 -0.02104576492670569
