# total energy = -340872.2921005322 ev
CRYSTAL
PRIMVEC
9.25037781851155 0.00000000000000 0.00000000000000
0.00000000000000 9.25037781851155 0.00000000000000
0.00000000000000 0.00000000000000 13.53886297991143
PRIMCOORD
 96 1
Ni 3.864160390117736 0.19124138914910363 3.3967924434000323 0.9158089483279067 -0.22219550652927542 0.2489794594913389
Ni 3.1426124075692865 1.3500371627016083 5.487382490192944 -0.054329466680499976 1.1141993820177842 -1.7245090813907527
Ni 1.7495609872992792 8.826608906437297 4.950593231911033 0.7136217665997581 -1.2225364132629912 -0.38713434542892683
Ni 8.449017728010524 3.118783433914191 2.268260206419737 -0.3594584767802132 -1.4552279342275842 0.9465189758172537
Ni 7.091478508773869 5.908170158634159 6.797334990029791 0.06779819059089615 0.6260546209120508 0.732042692309107
Ni 0.001997156604089769 0.2978205439878284 1.4648639545398998 -0.8598234341012224 0.5810957968131735 -0.38114161818060166
Ni 2.7200366410661423 1.6394444879241767 7.617654808408851 -0.3341991879927922 1.5082404818688735 2.1679410729701436
Ni 5.184365083860616 5.544343542629274 5.283446807353278 -0.5090444873728781 0.4771316978246815 -0.026901709486850445
Ni 6.582050943494444 3.103649815552491 -0.028456937754336994 -0.41979172645263185 -0.8021188803009025 1.6105176800732455
Ni 8.27038367899905 7.350193079886341 11.538699472825751 -1.5027442346409927 1.3694888428875513 1.5073945889288105
Ni 5.813760801055001 3.615084712851774 11.366376956704366 1.5248536649455222 1.2768838776656202 -0.6871774563653004
Ni 0.17802722421653192 6.738502586129786 5.402886762686057 0.346201611770307 1.1813871927181911 -0.6897405891067864
Ni 0.8982533277528252 6.148346972291347 13.36566022268983 -0.34829294708169695 -0.09324362724719425 0.14938160789134272
Ni 3.3575449397417083 6.8370376122843215 12.581069989226457 0.7137135549826159 0.3144644285680262 -0.595384959742336
Ni 7.103679757318539 5.435170581807285 1.661150499834768 -0.733174491920705 -1.1662433950982174 -1.7119456429034452
Ni 6.653352856900299 8.821650703844467 4.580373679689907 -0.3923094618719631 1.3577191039461325 1.1072550894894673
Ni 4.911358678781869 8.678380849818797 7.8626538441026845 -0.4682235967017743 -0.6806134299945376 -1.9507749013346596
Ni 8.807035106649183 8.563074888401571 3.718949806793603 0.484542645576772 -0.9738346329130713 -1.342531597572417
Ni 7.755350384668776 7.646408683296079 0.31525750646448064 0.4299768945157498 -0.4240834118494503 -1.1047330943985618
Ni 2.9759298468972464 6.507585400822268 9.99405008324215 0.5945125844397117 -0.7008477547635413 -0.3244171689053639
Ni 5.363979672937091 6.955877218086735 0.8784038667011539 -0.572529138190085 0.8163260250392199 0.10747699723775685
Ni 8.54635945540671 5.86041970754425 8.841595443789247 0.20530567275247225 -0.8355365365293997 0.5918442935789291
Ni 2.702127909312934 6.4607599875295305 6.398101627300431 0.734374168655761 -0.2572396426176021 -0.8395875666703217
Ni 1.3935879421923663 0.10918498631335233 8.76014586574844 -0.30753093467298653 -0.3065909393572203 0.10045788560744634
P 5.428732318738983 1.545340392818085 11.922065662220255 0.29621679521174793 -0.7543981771861717 0.07404828526566602
P 2.127438927443175 5.2685065218911875 8.260196237738818 0.03697709144498148 0.8445986467316681 0.0847949822592088
P 5.8044549208154725 5.897328715651328 12.669844016545255 -0.558320965010503 -0.5637925296480355 0.03171147217066797
P 5.0085801512644235 7.616289452620228 9.668156492185814 -0.8070703107689068 -0.3982065440826884 1.832475359560102
P 3.214321337605896 3.6596900354313058 2.0095197342489444 0.7228214308211551 -1.0012816733804304 1.0151340058824905
P 4.932893558699984 4.227542987979979 7.178332157625744 -1.0069825804199497 -0.3467844808569705 0.41182233509391014
P 0.7431938670022242 2.257637997394835 6.650506515598407 0.8166551262438645 -0.3472971588273309 -0.513071092033768
P 7.167766375906469 2.0589398785627453 8.910210122394323 -0.14049896068973222 1.1103735805137909 -1.3384558848411465
Ni 3.881911865445426 3.6988653861414504 4.3637113268367775 0.6272764091342939 -0.3451646858653604 -0.49138743641274724
Ni 4.7547960316108675 6.143277765162856 8.065520183248822 -0.25297238270081596 0.3135558007108277 0.053791591899158976
Ni 5.841983704246655 0.07500668978351964 0.09195985749225202 -1.3956503317742674 1.2946509718410544 1.4535194361769097
Ni 8.617485611631103 2.6305207334340133 12.26886325741704 0.2990416662550527 -0.4506138540398111 -0.47882836880081414
Ni 8.86702380779565 1.3944944792335927 10.015604388954007 0.5638292964232419 0.5769627484814064 1.3116989284622766
Ni 8.04642277792625 3.0259281398342783 6.968981303521444 -0.6084538771111522 -0.604026694577734 2.0807979021937326
Ni 8.392812431454484 0.13975101024523667 8.147931800598688 -0.3847195653398471 0.7100047386724612 -0.3118614437275403
Ni 0.7727506746973963 3.433102027014544 8.5843433574341 0.4600202349553755 -0.4699657762038616 0.6778569502953229
Ni 7.345327381073227 0.5244437038408828 11.97049416601549 1.4520456798448604 -0.4323189123853652 -0.6908484774589844
Ni 1.3017964415791992 4.546116754947314 1.6899885531615388 0.02636203493329653 0.23685645097555982 0.18565036041538993
Ni 2.5962295822929264 3.7649130848593795 6.562774080839222 0.20567565449738126 0.6295024702513352 -0.5113268556491517
Ni 8.404227397871558 2.609531625816229 4.6949664369655135 0.8007225141740081 -1.6729193822389188 -0.7305067152805549
Ni 6.606111176598834 4.328224101823949 3.527347652903603 -0.2717949147239577 -1.2834805570465313 0.7870948960882445
Ni 6.342003635128862 5.995179213835959 10.563197163669066 0.2642543833725384 -0.9256416181476124 -0.1806624202824953
Ni 1.8662637557902313 8.366125091006133 10.89514327703229 -0.6468026520926796 -1.0883888487125837 0.9180481220710706
Ni 3.5557712892972417 9.560728152649284 9.51849740209509 0.5473593237926767 -0.09830792914397908 1.1878638015814704
Ni 6.775078580629883 8.697334874282808 2.1360667549773784 0.026667996209489554 0.13171710073204412 1.3875001918633072
Ni 0.8625625944246198 7.299371503309827 7.562430051917809 -0.13969060585582393 0.45232955117933704 1.3472290030480862
Ni 6.563836949268169 4.417406995849097 8.752509678732801 0.19279134233554537 -1.4065302119115648 0.39255217401038844
Ni 4.187266842291203 2.0075077770400998 0.6239130181705599 -0.013207242718893382 -1.1174705965698883 -0.18216805829374433
Ni 7.128711280109957 7.729282819544529 9.049389459280908 -0.2608008776062992 -1.2237222060409763 -0.46422578839629086
Ni 1.1017385171852694 3.597499744327575 11.007650999113075 1.731664204378295 0.17126838066210506 0.32196896447518747
Ni 5.2581923504527435 2.3256190251088498 2.6940171779073485 1.0378016226833353 0.25463280112237435 0.24645232219411103
Ni 9.100956616321941 5.051649911100653 3.4520717771211067 -0.08430441577603544 0.17257347262677375 0.75161161557997
P 0.6507159883435572 1.2205873733656556 3.671496292836585 -0.5540539622040329 -1.1909426976171102 -0.021817352985407587
P 2.5630299757524995 2.2594140699654015 9.861613346859139 0.5424122642000465 0.9348988750798222 -1.7018959719769269
P 8.564286687915864 6.7424617479016735 2.080747644631025 1.961510799694925 2.2311773552219702 1.3066392545511818
P 1.7005617351831908 5.351732172502562 4.65128985233434 1.0451467501944967 -0.19293223878878385 0.0744329222985944
P 5.34225053508157 7.145704224443967 3.5691963628475682 0.22730403140043434 0.22336253025418304 -0.8760198413554267
P 5.110685823316035 1.4912626831955338 4.751274412717041 1.3512728341001568 -0.33477408665965575 0.10878131787147717
P 0.025241506371374494 7.876188072113077 9.850524918784464 0.6303943859379852 0.6099479451581753 -2.8454139004531704
P 8.904182576107964 3.853411450914622 0.44913730181108 1.266646259098012 0.8344528165469177 -1.0681241849262764
Ni 3.6960902727499407 2.7989331147867618 11.847818428468212 -0.29412571701067414 -0.7031617476086987 -1.1918279284355409
Ni 2.1484187846829874 3.086777126132113 13.459458130285057 -2.416964241215225 0.3724880562706617 0.1985236168336323
Ni 4.723205990837516 5.256120265787083 2.4310650086460415 -0.28178133651270826 -0.24313071402004577 1.0356987174077195
Ni 2.0607714534011414 1.612405633112901 2.080029815300421 0.605512535094641 0.36974803163167935 -0.43657331678634487
Ni 6.225300866637909 1.0733768583240408 6.964120229897317 1.1775945584449783 0.10343213774442186 -1.3246462326515638
Ni 6.050912741115443 3.3043830175383553 5.676195655124478 -0.303209167369181 -1.1374179862260927 -0.5198490341875498
Ni 7.39554768308158 6.535234780579676 4.2869452151630405 -0.9635157674855664 0.17282878317068945 -0.5387504990777431
Ni 7.821231576583215 5.120666981147498 12.711245933233187 0.05611432649506465 0.5051868041896848 -1.359567212898465
Ni 6.026436241002328 0.44289144660458907 9.676442055735063 0.08875499534822134 0.7246538560442035 1.7505001061378753
Ni 3.0361128059811184 6.926128002529753 3.5933907264325464 1.7078074523653557 -2.225748213786599 2.2920091417973625
Ni 0.6767530272204977 6.001312214431194 10.894235814953264 1.3296403434320456 -1.117657515769714 0.13215264560756596
Ni 4.13344814325186 4.3823295625804155 0.16233950821432794 1.6639552310670953 1.7384814844104446 -0.6882310944407953
Ni 4.015922091121427 4.226895461521961 9.865349574521908 -0.8754331156140213 0.4224844427934466 -0.382343866018819
Ni 3.663242180572438 0.0631662059797452 12.2271366524623 1.8686932042415558 0.6550178409136204 0.2133156875411423
Ni 9.065240906973212 0.16850858528365387 5.87616477588988 -0.7905656282456642 1.140659890202158 0.5032767316511655
Ni 0.3344659163227132 4.896891087634132 6.787276129023365 0.3018858205720672 0.2078631490670033 -0.2598364568105009
Ni 1.8418705090788614 1.3083734603170771 11.56614256915439 -1.662324380331892 0.15436980513455348 0.9617910714849758
Ni 1.8309365623163134 8.528885491418173 -0.10446266835880011 0.3513127077446272 -1.2870901287746608 1.295356482548511
Ni 1.8295767567544736 8.328004283384761 2.631711257078971 -1.9939851181735464 1.2013788053487697 -2.0297813019365494
Ni 4.908972081265171 2.3957461405122986 8.510759375782628 -0.022274752237800347 0.2800175597440661 0.14503207267339538
Ni 4.679729214370532 7.958396181147564 5.443124056787352 -1.5912290070469628 0.46500894641921847 1.0368117479662404
Ni 1.681755716766727 3.11039334109386 4.020582431543568 -0.914133874618329 0.9005895602749909 0.17463806846528632
Ni 5.682525688770511 7.935242485084402 11.808136157045219 -0.3597348703700514 -0.3183923028675227 -0.5898596590487325
Ni 2.92127861384045 6.338395987719899 1.2646839251567437 -0.6943176669545075 0.5073570723681261 0.3821728876585934
P 7.22288012786185 1.5245825446495926 1.3627268312031848 -0.8788040889687833 -1.2361519471638969 0.5768869009381483
P 2.888809787159787 8.910713342955983 6.8738430161581165 -0.205523188079917 -2.3118529159961665 0.38853842486530504
P 7.447183292919602 8.097901131338753 6.640365326228034 -0.6392297248414281 0.04587747925840486 -0.5106725098946044
P 0.23368859854783788 9.461471597012958 12.626248835240231 -2.710598363301461 0.8890874731726623 -0.5702488267963405
P 3.378580299249351 9.183960257861994 1.3080265711431383 0.8754210314291634 0.2428728323729688 -1.356704289528373
P 7.862275503643642 4.506534387606416 5.3399444158532265 0.032740427655814586 1.980489911900589 -0.5374281807218938
P 2.943997542138942 4.893237188335312 11.904289210872044 -1.4333722718050734 -0.17479541997875703 -1.2880517213569815
P 8.367827160552924 4.2649977683873885 10.59175030535431 -0.9051149589491702 0.7089202473590307 -0.6430257015487506
