# total energy = -340889.115359012 ev
CRYSTAL
PRIMVEC
9.10120263998414 0.00000000000000 0.00000000000000
0.00000000000000 9.10120263998414 0.00000000000000
0.00000000000000 0.00000000000000 13.32053002727729
PRIMCOORD
 96 1
Ni 6.512128737104048 2.1563933876791657 11.464780096915826 1.1029824302560423 0.5154647890769252 -1.2138216590978128
Ni 4.849876031851085 0.3552199291836067 5.951665772639751 -0.8999010188483987 -0.951550367593574 0.06664067994768523
Ni 2.805354623918906 1.8843129423052503 4.722300837504729 0.0016727597167326032 -1.1848023890473272 -0.19565812236037916
Ni 3.3701297380743944 4.635742942078298 5.280258240951751 1.342767881952939 -1.2824197198821852 -2.172460300996736
Ni 5.297172825588896 4.7020452014711385 2.931794898327543 -0.4660489576479587 0.9155024728310813 0.2806117416846393
Ni 7.178400460284787 6.31649839178502 2.5575680180779092 0.26458374168749915 -0.35697453401609486 -0.09171150687338399
Ni 4.9723964183914315 5.050612151709492 11.24447184132313 1.0118147117012701 0.051351614999098655 0.04717871456833165
Ni 5.483237807198673 7.616541444420785 12.455787271883286 0.663869120656663 0.984738938530401 -0.5957014625414903
Ni 1.8599399223115607 6.411897195210656 0.39614439583917943 0.6723499044341646 0.3987320775688552 0.7201873356324178
Ni 2.878992452436061 1.67033457297305 0.22726430457745336 0.12254263332162767 -0.1753525780338077 0.12305222596819453
Ni 0.33725051518975285 0.13472418882172715 4.626313186284623 1.6530000176071726 -0.22312855986650604 -0.322887876745031
Ni 8.407536045119643 2.274126541763694 1.0863814051466496 0.01295450327813898 0.6174676505739882 1.055070437066112
Ni 7.068248607789036 0.49844919163644014 4.82654782989148 -0.8841995489527418 0.2519133453086823 -0.30379203645584457
Ni 0.8003506367531946 7.39233332360505 2.6397564262381077 -0.08303531925562473 -0.05151128050541451 -0.5939058040936481
Ni 7.587144560709203 3.8966615997976635 3.6390220322519737 0.30886765120653903 -0.33144913605148074 -0.09190253983826752
Ni 7.381184350680378 3.9533529894693187 12.87608989933981 1.2742482398149861 -0.11324346740788883 -0.2778004974880893
Ni 7.912139396763966 8.877749666469144 7.019825660486413 0.06497897597454615 -0.5876194568643041 0.04866815462966457
Ni 6.856327110196407 0.641760364910761 13.307954694309398 -0.42947424384771843 0.021995016213852442 0.9577973769445505
Ni 1.8404269443927894 6.457521522779127 9.372524702701757 0.6918622634354794 -0.1975309139030598 -0.6072765689735993
Ni 0.033076499836842986 4.72090289281801 1.6547824383333125 0.024921960052660307 -0.038188081033947135 -0.44141316137714953
Ni 6.4682882452035235 2.0210130021653008 6.847977667126127 0.28241511344196524 -0.8835259199244848 1.169844225075598
Ni 3.3412698253036743 4.225242309593097 0.2720704340512892 -1.5040215586915195 0.9277193266122475 0.9003373350548688
Ni 6.103867000406168 5.551751658771674 5.037930536302768 -0.7329652041233765 0.5997473504760897 -0.5384139416739308
Ni 5.418200614937693 2.802505947571623 9.250908065558487 0.792438419788345 -0.7062370440999127 -0.11914543471462062
P 0.06817346660370802 5.518304739997659 12.664493314672415 -0.022817769225463927 -1.794838523043935 0.5750848147324031
P 3.9361699193617437 6.1260921366364105 12.891315300813837 -1.5683029943784088 0.9594557384835799 -1.1714984728495694
P 2.4323964512820884 8.68331157866288 1.1330751239956502 -0.428835581822455 -0.32100248679686005 1.1344265076979367
P 6.305149192407824 7.6608005916311335 5.912263937143603 -1.2138815658014706 0.8925756888315788 -0.3536974059267199
P 4.8487929887669745 1.1604579116188816 12.329083062605411 -0.8214697740236885 -0.8679702315780728 1.2075743926365203
P 3.989029702828266 5.821465791524843 8.261232396500317 2.0961065075263448 2.0939184987360906 1.0107333057116334
P 4.349701252241978 0.7973563411677114 3.4988107285108305 0.3658360981717828 0.7250554623579964 0.360439866856876
P 9.177106415398358 5.682399419044046 3.736555067637475 -0.3205954811664285 -0.10925182974999248 -0.18095501182224966
Ni 1.4022040494353039 1.2625369975969327 2.4425188085774505 -0.27609199943741486 -0.8286367240857729 0.6069829489925805
Ni 1.6994402182082327 6.632328317035585 5.033401777994754 -0.4335787529343953 -0.859565038233513 0.12727089203523242
Ni 6.3353924879414425 5.800296394771548 9.164564048388163 -1.1226997061793116 -0.5262125145117325 0.5214297484111085
Ni 8.881153516162065 2.6667069067479336 10.391971314889634 -1.1112539262362153 -1.126131614678996 -0.49013248095972367
Ni 2.445502182720069 5.0154542068866315 7.214185477952146 -3.0931641155230984 0.11773544174097143 0.6028470724473359
Ni 0.5705370853870062 0.44638576337882235 9.574077200414322 0.4829123090622005 -0.79754720176982 -1.6010447075858039
Ni 1.559318106250487 1.074506156271457 11.528078959520796 0.38568887123165185 0.6299120469849281 0.6879654994842345
Ni 4.185806799648117 7.059183810211099 1.6357745771470467 -0.6216423507769682 -0.1348196509167678 0.42530597140264176
Ni 5.687969354905187 7.919038108173682 8.190460536614982 -0.45686240605268413 0.7221074354732662 -0.9515508818142064
Ni 5.41343158488665 2.47732908746911 4.649850715899141 -0.5001903794163579 1.069772004942345 0.4695454008369913
Ni 0.9994758437890164 7.730097146609458 7.253468087697017 -0.35438311913983483 -1.0399834608260023 -0.13682613982383532
Ni 5.37584361902633 4.259526538986759 7.233061371703793 -1.246801456457943 0.559378716851056 -0.2372518866417656
Ni 8.434839652282104 7.228329656582539 9.242595937417997 -0.16994863340941696 0.6394012174222858 0.4941732266880005
Ni 5.018166365198103 0.2466070900115789 10.342445301857648 -0.192458641586475 0.4679875694315683 0.07503404621770304
Ni 8.02989075325327 7.442517353569652 4.610341486214822 0.30346653479562574 -1.515155720931468 -0.07225905457572718
Ni 7.306964045210425 6.219670699584549 7.021997207376067 0.9220662420915281 0.40249822947950675 0.3313738027288551
Ni 2.3418758923361453 5.242383587216225 2.610516993327829 -0.6428290121569123 -0.6947933210393453 -0.8085517804104398
Ni 2.48739501730967 5.279134242456896 11.421648588681288 -0.08911392134953686 -0.8117630882588859 0.12260202580465339
Ni 1.0790294538580378 3.7281255339861845 4.119294302480125 0.1463119678270835 -0.5135513741042962 -1.434331293284233
Ni 3.8265368354020786 3.000293277856484 2.684686332064414 -0.9838735052063121 -1.375751278857495 -0.5287093127916571
Ni 1.2710557230316202 3.1245246904456776 8.444030046452987 -0.920680160377279 0.13600184415032707 -0.4618480321927337
Ni 3.491940230828517 2.2935121028490406 7.123832381130134 0.3158170859411787 0.8366511097498172 -0.46768803591327834
Ni 3.857835870412645 6.890511226363807 6.334164735739371 0.6593843454124321 0.6831071429506688 -0.5171727729069673
Ni 0.8587330298284443 7.1871922217911 11.673646320866975 0.2725189373741759 1.0603918492790252 -1.0183368290905044
P 0.2815038303259192 5.663059363970636 8.067751755185215 0.038694074136088205 -0.17376337916981688 -0.4858081425527569
P 8.40443253510551 1.6479911211117702 7.997552360930052 -0.03940344149828698 1.3298771420331998 0.3734540197283568
P 1.863698718897593 3.06665014446365 10.672928162952067 1.6545413939523637 1.3774602911288019 -0.637184155166309
P 3.7047809498622812 6.198819844914817 3.812148744547701 1.4823093638254086 1.3055069407189515 0.9065408927624193
P 7.097527175869581 4.001015986372587 10.169292196074997 -0.6585446231199562 0.279551418740925 1.193153846335816
P 6.403633303442818 7.656586734925727 10.314258878063603 1.2155561252904161 -0.06492421147721077 0.6192196002680884
P 2.459172188706074 8.815897895043785 5.910638462397199 -0.15414997581426354 -0.3851335129488141 0.6203971655159574
P 6.603541213883964 3.7915427122221925 1.5504963107762961 1.1347347829669747 -0.018359476343794187 0.43630437939567446
Ni 5.110361545383343 3.050886861928523 0.23330932320322206 1.9513526282150007 -1.9905969184276042 0.49407192522344584
Ni 1.1014366141360303 1.027270915880401 7.078089737930625 1.3153110712935672 0.5957577697007225 -0.4028712965482094
Ni 7.383414145265313 0.5685193488177004 9.489878336646726 -1.8080128556423638 -0.2889277177495024 0.30577255722098307
Ni 3.058004002195538 1.5523920912336096 9.366663528364214 -0.7461117688076634 0.19117206156456754 1.2257063263505408
Ni 6.291752222493444 1.5458938327289442 2.636065888669982 -0.665750396839776 0.9438977361443227 -1.1932039828474612
Ni 4.147791077275585 7.081145011572104 10.162218741579442 -0.2585056538142193 -0.34082697772195497 0.025636983841813912
Ni 8.563175707148055 7.162700886166372 0.5498382207971451 -1.0428101316415204 -0.011294599077212806 -0.18396423096221867
Ni 7.707726391141015 4.1373793017443 8.017027113798797 1.343261533759906 -1.7100687375957064 0.6179376482318711
Ni 3.2241373505767204 8.488827984844674 12.36715248207203 0.001459101044029745 -0.050983947247034776 0.08136410220078891
Ni 0.14303085624078626 4.952255457507923 10.400096868381185 0.03362514425361306 0.4921615955746104 -0.2285402178003806
Ni 8.703616361189361 2.13461421036591 5.496290751662807 -0.3339104531077797 1.6809417383227632 0.21912509513406778
Ni 4.01226507252352 3.0006482247495962 11.471787112633953 -1.3610839066533076 -1.1044903822601366 -0.7420987909935284
Ni 1.1532406581256045 3.485569389157276 12.870468996745299 -1.0692457001252296 0.16057259151115572 -0.8034787367629067
Ni 3.0642747306405163 8.536764017819568 8.260260388085333 0.37627991921292614 -0.5140614809714954 -0.340553155235278
Ni 5.494596107778257 7.913486374717315 3.742203273839149 -0.5867671361663378 -0.014456027524329944 -0.03981507511440885
Ni 2.5549623438343714 8.377929833753148 3.8262155629578003 2.0462106511371663 1.2252309293760189 -1.2002588328117134
Ni 3.481255419225607 4.049934949205328 9.248976790411863 -0.7217917040050602 -0.008840738220081547 0.8000835950384286
Ni 7.276875470117393 5.958830239159179 11.612837547235221 0.08330142843281782 0.629625883203077 -0.7309463739211346
Ni 0.4826513245322407 0.21181319328421716 0.25090194741823385 0.437841127755175 -0.5356767452484258 0.4101981692269258
Ni 4.671355947020532 0.34709892629325223 1.3217694429751736 -0.26462719333092494 -0.2859043575421463 -0.5163927002078332
Ni 5.75455375157204 5.6220038400006835 0.4123099515198333 1.6546195554884666 -0.8395055484794768 0.9473553556756201
Ni 8.089995093820232 8.549287272304749 11.670156009751373 -0.6167284584151185 0.40585788998035904 -0.8514130985503401
Ni 9.11339799868595 4.903099863413107 5.939131596711703 0.015054837450593427 -0.3059581908692279 0.27411662087859884
Ni 8.023164964688917 8.932811940913439 2.1937447222774114 0.30064397774516605 -0.2305575053407255 0.5679106655814671
P 8.269507209711021 1.695262766312376 3.2785416080883993 1.883693791415446 -0.12684948822709766 1.2932558912657406
P 1.840554361226214 3.1378215471337962 1.629740479964143 -0.05447601956069327 1.5058917791310389 0.4274834386699347
P 4.822636133105338 0.8983414626187866 8.188369080306337 0.6221365168045673 0.383671583691307 0.07862793421654846
P 8.672399237000281 1.7265344977157806 12.284352473111394 -1.4332331751240477 -0.8028354467519528 0.6349133568542613
P 6.42705979838821 7.880376200431638 1.1774334743120218 -0.6158661104148232 -0.553534342255137 0.31914229365966973
P 1.7072035438447588 3.1673913536907405 6.106463573447318 -0.2879321866054525 0.03729822222982609 0.5443477906598625
P 7.0762394634852495 3.7899955078163194 5.858222817607185 -0.23792654411128702 0.8134157933709604 -0.39106196261810716
P 2.2256717402527144 8.366070967042255 10.396034091635409 0.7189933153243165 0.11958380780361987 -0.7929618963919828
