# total energy = -340885.277205835 ev
CRYSTAL
PRIMVEC
9.12575295440724 0.00000000000000 0.00000000000000

0.00000000000000 9.12575295440724 0.00000000000000

0.00000000000000 0.00000000000000 13.35646189402260

PRIMCOORD
 96 1
Ni 6.639359488757686 2.217603616243705 11.56589452691772 -0.07061920497945902 -0.1195025609437232 -0.0583622419889769
Ni 4.556342478272555 0.7605986627472453 5.987207624775872 0.6289576534914587 1.3052372319973327 -0.7260923882629431
Ni 2.744250823887269 1.927568933288797 4.546232056485199 -0.31054092514390386 0.06143162494292 0.8042030165234407
Ni 3.6177770301400773 4.629850418968601 4.6768188446885794 -0.7915390479025272 1.5735673281011415 2.391591566778391
Ni 3.6012502913938897 3.4058770446699067 2.8929695707956746 0.8713825996937316 -1.2870639035224156 -3.0697539641292746
Ni 5.33632971591773 5.404791115185482 2.8763004703021426 -0.3119010387162241 -1.0855536932566336 -1.2426442397564599
Ni 5.163159426327637 3.4721482632092853 0.44764465104520834 2.126741715913698 -1.644431044991239 0.07037957816482718
Ni 6.014327537644962 7.819036457825019 12.568791058494359 -1.1336824304430604 2.661835592075461 -1.6578450044042996
Ni 2.4790838179524393 5.562456750369296 11.785848902016486 -0.059238216836027015 -0.5733274657216642 -1.4465761720898571
Ni 0.5988474279297116 0.3657483181594888 0.180081222363416 0.4275052930468057 -0.8017697244915999 1.0834345900311018
Ni 7.903969841320752 8.964774751355595 7.194204360703759 0.6853979958673744 2.037258584150201 -0.6038598299825664
Ni 8.576163684117793 2.3820953146976165 1.4201387363861069 0.4969317632697442 1.3012443087878558 0.07179394201385055
Ni 0.3338309969199573 0.17341577234673156 4.93744305076264 1.360457071702586 2.4849362383798232 -0.6598216900601668
Ni 1.9956287994230146 6.705758467839554 0.45433474059508694 -0.8862111800661319 1.4417957199820783 0.36771068948667646
Ni 7.8960669391925355 4.0567440026244075 3.8822824189798775 0.3169859094382992 -0.46229643258406183 -0.24633610833122088
Ni 7.3338475462189665 4.291458370681807 12.58318967163281 1.4538102279444511 -0.8341504548151505 0.7393217424690235
Ni 8.46945625388081 7.667019663769804 9.108786434848604 -1.4687151700807417 -2.0753415070648518 1.651055492286292
Ni 6.972723247122256 0.8518543679455491 0.2360275639191192 -0.4411352251254145 0.11058726073196438 0.30648423857602697
Ni 2.155019201930422 6.53428556831395 9.377344570611198 -0.95740425527119 1.036529440839131 -0.6984890247233777
Ni 0.3069894195184322 4.975059404772461 1.770239125816668 -1.038636974100437 0.25121940456545117 -1.4731099567143275
Ni 6.435106884330754 2.1168553027385077 6.976306930339058 0.016329590397958973 -0.12002115245135458 0.7269557647045028
Ni 3.5912758433267538 4.919027281138231 0.5502436672658817 -0.682123953101793 0.26417622183643535 0.5563293885017709
Ni 6.573973468262691 5.904325710562385 4.747527916928826 -0.05131561955484065 0.27336328765234214 1.8613614464668333
Ni 5.016554203822111 2.7306990806304556 9.85093830041112 0.502245976393806 0.7700294559655254 -1.6180800658015357
P 0.19431100907072163 5.777030581478689 12.560564192133405 0.6188740440032116 -0.6010503855582294 1.4239944301345993
P 4.0158880062872 6.769994643452152 12.743814788525839 0.35194854155641325 -0.08807468145174509 0.2669776958409725
P 2.460823186129622 8.838930617004447 1.620486431089409 1.3322039903941636 0.3857369508607679 -1.8741256881110369
P 6.671409133416223 8.091084281548158 5.656648210318924 -1.780382752629921 -0.3867921315981596 0.08112473249647319
P 4.75355000135655 1.4567622084657317 12.786100790363614 0.07191864051717292 0.2677407992592421 -0.7331896614293567
P 4.367950432620263 6.490262935673636 8.250753932098432 0.06646455938113716 -0.34271082500822914 -0.12898350385096496
P 4.802080755996101 1.7895419186360695 3.7499599125492606 -0.13775173696189824 -1.3315002794589197 0.49560713092104963
P 0.48389305467509913 6.127532504042786 3.596481172857856 -0.7749803722128975 -3.21655392733637 1.5639658004556356
Ni 0.9709618714063404 7.763177723498452 2.590365988185811 -0.7511966395297385 1.982681520235269 -0.9094876340955691
Ni 1.903121040908324 7.051715765392275 4.927465864969594 1.4119076741733942 0.15744870117019336 -0.32520572624493027
Ni 6.452391060578838 6.144771051525695 9.32952836243428 -1.01581277711707 -0.016977765504919147 0.4058728023786945
Ni 9.121226661385766 2.8610787142399445 9.94323160372949 -0.6334879372616444 -0.7450861557566265 0.5143610144897851
Ni 2.605612383781204 5.85062065395205 7.003821075739255 0.21385279099153492 -0.13467824024289707 -0.645105724006231
Ni 0.7873562832208494 0.02643639396677595 9.030384352799944 0.34209170336699146 1.5695363525648776 0.5366604493179338
Ni 1.064984504924823 1.1608140375442144 11.252872984643226 1.683060584437979 0.5157638083745828 0.30461864612219797
Ni 4.094780141273834 7.292361872922351 1.7801889343506097 0.18326360535076824 -0.3556167344366198 -0.7674251855734591
Ni 5.856159986044229 8.333108377786504 7.940323191110544 -1.3637424273220773 0.3508555656025506 1.357947675017171
Ni 7.048129344449562 0.9651943954882892 4.83187360192911 -0.782197201676311 0.1802829254558895 -0.3317450700253448
Ni 0.8808021691475271 8.00343142364803 6.913304556536777 0.7834814677053732 -1.1679817179455627 0.594025617500964
Ni 5.545665364785095 4.410230046430914 7.905462814517259 1.2728796416022337 1.1324081917163271 1.2538007705939116
Ni 0.8631337986966745 7.449014549519291 11.381027759662809 0.5094106124630453 1.3694309930664224 -0.2735157540698064
Ni 4.699936202276565 0.5724292854690053 10.545982116232226 0.031717385707938923 -0.956506683157585 0.5052765356900137
Ni 8.557693159975173 7.3112613074576105 5.092859187823352 -0.39356904531067705 -1.406662880834687 -0.48197925572496997
Ni 7.495939171624702 6.559591281479703 7.314426118610111 -0.5528110909358673 -1.1264170071298987 -2.3085310507117858
Ni 2.6062694379997158 5.568269855052521 2.7525935873117664 -0.6544717386021631 1.6407911342458066 -0.6076869170381405
Ni 3.759782873116017 4.802911199522276 9.623558300067863 0.4174275970958295 -0.24796053130852136 -0.29466796266738926
Ni 1.3256707661195215 3.8864391994872705 3.754154108644096 -1.2381440378932613 -0.7924340489129708 0.6825751817065987
Ni 1.5762183156924556 1.4650118892092734 2.436632639984733 -1.0966683151125565 0.5927395516996888 1.613229936798086
Ni 1.4690180947915905 4.222586312527483 8.289500966909277 0.9730689583916404 -1.473984646009797 0.03686447712651716
Ni 5.623581044196995 3.5648202852786044 4.911197385034294 0.0828442862907412 -1.194155805237769 -1.0922532167639962
Ni 4.352555287250402 7.625853391829411 6.292402921247644 -0.5751413790019515 -1.7561768448076787 -1.3965070233476078
Ni 8.503641324749514 7.56023010175551 0.13622832872955043 -0.4946005440334063 -0.6741635606041357 0.673804377492504
P 0.3606442844870743 5.9783264419223165 7.901910158860777 0.8982745389885691 1.7670965770439762 0.5644209072606537
P 8.874521053840521 1.6283446170277538 8.077200360880875 -0.31795495821978786 1.4050865374865025 -0.7547583887390678
P 2.0471436753049748 3.712137316520851 10.418561051756647 -0.19912962584874738 -0.3719980040081206 0.15705789348967789
P 4.041221096712058 6.694013623683649 4.141090600199996 0.14456670300120264 0.01895340117405123 -0.1422647943409034
P 7.021126241219319 4.224812996267997 10.314594997731348 -0.06570119885255137 -0.5506917306000193 -0.20705325157119825
P 6.598521743926549 8.12621843073249 10.317359188325616 -0.6244319977069632 0.9194164631735068 -0.1300469121184728
P 2.5292389566322004 9.05779355204024 5.696451094755904 -0.9633833556727601 0.24988320225253094 0.2722466575493956
P 7.180735661799564 4.5080307417058405 1.8769967476953413 -1.0228627419853158 -0.6392598067484151 -1.575599785150138
Ni 2.458687759919458 1.7939040285867476 0.32344132708973383 1.8764360814117682 0.26854144078366654 -1.0780141903464788
Ni 1.9434568693225422 1.8198576702179776 6.839831293702263 -0.7470605058741779 -0.7097247455381971 0.5520521012826557
Ni 7.02478566818631 1.135526575884531 9.378787352166015 0.10240678180370104 -0.7121523811430832 -0.4110990837746404
Ni 2.2879449206366456 1.8659518487972127 9.168169534997245 1.363190411473349 0.4523380358197693 0.8546879126468699
Ni 6.354791131870678 2.2407008971750146 2.4168516577063026 0.3807217570343637 0.6935720470377345 0.25233526333744927
Ni 4.202509655850723 7.175022940399722 10.485530390403195 0.6559375245144122 0.9767245528663565 0.13634508642235874
Ni 7.537725994771468 6.384714476072085 11.45757366354417 -0.09890519640834579 0.584986133006515 -0.10077413129628451
Ni 8.21699229617055 4.246733055057805 8.265553165795115 -1.9755305110127845 -0.2929270687168826 -0.41555326289125205
Ni 2.9755065315444438 8.848120250310581 12.381814417137779 0.7359821365728292 -0.17240686514192244 0.6933563314825028
Ni 0.24182332967157855 5.272586330969015 10.44711735815343 0.2915217037289237 -0.8273627424693557 -1.0990998073721845
Ni 8.767211323903236 2.6421336474268378 5.906428284061623 0.055076115038537404 -0.7093419082774816 0.7792108653544774
Ni 3.7441687096733185 3.2835737024962968 11.80569650229207 -0.4122373111441416 -0.27508001323313275 0.31302743901118346
Ni 1.0995893604331302 3.6598285001248554 12.55576860891357 -0.9108269217322829 -0.2010381557253699 0.0018108279564936556
Ni 2.858824653240326 8.755001066342553 8.128448764774216 2.3928974300740076 -0.03832794904592109 -1.1951279393430514
Ni 5.839578492779832 7.9297957224094935 3.4683793272058754 -0.13677600331219025 0.4670028369207957 0.419436142885426
Ni 3.537798930542292 8.905931895786617 3.6328774136869115 -0.11456038644709947 0.10226357135761743 0.43106935624898013
Ni 4.0484304416096215 3.3458478412063934 6.796662831546014 -1.680223886320132 -1.5955037231629168 -0.41710749475224934
Ni 5.286457475582049 5.248028929552123 11.498898723587372 -0.13692409885428034 -0.8115977663256151 0.061104837731120576
Ni 7.938501690804779 0.09336831702588104 2.554556533276899 0.9407980141730765 0.861792127791819 0.4388621128205216
Ni 4.732652026906649 0.4486484838790463 1.4023079275312331 -0.09587155178834456 0.595266946107233 0.1383366629310908
Ni 6.048238835922616 5.9649572137262 0.315388762611746 0.0839452326644038 -1.3383656391201852 2.7990299138719923
Ni 8.264592224000543 9.080571431615327 11.432517083436272 -1.404771063128613 -0.22223741551080434 -0.055609104723871976
Ni 9.143730768369808 4.992571724846417 5.868602037732 0.6272033898045133 0.9282219772802789 -0.0069034119880526275
Ni 7.675324099031555 6.667777083708337 2.4730827227566943 0.7554273897816345 -1.2853880584818895 0.6234662913595843
P 8.757282504601276 2.001213760280368 3.7644516083686677 0.36951586101621525 -0.7387676697377664 -0.7365673196523379
P 1.8847326485430183 3.6183519525812753 1.3386247725525493 0.9892321984150639 -0.4537341448363476 0.9117846576598619
P 4.541120722210356 1.2917594678418662 8.11521277257241 0.349520648841211 1.0161881581786176 0.9735806079207361
P 8.654900681302832 1.9530115327500734 12.589026503273928 -0.8873625200617556 0.6020569724458729 -0.7652708582346176
P 6.646149049015644 8.074475411024656 1.3114017386741659 -1.5176075249060703 0.5172553053184445 -0.3574579014104166
P 1.9705056013179596 3.782423866395582 5.92642280896107 0.20191207368989098 -0.009176524292945486 0.17536929020435607
P 7.001807022044455 4.181803322214555 6.335169850270359 1.0963407565698087 0.8625850560067596 -0.3018917341093382
P 2.5113707321898837 8.70663457525763 10.255158055639798 0.21607268146098918 -0.03383494627157398 0.9316590279862857
