# total energy = -381178.6299525201 ev
CRYSTAL
PRIMVEC
9.19752727356016 0.00000000000000 0.00000000000000
0.00000000000000 9.19752727356016 0.00000000000000
0.00000000000000 0.00000000000000 13.46151086516026
PRIMCOORD
 96 1
Ni 8.838262836395671 8.638575317790446 7.368077621863166 -1.0145117989174592 -0.17520114005760792 1.0612981631433787
Ni 1.0507899193077774 8.052140967172367 5.428422093622477 0.5263768080037386 1.1262398581220863 0.28718733801962804
Ni 5.253912806429062 5.179559994471775 1.5434701935521076 1.3809060835855573 0.4410840601725049 1.3273088670853914
Ni 4.491916051723812 0.45245856692488334 10.757160464920084 0.1792927936284783 -0.30609857310183414 1.5667078819771472
Ni 1.1703761712954859 6.683300548423352 12.045696351694794 0.016328047736062203 -0.05571477706380082 0.5631842066400753
Ni 1.9417452064787761 9.10088903538483 10.175529063139718 0.18603885410306026 0.587979154196568 0.6427531646136543
Ni 7.33777820716365 1.4785669213034949 11.533149418144706 1.568335647388557 -0.3238093601180359 -0.7686045505935408
Ni 3.196563877351185 8.16198703758378 3.8966226426597554 1.0991759120257585 0.229516722781037 1.2068192596380505
Ni 8.619389275516461 0.517734339035479 5.328308846765393 -1.2686368071654799 -0.43308278713458315 -1.2315841252875563
Ni 2.9215210162959293 7.312153895670206 6.602373343840253 1.1150429609650023 -0.19766126883333698 0.26150638831375606
Ni 3.0289665320412307 6.867076344529059 9.097760036544173 0.3597132731034966 0.35027938138410647 0.41100729539178243
Ni 6.721828990938081 0.0069128616362068625 9.654421071033243 -0.20440604375633828 1.1296712524011383 -0.08290984942135399
Ni 4.903247874627541 3.71923177011426 3.3539216153439635 0.34139442018965077 0.06956145313890601 0.26601044683169667
Ni 9.262737926034553 7.160146359398798 3.498767956737843 -1.0891768918315177 -0.8754115183474667 -0.19119468727238684
Ni 5.876107143797505 8.889640224766948 4.280289222727474 0.19270829570343584 0.1638916285820597 0.3260493051921481
Ni 2.0419062804786337 2.4764342676273254 2.986705732884707 -0.5263899206298612 -0.5496609753426598 -2.1725634022335036
Ni 3.27084310908882 7.78875137340433 11.567462633826182 1.3408858344388779 -0.8603461393739119 -0.10313903198403526
Ni 3.9575213114538657 5.088302127049683 6.084737418348558 0.7846495198715455 -0.5064481874006116 0.3441056484732268
Ni 8.512688759495125 3.528493445724082 10.212131543405082 -1.657494048822784 -0.07238221041715275 1.0328496779946987
Ni 0.8086438547057165 5.54143671224261 1.15720439222522 0.012010651307630928 0.9361646291661233 -0.6874098840910806
Ni 0.39665716784709326 1.6843340055573797 7.14240892769919 0.6588827231856652 1.2400618237412644 0.25924458886277285
Ni 1.3742577624208152 0.0907667194559221 3.2880949113387308 -1.6821516994704642 0.9907388648675776 -0.16501571488417388
Ni 8.187096287539667 5.735145838001196 8.888649651059898 0.709910379186442 1.4296182040792798 1.9560140382464122
Ni 0.31470627845810073 0.06446455018894397 11.952031491337369 -0.6602749755475016 -1.0567969328389155 1.233788846248359
P 2.0913521880840724 8.477839327962943 13.179155487285906 -0.8028148779266625 0.057813311464042366 -0.05899241937380808
Ni 5.648459141724918 6.622799212815357 13.218800509633837 -0.36959273700073764 0.9091179094609761 -1.1450775596538796
P 5.718093622097087 0.5792078532956119 1.9487960310268286 0.21616189874068578 0.21405102304527004 -0.2464068136681563
Ni 6.386652695373086 2.640913651129571 1.4495625184698355 -0.11247702155550951 -0.13048759920031722 -0.5680842150448538
P 2.0966315688440282 4.4127437353793875 11.893029352704762 0.7561472986667945 0.19109621402130958 -0.09325982519711036
P 0.58753069589088 4.0185009184895915 6.199376320317485 0.6140899923510069 -0.105097955482619 -0.18768821678102515
P 2.9724661208767564 1.6629129641114966 8.962391747194081 -0.6564648577727921 -0.38038262852739 0.8584921168843086
Ni 6.1696646276224305 0.47513415111581525 6.9887853858536975 0.12138460845778448 -0.4455942893380326 -0.6147757055641219
Ni 3.1000542217515057 3.3586151136049485 4.705915842803892 -1.2655702524250139 1.1142338348001457 0.5704015503241209
Ni 4.783284524014122 1.9652724817121678 5.4051201578117665 0.6095447961824857 -0.412925852570734 1.1224919610438797
Ni 3.0427720207532403 1.2509097217034517 12.580589597952875 0.31263868821319707 -0.1322619174919206 0.5773257882477799
Ni 3.415345462955832 2.9802012414675625 10.70347633666275 -0.8549496509486888 0.12777765646832187 1.2417397256643194
Ni 6.5071862926888 6.1487586477141045 3.55965466874626 0.6066826441433423 -0.35494901894563385 -0.09627855741877613
Ni 8.422589780532537 2.5321436914305524 -0.07649675560736575 0.1673567043125247 0.22104648052649675 0.8452985010121699
Ni 2.8760944281889236 2.6518311162202806 7.095373692040065 -0.11782311635877127 0.4770278252569655 -0.5647790619310209
Ni 7.5734188605958215 2.5473564018433863 6.127249310004641 -0.8616376044918257 -0.6371270766761287 -0.677209289408995
Ni 3.9029063934179473 2.5685567026303167 1.2637963774225704 0.1362612684593008 -0.9086659095252223 -0.2630971298396437
Ni 9.134110504557233 4.50060771517008 12.206925328993957 0.19089335398188415 0.874264549227217 0.44996336494000566
Ni 4.867211962053488 9.08343212827264 13.238238564160127 1.068566671780334 -0.40669941204504795 0.35429930117677694
Ni 2.028606655776724 5.163712654664452 7.701223103365795 -1.8223269582721904 0.0016028257107456268 -1.8555360980343076
Ni 1.5750765769031738 3.220633806704502 0.32006659745967253 0.8608179368040079 1.6786948512701154 0.19204623663940476
Ni 1.1388930348123352 3.1398703181101273 9.141671791879114 2.816402086601853 -0.9702062921318645 -1.2069092482486956
Ni 6.286730757087095 4.284806128461296 9.480484789800359 -0.3271780194799527 -0.3174101414599114 0.030955824951566045
Ni 1.8352746286438497 9.127175568855131 7.925249119126064 0.8640577838975441 -0.026044246582561596 -1.18232435982048
Ni 5.247207808913369 7.26087768010095 9.859089970508835 0.513063121613968 0.2508352817531551 0.1616920498275796
Ni 1.5551639299601352 5.8187605601070445 5.175991353818705 1.2331401569207665 -0.9977970572659396 0.536204849837754
Ni 8.943326192529772 6.350018943514369 6.672521046244488 -0.15905409798410025 -0.4934895703574146 -0.17566445284727167
Ni 7.098927616649206 4.8168646967573245 0.09242411390355977 -0.07102543927894218 -0.28248556166858446 -0.6216040413398649
Ni 3.306317972488035 6.783636375444881 0.5382273499610146 -0.2376028422232811 -0.08436380825906116 0.29946949782109067
Ni 4.091179780449819 6.02574171798517 3.8443788472020892 0.4176296858043066 -0.8123428720217559 0.10090757155035525
Ni 6.9016406527100935 5.8468130188489695 11.029043055541328 0.3962093111470015 0.7514969443789767 0.9720510586500872
Ni 1.188154991868647 2.098710210049168 11.653280163757833 -0.8986080110685879 1.837847422505293 -1.0362926422379766
P 4.813857105279092 6.12716285324655 7.824961119247309 -0.24845649710833342 0.6802107952394801 0.828324849272309
Ni 3.8154746974177045 4.272959713097493 8.731607388258873 0.6834426719132166 0.4921343418811008 0.47877488985505934
P 6.752567127697267 8.473608465333013 11.782860449079632 -0.14107437357722802 -0.45588384418949873 0.4317746098461209
Ni 4.312812599565939 5.459174026672846 10.993490932911481 -0.6682579937529781 -0.4659947073712556 0.4407999532731827
P 7.791483039058871 7.673009687893384 5.169799578335076 0.323573589958146 0.2229454973214225 -0.16197847071974686
P 7.353515176641498 1.768592554585175 8.228913765872793 0.38505432297144654 0.45862386882848116 0.7673061434970915
P 0.8939564403800119 7.119152979525761 8.594730704405936 -0.3958401007330408 0.35126205701234986 -0.4001294721370141
Ni 3.0322224567607856 9.053898867610242 1.6042621710277234 1.3739008559123178 0.05623465412301283 0.09499377716908157
Ni 9.006080922364578 1.159982965269789 9.650490047798389 -0.16780870424827873 -0.4252182967848418 -0.30148909935428075
Ni 7.9806853763638355 0.15554122632014572 2.683323450230888 -0.23563440564300062 1.1525275881740216 0.4849535078619454
Ni 3.0616821372035345 4.690803385440332 1.9495502282782509 -1.7507502744754686 0.07085266114650379 1.4757111417826005
Ni 0.803338720868883 4.5882969419391015 3.357448867123481 1.3302504662122188 -0.4497605049005802 -1.1624682443265013
Ni 2.055950904904509 1.2130435011655811 5.153632164572272 1.075041737981716 -0.42876770469899705 1.1867083478207885
Ni 5.886721090482154 6.8410197492451665 5.690773286540688 -1.2744598416051598 0.7938628109396973 0.6379524007909013
Ni 8.389662632238736 3.827146359759836 7.841949872211967 0.5693738803905549 -1.1450461921953117 0.13835414643258753
Ni 7.963927481338332 4.645330809696045 2.1645709449059884 -0.43316274844289915 -0.41004416014756473 0.7879310188362946
Ni 5.088550460291005 2.1537574118755356 9.364810246239843 1.381165765004847 -0.5444976859741655 -0.15924204562519026
Ni 6.886133621418655 7.532131159844181 8.112498821352041 -0.9541870338854728 -0.9116910695047912 -0.8272524421437366
Ni 1.195641779218131 5.365791530408333 9.892945149322983 -0.016262227495133286 -0.19819682962183288 1.749465237115458
Ni 8.684802090786157 7.839540120018399 10.220867354983142 -0.0352164000001329 -0.5348282812052014 -0.16294546261870646
Ni 5.551747140521199 3.2407304041966682 7.451080708393167 0.07047085232705282 -0.2710238408858881 -1.4513023739209328
Ni 5.379008377363135 2.251803054560428 12.228073203874388 -1.61793299870071 0.9088782826463443 0.9937856221137016
Ni 6.729472136254324 5.285405140439669 7.179535667029568 -0.6412665527657988 -0.42227489788580175 -1.010300331939273
Ni 4.3119572295124975 9.102986071644882 8.563890475091986 -0.4469729148531141 -0.5245631518337676 -1.608200859014611
Ni 8.185587893036823 4.661270124777932 4.677417303980333 -1.2022198131928263 0.5870322169022664 1.323403104273082
Ni 5.325441977457242 7.651984140128124 2.0979229016989027 -1.178603202215151 0.09762427281339317 -0.15151948016995195
Ni 3.9460979823530553 4.525487026939557 13.33937457607036 -0.617965159035697 -0.5145715878386944 -2.652947802667528
Ni 0.5174666909864987 8.218367880891321 1.4096756011498006 0.21874200076303618 -1.8251518293154956 -1.551482323276644
Ni 4.147753771833943 1.2096404160067247 3.3815583458448604 -0.48978383937105324 0.15659406647938193 -0.9327100949586195
Ni 7.5965966297858705 7.208295415632889 1.707578916697861 -0.4220072460467119 -0.9307845958011324 -0.18462166204055946
Ni 6.8902541137191085 2.501874628571642 3.7719694727963335 0.5384386242642791 -0.8606760119095048 0.025765796110194333
Ni 1.2083711572177458 1.0890332384713592 0.8857862767405195 -1.1572069959275617 0.8996235968172959 -0.22289047571377094
P 4.0854957084817825 -0.12473686736327498 6.079083698221127 0.43501342849839275 0.6010606699708745 -0.6175946630701558
Ni 7.557838249084733 0.30724892319647684 0.2332851666505951 -0.3614263991398614 -0.6605282292088882 0.17311314718032766
P 6.081717870084631 3.946760204329914 5.324418292651349 -0.8160036087027946 0.6537965669120095 -0.442755791447973
Ni 8.057438742987234 6.942643230110586 12.954699027240679 0.6630376258943033 0.8240668453269033 -0.9599655882404627
P 2.103171010865507 6.439142984566583 3.0727651577884596 -0.38321726976270776 -0.26321437214379834 -1.1693351466496635
P 6.850134498954428 3.7602435450422087 11.725555254262725 0.15168017411753232 -0.4841361541669727 -0.5103305531741533
P 8.806614144418306 2.5670391106000157 2.402031789021775 -0.08714471343830797 -0.2596855330549334 -1.6244517736558344
Ni 0.13624941248041195 2.526680360121469 4.436025436629695 0.8311430354473943 -0.11155990905787884 1.1840236018997738
