# total energy = -340887.75517009775 ev
CRYSTAL
PRIMVEC
9.11377580105414 0.00000000000000 0.00000000000000
0.00000000000000 9.11377580105414 0.00000000000000
0.00000000000000 0.00000000000000 13.33893211942224
PRIMCOORD
 96 1
Ni 6.373509375565694 2.018455231865295 11.451806323945027 1.2022663501600455 0.3713747686018249 -0.996686083589948
Ni 4.708112698139223 0.6189064784204715 5.818522362582035 -0.3169278025068542 -1.8106430941763592 0.6606781245231912
Ni 2.4845701730929775 1.5971891805519989 4.781113129621696 1.3823734121597029 0.7544616834342556 0.36090446519812036
Ni 3.844072085007053 4.5165229066780865 4.704761562837146 -0.44520656698131067 -0.6124185181858549 0.14542056636106568
Ni 4.098656293677749 2.732145888298085 1.9710936740075224 -0.6235243982910293 -0.3269869865150691 0.9309190644964678
Ni 5.256124027249589 4.754556498790253 2.203205134710144 0.31079340747434214 0.17300721773008268 0.12008131626532867
Ni 5.453318790728069 4.643605394173763 11.44398943858035 -1.4879693903246631 -0.6361608561081173 -0.43494863669872835
Ni 6.191616641383344 8.132586552774727 12.3762348144543 -1.5525950967248485 0.5681217531510085 0.8796427828199946
Ni 1.7926796679861812 6.935947811510947 0.27812053425572086 1.0677423761068257 -0.2002927929189131 0.28145403508027655
Ni 2.828405586586189 1.5597953591094607 0.19463470390177773 0.18789981857119897 0.7317632133954752 0.10802464221111074
Ni 7.9391648924103615 8.867439396238854 7.167074984444668 -0.21252610176031136 0.2705774973770888 -1.2250419532936645
Ni 9.429567963812417 2.5182273465239535 1.1870355558740648 -1.8301883632981384 -0.36867433895152635 0.5846642308907222
Ni 7.3992283685152245 0.6799997620319539 4.821103465743489 -1.4673059484380406 -0.6791849250781271 -0.33293471945807174
Ni 0.6895309485941296 7.739318020221235 2.5229920284274776 0.30502693730421016 -1.3494491506278565 0.45879741829186793
Ni 7.795531788356156 3.9749823582706703 3.5598544348495387 0.19581830208732726 -0.5347570616476338 -1.0537501755927916
Ni 7.847170441120821 4.080793293427353 12.514519043586589 1.13150213496229 -0.7453805470685937 0.1443507303356546
Ni 8.220033230020926 7.112107980817021 8.895213627495528 0.0806166825118031 1.623290920578514 0.5181852733318818
Ni 6.918868595965415 1.261255410536897 0.48720877494173487 -0.13879406218348356 -1.0556432788504466 -0.8519658857300165
Ni 1.6877618828420176 6.8896589450457615 9.29788939926252 0.37774467668391076 -0.5635765569824874 -0.6161412184530808
Ni 0.5243674609728141 5.1907873697010745 1.2481333963733658 -1.5665009081726635 -1.2221911141084307 -0.43122182266644443
Ni 6.330182486182845 2.02673054014456 7.245707729271399 1.2431831429790654 0.36765386810681194 -1.1592939603635777
Ni 3.4856090616149205 4.772702026085426 0.1670819373931055 0.6284339197775047 -0.6609660880772552 1.0725014880583659
Ni 6.0231211573887915 5.554718658475981 4.420975905644871 0.5305697630391637 1.242062656221377 0.15190797385762225
Ni 5.544994259870281 3.2215738676076624 9.38579267666818 0.17658413644806362 -0.6640984630586498 -0.5207782308700386
P 0.35175163901234086 5.859437746931079 12.300389062217656 0.2668689381772501 -1.2700046340472837 0.23647001417041857
P 4.453273303750664 6.355163345206486 12.305058049476983 -0.21592175770542169 1.5292754481623017 0.6165700784603833
P 2.3838264971909986 8.673662298624608 1.423997367971207 2.0845931075701065 -2.765286755983276 -2.7777470932338164
P 6.513214442319939 7.863575237269144 5.5339629458380974 -0.41323104251597864 -0.41028815783757083 -0.3021588717277957
P 4.921694030214749 1.046799156000126 12.593259330965846 -1.0680437093973283 0.20799736065202243 1.5257239833656175
P 4.373318150078865 6.153165621966803 8.268377252892469 -1.3819998308703683 1.4967743902108028 -0.5773972649156637
P 4.866191136579591 0.9889084531478218 3.673595266188808 -0.6499998188737387 0.09594302845622832 -0.34532460848199237
P 0.4208513745217686 5.6388023525117745 3.531508769860364 -0.12434343397579228 1.3302183274227026 -1.5017723576460265
Ni 0.6746381278241437 0.07066821629672011 4.904431627778896 0.14547661640998172 0.6346960986371327 -1.1784705332920284
Ni 1.8987549026363648 6.521407726618464 4.970593082022646 -0.06347590906645842 -0.17547496254428488 -0.8923183214051341
Ni 6.235699974144143 5.791804417921799 9.085813662922382 0.26913716538613647 -0.28481009603670304 0.41425716978764787
Ni 8.67873867165495 2.4894369292836465 10.196052899760765 -0.3760518623625201 0.6738154332360977 -0.8478634335258689
Ni 2.706809592024564 5.460728290321728 7.129965512802035 -1.3754298909623346 -0.15036299796800554 -0.9355611912541695
Ni 0.4196264830760271 9.2284269354827 9.11218437273081 -0.6227448398125275 -0.07069633807429761 0.7050337678204309
Ni 1.4216305204380295 1.3810377637465683 11.206463483771218 0.3954197253661706 -0.1145927823469317 0.6313320672609062
Ni 4.291886564753717 6.987303937230835 1.4861569633323302 0.3743449069737424 0.7821784326232336 -2.402937073698197
Ni 5.66617102075256 7.917382968635644 7.488916123190798 0.2592085934185149 -0.22773289140773684 0.9599812719697467
Ni 5.555958131962743 2.550845549532202 4.923400129014175 -0.025379102194736932 1.9354187305935635 0.43127812982567654
Ni 0.6890151088930212 7.501521386275656 6.834135089726636 1.1178344076672104 -0.2446391802447722 0.39645253750605913
Ni 5.239372907627024 4.54564141984136 6.976621680805586 0.051409979040859845 -0.038933958061036174 -0.0813461044786599
Ni 0.9830847505151672 7.785388156071109 11.5603185822008 -0.5813392802825471 0.14236095359913545 -0.40246531935904234
Ni 4.36259123615299 0.6400322103492564 10.483613482822282 0.5752797043520286 -1.1658037364576375 0.04324364117998359
Ni 8.471263569256854 7.421420412193651 4.743017547455035 -0.8934141255724742 -1.6327132423336783 -0.6644841285328428
Ni 7.412242840126228 6.0220092767609605 6.6179508633289075 -0.22444059380971024 1.1263226476438797 0.23048628578315788
Ni 2.519074927658284 5.724872849636642 2.3584829098969675 -2.3977727558884383 -1.4436137470274235 0.05114926918030546
Ni 2.7061989690568207 5.408396990608579 11.453434044273964 -1.5327721484616506 0.07207367803779846 -1.6150916725971733
Ni 1.3383032697801869 3.472913572151246 3.6112752683764566 0.13863491089779995 0.17308409371460515 -0.4215989548646997
Ni 1.7453336035469933 0.9404778494077172 2.5722000372294995 -1.4376048218291824 3.6179625232961237 1.9516048534351227
Ni 1.0614541072259611 3.1802793501920785 7.994662317780138 0.572967254168768 1.4122524591073224 -0.2178148609630765
Ni 3.7517859928970982 2.619481393861658 6.988853279089288 0.17830266180106713 -0.08184849803637516 0.1165661040232186
Ni 4.212396213639455 7.0201044157518435 5.488517103619424 0.9416945578454169 0.5103030423703276 1.33577525268519
Ni 0.6828140959489551 0.27341509189384355 0.14412342518352755 -0.432640557390842 -0.04010201022720836 -0.18099820635535924
P 0.2781888875730055 5.694441952781503 7.929368494977121 0.98063802898815 -1.4583237995440885 -1.761441692751044
P 8.539826503381207 1.7083134469056112 7.938358323266401 -1.1018051221184895 0.5934738587625521 0.08001298748953317
P 1.7131619755450045 3.5385783256227272 10.331029739714037 1.621713548789065 -1.191461546235058 -0.5587639660851925
P 4.081777581196253 6.253626770824005 3.4505948469914522 1.8115167550305642 0.3313846013621325 2.2191556481707457
P 7.223332498702651 4.208103625313977 10.336071480396956 0.21133979476169407 -0.5364316211365794 -0.73147267873825
P 6.618852215739501 7.680652646439705 10.226519340340891 -1.5131615733195747 1.4108080133513121 -0.8064301060817467
P 2.610732169249219 8.751357235938192 5.805330172346093 0.053972083341081244 -1.2391058875858982 1.0318772867791002
P 7.088494188139074 3.984679415549457 1.2595675392887469 1.2414101102390427 0.6190640485268306 1.961222579030545
Ni 5.580893422108193 3.2260669589971753 13.426035136772006 -1.6311428125227652 -0.08358013601550122 -0.3320980824893894
Ni 1.2647459866062345 0.9094053427476659 7.0444236146641686 0.9923959408550264 0.2642165881560676 -0.24361202453183856
Ni 6.768154088240516 0.43596748279488434 9.15404212148082 0.2641263424351064 0.4303162801330396 0.368683594922907
Ni 2.7735497710213246 1.6737722372377535 9.02029290710598 -0.551306995586515 0.2099467710689094 0.43783907087264595
Ni 6.546579974930501 2.0366007591604673 2.782541422065733 0.08016931056173936 0.4454860458949424 -1.069732409953661
Ni 3.9962174555071104 7.3835162193153865 10.28667755057192 0.9088250608109057 -1.3195053118805726 -0.19620988109879114
Ni 8.397952358025126 7.325078689924805 0.22993782521296874 0.1987267339833739 0.5297971465391972 -0.0896206857826263
Ni 7.741195458002655 4.01678724712198 7.901503125964067 0.6819874275239287 -0.6461393074770679 0.40555552824859187
Ni 3.2711983759563394 8.549095213205009 12.46303076811995 0.6730533582590925 -0.5836108499255434 -0.04754998186482133
Ni 0.19714372633490734 5.062255791878965 9.997195783605921 -0.5708592066868297 -0.42790047160269534 1.19982405926714
Ni 8.74222523274896 2.4522344971295054 5.668299087364023 0.22110870122299983 -0.08580516869127804 0.7026069035464932
Ni 3.8094761926853673 2.702507889923448 11.291365594859299 -0.7210841364150743 1.5378750169058546 0.5809343315346447
Ni 1.3361250774027151 3.457137626521942 12.55823053430136 -0.08288336705879275 0.8935928172421835 -0.31900962473654737
Ni 3.367567439552099 8.408004852553793 8.03950756218427 -0.5494763701356795 0.1406516842175126 -0.3602056393588829
Ni 5.654879052737131 7.9425005342938535 3.2480703475198958 0.8041001723969894 0.0808676221803446 1.834730474142866
Ni 3.169643574022582 8.335222240309067 3.7259639323820744 -0.020054861768346106 0.7348274541430958 -1.126677202769821
Ni 3.485144259057385 4.291494672401286 9.08914839342831 -0.7075981861134975 -0.22126245319204474 0.7538374195866953
Ni 7.354060496453509 6.222348292834536 11.468907412552088 2.2754381248125584 -0.7561087321193752 -1.4719097657586393
Ni 8.213106760536078 0.2974435613633177 2.2579743694064476 0.0807048713502352 -0.7435532640518678 -0.4225320082019304
Ni 4.506980783585146 0.346437396437848 1.6784111490374736 0.14433376105479012 0.11496919184974393 -1.3257032131611686
Ni 6.314734636476508 5.85600185351557 0.03489209002991913 -0.9346875303999644 0.036861906023355866 2.813360985782684
Ni 8.020304836915095 9.148316847625056 11.174557066640293 0.9724678344725317 0.23482502236782787 0.6021184218114276
Ni 0.02213189275921526 4.756178750853809 5.360796651829092 1.0962535961726412 0.7899020265197364 2.5917969421898204
Ni 7.61183452659749 6.23281090726691 2.4380370574406958 -0.2662138210917544 -0.2323336234045418 -0.03354158340087127
P 8.866008533463694 1.8047918758090262 3.5138216654797807 0.4007272536220131 0.7835832833905602 0.6860901368383925
P 2.1306458099685477 3.5602964529679797 1.4179421754373482 0.9999087042923038 -0.11343784280688206 0.19215576563407552
P 4.879561045440474 1.1820293589161348 8.461791622236325 -1.4237517179961738 -0.33671938331148465 -0.8028974103381398
P 8.530876775704732 1.8679503409800695 12.350223187406007 0.6168086768337507 -0.3662585304211821 0.7689071694356242
P 6.722357365659782 8.020751411921355 1.4022154441964894 -0.7067556356075441 -0.040241106908233924 -0.9331883201466187
P 2.244568005443013 3.5566782840397106 5.8128262528083114 -1.5231207414148156 0.33297251467454264 -0.00281612929255644
P 6.9737426390815545 4.0756531239675455 5.659295588411284 0.4101652591064614 -0.6092470624364087 0.7340286123908842
P 2.2322097256779427 8.79853013864026 10.162118667550393 1.8284274147429738 0.1799401974044901 -0.4246701375908557
