# total energy = -340887.37112168735 ev
CRYSTAL
PRIMVEC
9.09500222688574 0.00000000000000 0.00000000000000

0.00000000000000 9.09500222688574 0.00000000000000

0.00000000000000 0.00000000000000 13.31145509596272

PRIMCOORD
 96 1
Ni 5.20134070415205 3.238730218658387 9.665047640626774 0.9586239866109038 0.5733837728808965 0.48869754828540996
Ni 4.706472549343228 0.5262659207758325 5.906944603222101 0.04457392995563291 -0.45027086887809553 1.0713807441903611
Ni 2.696522578345165 1.604667586067885 4.915601206747853 -1.6361852600426787 2.2347925833770543 1.2672471259068046
Ni 3.3739819936700934 3.232154532199274 3.1943629798135134 -0.1711195137890666 -1.822619292701629 -1.9808035864862659
Ni 5.377219853178771 3.1278530490552856 0.2371330781186696 -0.46625695989370664 0.10993085809488809 1.2509584160491103
Ni 5.148289557380259 4.6211978104211795 2.873091128524862 1.4106005253261964 1.044582907271227 0.8107228199198295
Ni 4.883988798733214 4.745290017956633 11.654511119578986 0.7964308287771897 0.353193726817424 0.13806566865789127
Ni 5.518337904492176 7.977535500176089 12.883224973724577 0.7881894147040038 0.5650446568875818 -1.8123009414947562
Ni 2.339925739218071 5.763921148985897 11.566243215492769 0.26304185112167605 0.16516843841195425 0.2923182314882901
Ni 0.5860328170378143 7.784093902252345 11.479279534695955 2.173748166570224 -2.009537978306481 0.4080898646346714
Ni 7.967621947976321 0.15509797891548255 7.181463616031633 1.0509641282072224 -0.6022827153034337 -0.3276498169100486
Ni 8.83594907565386 2.635349594771179 1.4767591156856212 -0.010085666370776179 0.6397979386400723 1.1678212811082984
Ni 1.2742825427570605 1.039804295727485 2.841104006427076 0.7144602033406534 2.01858543322073 -0.5631610667116237
Ni 1.9044661375917162 6.74117002083264 0.4855548727422501 -0.6445863611676512 -0.12321240569514265 0.7586926907964675
Ni 7.5377466775891016 4.282636360296051 4.2805781613393465 0.17543870998971076 -0.47758524042233236 -0.8421730680093108
Ni 7.541421058404429 3.7989823429755916 12.888177202323451 1.7061115527201713 0.9374193275088307 0.8616728286051354
Ni 7.003615399067985 0.9878354541958533 9.445115939825007 -1.91576881757312 -0.355950977847587 0.23368756632927495
Ni 6.6359681324888555 0.7638701199990416 0.4813766288151183 1.0178658029913568 0.6301740423970631 0.5698225378921993
Ni 1.8856667684202282 6.7194966310234205 9.22602279820931 0.8454800208953568 0.9016655669479892 2.201324533526596
Ni 0.19728696477701205 5.232063620969314 1.7479538858624137 -0.3820397045148388 -0.9434855883075687 -0.4474377703046746
Ni 6.36502802236857 1.939973025470521 6.964274058338334 0.2827056480991905 1.1187857158368861 0.22424647552103313
Ni 3.7557174183753164 4.708300644748873 1.0354132287531286 -0.7764237895276435 -0.5799750529451689 -0.9826871982076948
Ni 5.951796605674541 6.097225687944543 5.28195880204081 0.6686534294191839 -0.9776794605804582 -0.5933244776688814
Ni 6.539433781068356 2.0141973369405326 11.695137584093798 -0.5795677902044212 -0.15830385008163703 -0.864089408466428
P 0.29098913256906456 5.482585451558883 12.738116945025816 0.05309893670750855 1.4643275825360071 -0.17524896257640787
P 4.066912007427873 6.341635677177924 12.998329500265706 -0.4942187352139553 -0.6117831985947012 -1.6715451275992117
P 2.3773152925146297 8.74438969033728 1.4814721457314195 0.6454098855102111 -0.2562320272886942 0.5847233662634318
P 6.432112757254345 8.190840582507443 6.068212631506688 -0.23609334755729017 -0.6214703439754781 -1.754173955445037
P 4.680369893551176 1.211799878892463 12.887817949743736 0.3420451663997722 -0.7675596542687941 -0.9512873437401747
P 4.067494087557034 6.548983533187399 8.305628602978343 0.00923951632039699 -0.9374599509387791 2.0364057492316023
P 4.708919104886106 1.520884427476812 3.99892050084089 0.6666770224191034 0.7153639461018455 -0.8937077455534931
P 0.300762621737754 5.875744198798884 3.9074047715339977 0.095508512021971 -0.14598620905654858 -0.28974404300321066
Ni 0.4670183491290863 0.1826385545266015 4.9996362968948285 0.3248771392609179 -0.08346083682881755 0.4238697531767474
Ni 1.8123701471560667 6.795385327862751 5.276208032264742 -0.21071553091413386 -0.7143632727514729 -1.8297291642735327
Ni 8.303172952433446 7.206552179098662 9.553099079785937 -0.5449414583798035 1.1502061391296965 -0.4909243807333997
Ni 8.692184378753177 2.5543222217916015 10.4986646026023 -0.17801752646048052 0.9255871107605931 -0.48163678478388666
Ni 3.110863585285406 4.678587273155621 4.835013122365751 -0.014535988832645935 0.6440608276814843 1.4475902151766682
Ni 1.5806022107278959 1.2814221193412976 7.358731571866525 -0.5606580977841118 -0.4214053507966549 -0.6327729134724909
Ni 1.1826776824303904 1.184332972797691 11.463265964642622 1.053838878651856 0.49062021922941956 0.5030759284942691
Ni 4.385491738119156 7.3899074197842936 1.537326372125199 -1.1496147854026006 -1.1003452497435116 1.8368331223081653
Ni 5.693198413292868 8.15923545049442 7.972509602060867 0.1380705537538977 0.4118074226955747 2.255284789793135
Ni 7.084315351974909 0.7393190715512841 4.756515978947619 -0.5558555341891459 0.7948074342411537 1.5727726001139883
Ni 0.9133473876673158 7.6979005681264665 7.357906655183481 0.3340783461442117 2.0950143029034307 -0.7731834282134749
Ni 4.954193119311209 4.806908656629508 7.343184575416722 0.2187941941572103 -0.46459859835467726 -0.2634455143179979
Ni 0.2136425069062268 0.2620297366431163 9.386465909810852 1.1986297818487226 -0.10674680393995163 -0.11034249171100996
Ni 4.486255265478089 0.4659978899026514 10.731787694331173 1.1540949326611414 -0.5927853173359596 0.227907212202072
Ni 7.899500382860479 7.407624483715623 4.638283681212451 1.2567914777911193 0.926006714796515 0.9803050711287634
Ni 7.850269136936306 6.818259257938363 7.179187137026494 -2.1724538732388323 -0.6821198393367349 -0.7199245688893343
Ni 2.3663558150827755 5.694344383547153 2.6778787337081864 0.08797620820066783 0.3370256016979938 1.5125398805751757
Ni 3.209935442268967 4.6712112265189125 9.490095272305702 0.8594688789752811 -0.3584562607679439 0.05253046579854824
Ni 1.0306638186992578 3.5083333634820053 3.985915557455157 -0.5085611199785564 0.20483258977079563 -0.03462041828734682
Ni 0.6031705293405888 0.2310321507649037 0.265969691517373 0.5011707410517563 -1.791055916073051 1.311633879552296
Ni 2.4154870159847484 5.488506297872689 7.225457959793762 -0.30948754417872504 -0.5406562007408883 -0.39930440513255744
Ni 5.12105002633594 3.4105166167769476 5.185902847726465 0.6199953020918484 -0.5896683689735328 -0.4892714185110089
Ni 4.12304635988381 7.14155929467706 6.347234560420288 -0.46853444307397374 1.0887981683358603 -1.6043197787926498
Ni 0.7966566927742216 7.897008352307509 2.825715263012389 0.2247434697621097 -2.310034631840505 -0.06013733161152869
P 0.27637164532551567 5.8210923316719025 8.168094891960285 0.7488026853762653 -1.7189668114162846 0.597586595379345
P 8.494413559868802 1.9548615437742103 8.194092045728928 1.3343341493632892 -0.30648423857602697 0.5018675100084646
P 1.7733071134881708 3.2811765930770296 10.444233744024357 -0.4358698629614171 0.08063030935855792 0.24426688450701806
P 4.085838706627614 6.436733018279558 4.128042244492374 -0.03378403842898052 0.8853205499310622 -1.2825662727623781
P 7.155019897663902 4.151322721158198 10.800887881664165 -1.9103394190274325 -0.016213119424752724 -1.869119493145697
P 6.295369401911663 8.039326943887309 10.389031629275278 0.0014693854566748888 -0.2836559278276018 -0.13092802917184548
P 2.4624172263983324 8.653048585069136 5.916316093301589 -0.4292819253312542 2.1628263774513976 1.8151584655482096
P 7.028026384484662 4.296151533295002 1.8318689219827495 0.1793953806446136 -0.7902804929050777 -0.2574646141442147
Ni 2.7405241981089086 1.669878750537923 0.37816108891209504 -0.5328187069743405 -0.19202823891727572 0.509656152814948
Ni 1.2458970414584567 3.5697519121104806 8.315599453690826 -0.6602184112779532 0.10783875145254976 0.2570360112472283
Ni 7.8242392411604 8.832229219828443 11.694073468857678 -1.520636284430065 1.4791361083037493 0.33750536954788973
Ni 2.9413418426693614 1.6922251704964844 9.505776874785372 -1.0608651893710181 0.6287540221210849 -0.6744942044706771
Ni 6.487546794554886 1.9180904506148846 2.702571664187427 -1.0080804414698188 2.4218868753278224 -0.04996013396821074
Ni 4.364373143433043 6.85814993678991 10.493193958888389 -0.33489929938361035 1.0625577465820928 0.22761436355200154
Ni 7.126197836268427 6.203737256578939 11.542069609628763 -0.08465794246071226 0.4659671965674297 0.31447059921561327
Ni 7.963465532054032 4.038662931159541 8.422357496879913 -1.370054485583034 0.6366372815239035 -0.09222469906437665
Ni 3.04217813004444 8.336406089807717 12.523589494423224 0.22994866811213302 0.9941352921436363 -0.2885947598901159
Ni 0.047323114500767524 5.26819806398737 10.521307519626651 0.7962307969512417 -1.4689969629872184 -0.1977599991947304
Ni 8.569592846550718 2.44973879358505 6.053504194242958 0.8984894832128526 0.8111758482968483 -0.6920039312196663
Ni 3.547078072079266 2.8275815574265106 11.622351192442855 1.1770060329313599 -0.57836579947652 -0.04765179755000826
Ni 1.6150176983645241 3.6772548359648534 12.587524630110117 -1.4997172748892107 -0.0953961548138228 1.0521530063090008
Ni 3.3185570513715703 8.682052546504973 8.363986683427715 -0.3254175851454202 -0.045357345088876726 -0.2652918234981173
Ni 5.581775543568678 8.384227610419078 3.623351487503964 1.298631553755357 -1.5092918059515235 0.4565515596804847
Ni 3.390662227371356 8.846517467998934 3.962341312224147 -1.6034759427351157 -2.8871341630100926 -1.708629948266651
Ni 3.6717250747378265 2.682216140170636 6.967494598552956 1.81447172389383 -0.09666216601043998 0.7265947818206584
Ni 6.225183271337705 5.871515022860451 9.19547268643039 -0.05755131605190733 -0.2519616820481144 0.29059790636307375
Ni 7.980927935928854 0.18194096787181044 2.6475414449764907 1.1426540378140515 -1.2845017992221943 -0.8363708595052369
Ni 4.517187367341772 0.6272795606902648 1.9142932872723128 -0.5171432052206125 0.9536242194034673 -0.869374053904135
Ni 6.179771926261149 5.751242716172615 0.3951450956807631 -0.7108837988433048 -0.29461859748669256 1.0467403199338619
Ni 8.213523517540676 7.172709676589177 0.3474263485922066 0.4193456400541488 0.4590293317970159 0.2223816543981525
Ni 0.06823798114167408 5.0191769087307945 5.994148392072195 0.24095247542180437 -0.47207922300243854 0.5493848388631376
Ni 7.2983753194737675 6.339152741626972 2.7766895641338265 -0.35084271008674417 -0.9455663820959973 -0.8781343165952684
P 8.478942961435951 2.026957624771978 3.685981490401255 0.6088469987845126 0.3044096154351854 0.969955352463323
P 1.8788364219046079 3.38810653180426 1.5310035267221904 0.2439313555444702 0.6718279704924236 1.1359717406978695
P 4.8461081153276755 1.6205292695875149 8.373583729557252 -0.3392038402962352 -2.4269195526557237 1.1753312163320984
P 8.49783328062762 1.7251763628081926 12.919485837270685 -1.5178178411446634 0.5341867909664606 -2.4959469876680305
P 6.5452818673660165 8.009540812277912 1.6586600655485517 -0.8286549789182182 -0.36724609114543205 -0.887892938643929
P 1.9904684766752143 3.471353085276262 6.266034382402367 -2.9684982652108816 -0.07847906734351001 -1.734971671484973
P 6.883534087422529 4.1182896738283254 6.398443969283405 -0.12179984161833217 0.5545280736269741 -0.4001258725925883
P 2.3169790491263127 8.672930259480783 10.473425972001971 0.3923248884909308 -0.04815881909341383 -1.2225904064293782
