# total energy = -381169.26258940954 ev
CRYSTAL
PRIMVEC
9.28406824258140 0.00000000000000 0.00000000000000

0.00000000000000 9.28406824258140 0.00000000000000

0.00000000000000 0.00000000000000 13.58817232101529

PRIMCOORD
 96 1
Ni 0.07415185142484626 1.7765064191992403 10.988414967444113 0.7685428441176699 -0.25305517222260937 0.6934573758367412
Ni 1.040753311202791 6.713188905876777 3.80693024244246 -0.10451122974121356 -1.3888371655071758 0.5130502660981616
Ni 1.267488820843156 8.814154934891407 3.025202429518523 1.1234047026661362 1.3669905019457296 -0.5562915932853001
Ni 8.053186298101934 2.640370382061278 4.21797214237967 -1.0764242201515397 -1.193211696156945 -0.0472087964753187
Ni 0.8198936882240992 4.678408997909814 9.636704794981371 0.5636691166962938 0.0689839833688812 -0.5908603323991051
Ni 4.77843554695843 3.665247936917946 6.992337621629445 -1.0758284955490698 -0.48905698850735774 -0.7372723161391624
Ni 7.782490726298473 7.465003451580122 12.21025031211392 -1.0258094833184657 -0.8883634505224443 -0.7137541784125643
Ni 9.015888449303638 1.8022604239385072 6.809685652257091 0.6300313461716117 0.4192754489378457 -1.8684031838049628
Ni 3.6063405252125933 3.3009596752166663 3.939414821761065 -0.06864382642064307 -0.04018994195532433 1.6171930352108923
Ni 7.278040889417413 6.336125766554289 1.8343897981999278 1.3812742655582535 -4.228745305650769 -0.41904919185965256
Ni 0.7116813763857894 6.986149790281673 8.303160758449891 -0.614410094694587 0.39053257247719836 -0.42834244423612033
Ni 5.978419909092425 4.367875490152426 2.872009736439668 1.5013352701086078 -0.9582766305738141 -0.8973656540210544
Ni 8.346952778981487 2.782110248807632 13.217717454177672 -1.1628842488179971 0.37958558654739144 -1.7321928231882555
Ni 5.011669904225863 5.693157634536294 5.559872768552756 0.21172957400094503 -0.23201814904665205 0.5094548354374194
Ni 2.0070483967354598 2.1484261848283053 2.4667833767218794 0.6817040919555549 -1.6389211709166032 0.18124400381757816
Ni 6.734458705753366 2.335955075141373 6.784628881027527 -0.3889248616704463 -0.7534679520624185 -0.6123272440236293
Ni 2.5307069703885245 5.183332322260846 4.938919947074854 0.21629251078127912 -0.16250734664002336 0.44196697699809046
Ni 5.708114268146589 7.646404856987669 2.826448172539902 -1.8056950061424644 1.4375228036383372 0.8286241256802828
Ni 4.635358774414507 6.21318613758624 0.9833443480788796 0.7110727749256592 0.6106861088757806 0.7696512466905003
Ni 5.231758021150541 7.723564746457043 12.427388880622713 -0.4769820596206947 0.22962290934159807 -0.1077518481656983
Ni 1.7805171365919452 4.455266422600413 2.604186655287371 0.33849755825782996 1.4279966093154568 2.1634061612142674
Ni 0.24785583602153227 3.2011837960050946 1.5062351293051468 -0.8564360056862284 1.6840558584717127 0.3701537517105303
Ni 8.106950336113863 4.120845007779531 6.049671417661992 -1.0009674845741212 1.2744071339903538 0.5446997746826425
Ni 1.8815649331248145 4.590971645121632 0.2686976403615395 0.2942331891228159 -0.8988530371998585 -0.4304337795475103
P 1.376920130814943 0.09100336332183367 10.192488100861835 0.6946154007005844 0.31602200286313314 -0.48174811355077035
Ni 6.603274824366978 7.923348606581154 0.7425564730551859 -1.9146791840533672 2.656225187867219 -2.935750638466215
P 6.163005749837236 3.7444874576279825 4.925032838102615 -0.481867412737454 -0.335172607649655 1.1592260832401196
Ni 7.680625931778201 0.2566886983535216 5.132782428603902 -0.10626215099404925 0.006702094610523942 0.09742295543586446
P 8.719847371754613 6.280551335274819 10.240495088282987 -0.9137785481614392 0.4206831279186497 1.1620044173162052
P 1.8239665750129144 8.543329386135404 0.49676819898586505 -0.4161027076368189 1.0844591746408745 -0.874464581053165
P 4.668382204428052 6.984200135993552 7.594157835693257 -0.8305701936630598 -0.9020304064865755 0.10922740426996029
Ni 2.8350201525600047 6.13299035786822 8.776519179876253 0.3894012870862326 0.45475821522548776 -0.834269496891518
Ni 2.447902367551639 6.959365253990113 1.7764089364848343 -0.15809250540177935 -1.5107624769597787 1.9504170037746087
Ni 5.745594050818695 5.173249824370851 8.497635060062686 -2.7426317375879217 1.3547453660297895 -0.09259725191244698
Ni 5.64047054841685 3.121944275295058 0.36515632206289483 1.9309326697977518 -0.2098454696043547 0.46377070313674323
Ni 0.7928937615540432 4.8872726765757415 7.069640485746616 0.9229946674430685 -0.11132979532494376 -0.04748698983736983
Ni 2.6534237817236463 6.738590116030574 13.065557149464716 0.3383108961683206 1.4124931143632191 -0.8859201311882742
Ni 3.805585909390461 3.831488459218346 1.6804627353392134 0.03808395135591506 -0.36133743897048093 -0.2740394877837603
Ni 4.020837026866992 8.459113604956643 1.3216465033399254 0.5622372693457736 2.061546767273604 -1.5888026569936573
Ni 0.779660250971725 3.503835129997653 4.997756799863113 1.5628100895846375 -0.7058410942130747 -0.5683811774599824
Ni 6.743185729709714 0.46243478697206464 2.304078227530604 -1.0591687755052017 -1.1401955489712299 -0.18305714576691698
Ni 0.25285809188076697 5.7311109046783715 12.450611120007835 -0.45966130895406 -0.04545453278837333 -0.5438402548958247
Ni 8.471591392400613 8.624667106222182 10.057380772322308 0.6851185169537426 -1.4042709835637428 0.05599451308774873
Ni 6.340108631742878 5.644778355986791 12.949772751734068 1.3875104762759523 -0.8913778118687358 2.135910012676528
Ni 6.048932405846114 8.299938258433668 9.810211957335637 0.10852960687198729 -1.4344662762002005 1.523809282841408
Ni 1.0623666215968115 0.11958900881289436 7.724468086277206 1.3375076619952644 -1.5433915758487098 0.45284814268696844
Ni 5.4376972183842875 1.951065466462288 3.232925096222499 -0.3385839473240491 2.3137334208483313 0.6323553663190981
Ni 8.76462443190511 1.2657712682560023 2.3968446353729806 2.117510170013101 -0.6495452478348234 0.2936053257308298
Ni 3.6701127885702083 -0.052833774394455385 9.551398135808064 -0.5575912859333301 -0.26154392641991087 0.7484347605138852
Ni 3.5099904671072903 2.1822944650333684 10.418472529397873 0.7586824063838224 -0.3150850928711606 1.210925054276308
Ni 4.26087660600677 4.682122625125281 13.077243005904988 -1.0920480427317256 -0.2000138282259136 -2.258334375252736
Ni 7.382932290118291 0.6118720745292785 12.000951210656979 -0.900489801472333 0.01989725314455928 -1.391840985330506
Ni 8.253610758920713 1.2554845208691574 8.874571007653044 -0.8635641320905773 0.8548141538120893 0.31775209818036243
Ni 6.300967000891851 3.1761539485728445 11.613416570993676 -2.206422002654161 -0.8047784294109366 0.1390380598734896
Ni 0.47924452056287803 8.321505148487496 5.582972458239767 0.3849964731503176 1.1123656712431553 0.2657739053408584
Ni 3.0607715509882705 3.8602412179341026 8.985246382742012 0.7554734125282215 0.6195839255860427 -0.6286092690131045
P 5.7467824115276445 1.1584103054568384 10.464849234471433 -0.560534427722054 0.10520979847013494 0.3331530061164649
Ni 2.4459527132635186 5.009692397733626 11.530650961242554 0.8554810979721266 -0.16245900990059117 -1.9540720840286927
P 2.555402591371383 3.002207649800349 6.211737822972206 0.8504224525022968 0.9089641574919315 -0.23507493359510484
Ni 1.4044381084815567 7.180883117392747 10.642256633808746 0.6720660546451587 0.14426896925512575 0.20328889943275955
P 7.439927183807678 4.093438438929382 1.1187626928977041 0.4957115177093979 1.6007670284443851 0.6716917020248755
P 1.4274811653535324 3.2561918991342065 12.028725428601458 -1.1180223553083004 -0.9973707683617986 0.6575316084744095
P 7.6477510468532754 0.8653661250706943 0.45612069229896607 0.5882105534810838 -0.1709505923113701 -0.03402006569918657
Ni 1.2942640730666763 2.0991092154068975 8.754968072738091 -0.9588335315185488 1.6372746364521156 1.7516190502336673
Ni 4.996462600778523 0.9468171107875419 13.039481915971312 2.1452503162408476 -1.4320890342172756 -1.213651709178852
Ni 3.702495617889084 0.31229933749834277 3.4432835098426526 -0.1802854965590508 0.9515796781696126 -0.9337673325785403
Ni 6.538666994885884 3.1000245906557615 9.06946587754799 -0.3033302663280776 -0.541301547634371 0.5385013591814145
Ni 8.169218580449215 8.548639873053524 7.60244665163818 -0.5521881126398878 -0.2923385432032643 -0.8035522703133192
Ni 6.283067317713297 7.725115185819502 6.373573054988259 0.0009605641410564103 0.2931906067909144 -0.5690218963677749
Ni 4.499115075947045 1.4114197276466356 5.833673861115151 0.9810743451946199 0.7310510178197991 -1.8626482835990568
Ni 0.4138744690958084 5.969163693257873 1.4697645248288447 -1.4825633888177434 0.16628841094901037 -0.15064273399195346
Ni 8.575684363250167 6.594037176668503 5.677940118614113 -0.9487735761793853 -1.744652646218163 0.9516987202459803
Ni 8.482203082168812 4.760192353262446 3.33272975604499 0.7448421580666205 0.21993447840924057 -0.45500658379086806
Ni 3.9844899004956047 9.057443937844718 7.285080998211136 0.6213351039491944 -4.293243999554787 -1.3225322716323547
Ni 2.420412242089141 0.15661758577832027 5.38204387252649 0.1536954047753482 0.5336751414373647 0.424390658677224
Ni 4.346531417731526 5.740227859492343 3.253579362388125 -1.6184611032900382 -0.6112779768235085 -0.3190944711408698
Ni 0.2847507224072014 8.817460063113174 12.174757320002088 2.0490216382234 0.41236432364030917 0.28759202965721437
Ni 7.861219623266384 5.682072457298124 8.320907254505805 1.35668989135067 0.14700642279094683 -0.5026095303808119
Ni 8.221868530296504 3.803153483564329 10.773707896354647 0.9423992972219254 0.9963963202636711 -0.31086565547317435
Ni 2.527299717418333 7.045066486055063 6.374809692851009 -0.20314208944225015 0.18185592636996423 1.1802404807082576
Ni 3.693137277306106 7.459386590416727 4.41150875312056 -0.523374530842305 1.0081264642164058 0.5212999077014635
Ni 8.855106959009975 8.224393796803023 0.8267481156570483 1.5666142938220762 0.568418201345505 -0.6244800773360794
Ni 3.2313941534029222 1.6325662283277222 7.773072967680048 -0.39812015501646925 2.818466682440365 0.7246479425069327
Ni 8.335245569184725 8.068142931712229 3.0155275022154266 -0.18757740223477373 -0.31553400748312105 1.734419141415613
Ni 6.403258862541902 5.802291854330844 10.763123130383761 0.7500162460683921 0.36486113585302327 -1.2294663076136052
Ni 5.839650944118446 0.6368062960607308 8.349197666633236 0.3257140333399165 1.6577642717650354 -1.2784195975838564
Ni 3.105780712839736 9.421193723599755 11.955077702071112 -1.2941313518921584 -1.094310099293025 0.17316791167766304
Ni 4.02587827581199 6.908015073668237 10.590363335506606 0.07266837419900388 -0.2664099962629605 0.4762554658673153
P 4.61218574058999 4.526716610226007 10.73670810000014 -0.5116405302348286 0.13369633594560199 -0.6425999268652417
Ni 0.9911299675361072 1.4068798183757267 13.550614425026604 0.4657525094534624 -0.6748631577743217 0.44053384409598967
P 5.692405625025162 9.362518413595371 4.288359304214837 -0.2788813892570939 -0.9410450971868761 1.4081515495650716
Ni 3.229602328271459 2.3849099659092725 13.090002100610532 -0.8394389569075995 0.8960027122352568 -0.21805294511581155
P 4.3928589172444825 1.6207661778505744 1.2989070354928145 -1.4742384138918159 -0.3831483641979853 2.186614481009931
P 0.4990790035206896 1.0237170463518341 4.54031127105503 -0.2830676594242996 0.7048594470260957 -0.5144350622608301
P 8.578395311117458 3.4910695364444835 8.334441568892577 0.4807101592045591 -0.20373292894871367 -0.32076234576159596
Ni 6.952857122295006 6.414381176052227 4.094374272987679 -0.09950349211397702 -1.083036840372051 2.2089573674815055
