# total energy = -381165.14425217774 ev
CRYSTAL
PRIMVEC
9.29519620060164 0.00000000000000 0.00000000000000

0.00000000000000 9.29519620060164 0.00000000000000

0.00000000000000 0.00000000000000 13.60445921241645

PRIMCOORD
 96 1
Ni 4.801935489238606 1.8120705953120742 4.825216237406154 -0.47459993254176325 0.8587803375486887 1.5771347337374257
Ni 9.05937698096922 6.38407081847203 6.7515805640398545 -0.7069356128288341 0.5405970653681786 0.31307988951567367
Ni 1.1942932717029338 7.056671208715438 1.2392625009450369 -2.7901822336733755 -0.031066382387501337 0.2457876920269186
Ni 0.9766741404649754 4.44781640318135 4.396403743998441 -1.2113557140558235 -0.749494055016335 -1.022529269905297
Ni 5.235165989355589 1.6795489844262217 9.1946146481573 0.3382715582899529 -0.3740536009855687 -0.7201382275620372
Ni 8.169622219293164 4.800596980999317 5.183475403809104 -0.36294180734312337 0.5311611167662594 0.5594021138898237
Ni 7.518298532936809 1.5067605840083844 8.623634918864349 1.5567597696254996 0.9284230375474914 -0.4140018592437322
Ni 3.9387278076418086 3.1206947791210595 1.1521469935182784 -0.7208861614716553 -0.39544337951525443 0.6606351871003977
Ni 1.764079497815851 4.829765306380519 2.130689468400597 -0.05982751368059374 0.7859350714521884 -0.10201468857160496
Ni 2.4204039996773323 8.039173437138992 9.490661067021568 -0.1965569800255647 0.13121702116717404 -1.5253221199415086
Ni 5.552067110203688 4.0951845485010825 4.938840714608135 -0.7360672400874678 -0.14985391954207095 2.3310230611667144
Ni 1.094946215720049 4.107175351478058 10.110235152038033 -0.3361030898837244 -1.4130960380545405 -1.031055047988121
Ni 3.409886920376628 5.0181603410606375 8.964971251236383 -1.3668226089092976 1.3334208935204004 1.5408847502664558
Ni 6.602201185495829 9.372346233864405 12.598123204965866 -0.953941750643886 1.3483492326954585 1.3678320240104185
Ni 2.524714690380919 -0.01616899362670548 0.36703197248796654 0.7304943739853806 -0.2491776915450741 -0.47490769359016916
Ni 5.964225400747953 4.175253367759743 1.1865085449640054 1.1636699779440862 0.3599883811417542 -1.5069109644241725
Ni 1.394074921613127 8.228274906723179 6.782843097103781 -2.0662935379299707 -0.17844355825430558 0.7773221329721967
Ni 6.5564967062417265 5.707343361157476 6.953062305317868 -0.22746935333370502 0.2943170070858737 -0.6597527844954444
Ni 7.049355889379872 5.199444550719527 10.503853244428905 1.5958477367658968 -1.4129232599221022 1.9408049346061413
Ni 7.203079842583928 8.678311121400139 1.5180672605519456 -0.8865539081175312 0.3705957243439553 -0.9482182178965476
Ni 8.055811838169058 3.5288561353396655 2.7589294647468563 0.32887340490450456 0.5587120298013345 -0.3570598946410496
Ni 3.3793986771483473 7.170212029152465 1.6883273676289012 0.6359474545457305 0.01904416111564462 -0.23909948137346565
Ni 2.9813597894893755 1.0155652409732454 10.025724158560227 0.9575279253332479 -0.5489022427997643 -3.518828498706424
Ni 6.009734680883825 9.121710566057285 4.142952561290757 0.9584674064283816 -0.009940399042163525 0.9022844314789105
P 2.229889660285004 1.172681940756058 4.803204283507101 0.7979840321969225 -0.5197317918833952 -0.3879049050463642
Ni 6.728374177441158 5.5650060231834955 12.728426982060782 0.0408424879376587 -1.1381049849907883 2.0053208549013397
P 8.553634656027905 1.102558981331013 12.607837614416438 0.16203374943771448 0.9641307753617461 0.3928473366533041
Ni 4.080804880124817 0.7037560285521125 2.9613370075570464 -0.07180371220586343 -0.039710688326060645 -1.242298169270951
P 6.115541898160507 3.195372384638135 10.673310246562286 -0.09072574592134697 -0.23153838119675607 -0.7224041407780784
P 8.519409743964939 8.65697864633645 5.628600036863558 0.011831959637921559 -0.02221201732066497 1.752440774804014
P 2.823350750880369 2.3336984103988563 13.223385020479705 -0.07213512740335319 -0.4210811346880168 0.06987641327616352
Ni 3.2130425524359887 2.873823665736943 8.205855823234677 0.5151922521418288 0.7265384746614262 0.5872327629488467
Ni 0.705437529527721 0.5991302307005264 9.534358713436346 0.12733671227616133 0.4505554899980498 -0.2334433115289528
Ni 9.231542603247945 4.346099072191389 0.9337628676407812 -0.43446758329725177 1.372411672961301 -1.0216769492073308
Ni 4.026102651039929 4.912269467019001 6.790678947421292 0.1866024399160141 -0.6509819802813498 -1.1329504373730424
Ni 6.266365750179433 5.18034292272132 3.215604308482853 -0.7100718444649706 -0.174283513339345 -1.8919655445059353
Ni 8.275094809510023 2.8876828031312622 10.219859906355524 -0.4718095142808197 0.4026879768928097 1.9587517488925494
Ni 7.320004114403605 7.478979853407654 11.692611226850607 0.4749264626432466 -0.665590474223144 0.0014331329021007575
Ni 6.152081314053913 6.658948357724076 1.2768597101553265 -1.435265117952412 -0.7438216872219061 -0.047818147924543454
Ni 4.508095749929947 7.435738601121691 3.7149152872383002 0.1314684750563478 2.222664689765269 -6.096363017439958
Ni 6.849992523294457 6.695720153520137 4.578920496661009 0.676245639944145 2.1342768479484793 1.8001049136491964
Ni 2.494616845389098 6.800439832852396 12.900864024065806 -0.7931089634928082 0.4732156505997269 -1.4643939169975682
Ni 2.553325303995751 1.1085357924272887 7.103105360863875 -0.5887761961765666 -2.3246588095115834 0.019334952883186058
Ni 2.1433885653208637 8.856137518107527 11.599787539495042 -0.6836324193265194 -1.1534367302518522 0.35502666626110474
Ni 5.567171803876235 8.503942537644251 10.374229875688961 -0.2958612116445421 0.6980827904238945 0.668671684251629
Ni 7.3952301364909445 1.0501247800960343 2.809906179232386 -0.19240361997882346 2.5759417203251185 2.211759612816991
Ni 0.8358825936034521 6.147563848746308 9.191213535902047 -0.23039218340745482 1.1026186191587204 -0.9469105548287177
Ni 7.499503646410107 2.771957611609283 4.717577866496553 -0.35656572861345043 -2.6447711803940064 0.05994244199190322
Ni 0.3385561392166747 5.575909288216048 12.032872105033155 -1.4167662878172762 1.625074751951814 0.23152449723968513
Ni 7.899987170645005 0.45958609915645277 10.684588107997918 -0.41355474440398454 -0.25295695608184826 -0.4809333309589588
Ni 4.604180192079562 0.024905548446906962 6.279247032943383 1.73408926888002 -0.42364503876045106 1.6820347142766259
Ni 0.20097515309022698 2.247178725042504 6.398380772877498 -0.2865221936318033 -0.11721376490954652 0.3205335175802415
Ni 8.168460319779891 2.293320078513597 0.8586716258969811 -0.3956102441104219 -0.6774116352277882 -1.139861819780895
Ni 4.037238295975137 0.8413054110117992 11.970495762043004 1.47277108531767 0.05184552391638167 2.0351214832025404
Ni 5.630100281515095 4.471881665900258 8.928321222509314 -0.3623519962779243 -1.1558288846331128 -1.6631376202618067
Ni 8.57561779481903 5.881767716090002 3.0732744066657562 0.6208861893372339 -0.7388442886119727 -1.3185959126924258
P 7.298058156396907 6.930395969612941 9.576572846552576 0.3211644662960211 2.676740019991119 -2.105221839564052
Ni 3.554566647769368 5.633111925053498 4.468738030577147 -0.9528464606971784 -2.469685225758024 0.4341955605827877
P 4.901412677966979 7.143609177896568 5.515247908907487 1.399824517756615 -1.0676346468843678 5.760076607900834
Ni 8.238341604106175 4.605686013848763 8.532825500504995 0.2373202779858558 0.8579203035412386 -0.03464921464275323
P 8.19902292457702 7.039791132586609 0.7480030210567653 1.741299927695846 -1.6020700635265248 -0.8194846252728596
P 1.6229598305317792 5.6394884295823395 5.91998026728252 1.5995938340718903 1.906788982672013 0.09482922656675927
P 3.9034153576344193 5.054169930775991 2.2424363159891296 1.1584596373877405 0.07737220743257642 0.70408014565791
Ni -0.05455536498640977 7.75553982315492 10.7133344314759 2.070761086783021 0.24013666438872838 -0.9855904878974187
Ni 1.6308793376142472 1.7764792894214991 1.781082270533281 2.653939991377468 3.567785388221101 -1.2304914064440098
Ni 0.03667047815850289 0.4788736310767827 1.8842580177923027 -1.6714517965544569 -2.361977086346068 -1.3152393375153673
Ni 1.6695938293964998 1.8269800898663917 11.599733627357626 -1.6385933552635394 1.281667929317825 0.11283260512271535
Ni 8.787343771725666 8.029710927502896 3.661871321138756 -0.24339682319723888 1.8020445538740708 -0.8325170329767856
Ni 0.43511928396575766 1.8317485254688637 3.8709035502138227 -0.5636773442264099 0.25131684937526394 0.1572026465976583
Ni 6.389294718683705 2.955444782745337 12.719176402895908 0.4953484779430243 -0.0945363779166888 0.17112079934064722
Ni 0.3028839651199759 8.51344222806477 12.981279554139228 -0.6998080006451174 -0.41403091270945475 1.000759225218057
Ni 1.1221253691345283 4.36940212882959 7.518925958673976 0.4699094690446294 -0.5283758407116385 0.49541326974268873
Ni 2.7469628292797563 3.353018910599 3.5519472615066454 2.0182987552182468 -1.6151842323109795 -1.1650894839994321
Ni 4.712580769069869 5.535670384272382 11.164566937891728 -0.9226408836480755 -0.34849503579017405 -0.3696382455266924
Ni 2.9047673735744266 8.45738290034838 5.198223161951174 -0.6847086831098337 -0.00827355286270188 -1.9056826369817117
Ni 2.416983367510257 3.028755994434803 5.792084875498716 0.6996923010028595 1.3701097643010018 0.6627895144392392
Ni 5.744226699306812 1.4733536492027626 0.891633320809117 -0.34366316161916943 -0.5657704793100127 0.33745111927118654
Ni 4.0597977369248435 5.441435686147897 0.056381871021274746 1.2924807036626127 -0.9584738341862847 0.08436715069317083
Ni 5.244972421247611 6.940239582289388 8.627131771639496 0.5578576522208393 -1.1265969843511887 0.9011752575751318
Ni 5.64039006360464 2.7734169573979535 2.920292210110974 0.16931871313490193 -0.3653249628633192 0.5715521189887963
Ni 1.5264106285768555 6.8146986636792795 3.88940563806318 0.08975515447796155 -0.0687024475727204 -0.24601497754637633
Ni 7.223566454801955 1.0462858641041806 6.42527735233035 -0.03485953088134641 -1.582467973024881 -1.9052717746965377
Ni 3.4594117252303715 7.087057204786551 7.286221653675294 -0.8693812529929865 0.7694913240738683 -0.8547686452861343
Ni -0.11096047399794998 3.284578381669174 12.36805873566134 -0.23370890648551365 -0.5256520140225721 0.5158666525010341
Ni 7.239935295144944 3.2928789917919956 6.927798891820873 -0.8148666668848741 0.5434283641693866 0.43168667811800493
Ni 4.01353554590437 2.956913423730114 10.71835476689285 -0.8542994189591997 1.6735945539290726 0.7623688540964741
Ni 5.219810325388173 7.39256241520847 12.567200876079427 -1.6779913974451874 0.6903987915160755 1.2602647810517005
Ni 8.670084872846168 8.303380091261138 8.388427417554272 0.2507918301097294 -0.7414400743636069 -0.38566521708256807
P 2.56679404315361 6.239614175785839 10.54342847137059 -0.1941388575023753 -0.971002819891231 1.9993114154824665
Ni 1.9765862711954085 8.990295083508068 2.6368844693922835 0.3163888992842486 -1.5085161041277633 2.271894116215042
P 4.811212094952578 8.743163704632979 1.0783115327684236 0.4124846512682574 0.05063376299646763 -0.4371405021437246
Ni 2.2011582091207917 4.336227573926622 11.970631471906152 2.3502821665066427 -0.4137311220808488 1.908814497742474
P 4.182773181409646 9.0352931278581 8.536498962006156 0.12217008047355735 -0.11516613835189843 -0.4641615108172587
P 0.375379058591319 2.5617560468640588 8.650422744522759 0.5844963378542902 -0.2642852366104739 -1.2461553382335118
P 5.045488217612816 2.9556771626479916 6.903188001090532 -0.07864773171089036 -0.34087711423360006 0.052957011813005564
Ni 6.46633330401175 8.950920632802276 8.163586848461419 -1.3526674004548382 -0.9535254890420739 -0.4458773677960901
