# total energy = -340853.8860804811 ev
CRYSTAL
PRIMVEC
9.36959595976220 0.00000000000000 0.00000000000000

0.00000000000000 9.36959595976220 0.00000000000000

0.00000000000000 0.00000000000000 13.71335078038264

PRIMCOORD
 96 1
Ni 4.282842229114318 3.323301925715506 5.603302172675355 -0.313984146497498 -1.3554418778761819 1.0473874665995575
Ni 1.5857384978822897 8.874347051870538 10.561131018437274 -0.7553749392771443 1.7353599080623276 -1.6485270694374832
Ni 7.781121355942732 8.177839410685522 4.320870607489524 0.04938832062514075 -0.14163924494176253 -1.5128178168269106
Ni 2.7317806051982334 5.209410924978121 7.306664702007776 -1.9888963907967292 -0.20463487193769275 1.031400604252998
Ni 5.668849053844059 1.2836533604749945 4.4193881592336615 -1.4419433013035359 -0.9440643436291741 1.8824246948950354
Ni 8.703923474304665 9.14562495836703 6.099917920620056 -0.03646389925398881 -0.6427328528986801 0.1967197308556741
Ni 3.5090073139916944 2.640342720022284 7.923875580223114 0.11314833659092126 -0.4823497516905112 -0.7908286520990637
Ni 6.294578768538747 4.502109509459392 6.221637402383787 4.399850164151816 -3.420539338615522 -0.48005787033254094
Ni 2.8050321049733715 6.244292148010073 2.823551111024224 -4.47598130008844 -0.7313032430399212 -1.2575738644830987
Ni 8.089540340094462 6.4673447450485675 13.680054888455016 1.0793627339545733 -1.3079320052206764 -0.9477543908862516
Ni 4.617898974056625 9.014666118208792 12.099480911764344 -0.9875830928474153 -1.1448533594582153 0.4344081908142261
Ni 1.7025773572064105 5.282062770623609 11.658446542921213 0.694178827383798 0.1975265430276856 -0.033540554959606755
Ni 5.200256829905173 1.6640214705890282 12.823889335250511 -2.0486783959513684 -1.1203666871707607 3.3728988539194233
Ni 5.957226472631373 5.20306770863791 10.527643146175018 -0.8111226264614096 -0.8345466618123047 -0.5504531322266519
Ni 4.663397731143868 5.558259714902391 5.927156628908124 -3.496304863682611 3.7871683650022447 -1.614427299540297
Ni 1.3289366168593948 2.4358794010029605 1.8137410523691342 -0.9360031638875945 -0.7077956468362843 -0.33208239876010553
Ni 8.339249437115082 3.243004489916972 1.4289720431192108 -1.0005525085238898 0.8126740301089295 1.0963618396157313
Ni 7.265924762615057 9.279666395535505 13.057372166306616 -2.2318031617314276 -0.3765393435218999 2.4141815362637646
Ni 2.771095429073455 3.3273214823033204 9.861928681507141 -1.7834804177186379 2.512974632574279 -4.325633728739402
Ni 6.045881587861912 2.776810882496688 8.761048025830512 -1.4713919455819564 -0.4349771759438186 -1.7140835151820544
Ni 7.620685767473852 3.3898729037025044 10.078050588550282 1.612527768524739 -0.6351468130213062 0.8456926511267951
Ni 7.078542216695002 2.5587991279855697 3.408206391756996 0.4425441896577991 0.05599014221237454 -2.4178440727170165
Ni 8.183686038449617 0.7602752361158988 8.702340949578135 -2.4853710119243972 1.4968198987367576 0.7552011327034414
Ni 8.14302199278268 5.378035540155042 11.111063514184542 1.7075822237284268 1.593110797450708 1.3000739426288384
P 5.863998994662246 6.579929807890479 12.265179402180484 3.912726902332061 2.106591723328385 -0.895991142271031
P 1.41167951715541 0.2584340646070378 5.9554884126149625 0.12200424431965438 0.6983689542057456 -0.10577209873150817
P 6.607251549172687 1.7349399410159942 0.8737335452841138 0.1658973461581788 -0.6815505970968262 0.7209506961610036
P 2.801068765960212 3.9328316093138493 13.378744616618379 -0.5519011775270882 0.913830227334981 2.3335152314609493
P 7.165323412770384 1.193218022047054 10.754764021699359 0.11429453438022251 -2.099613235128023 -1.935191702184422
P 2.312275693528718 8.951589999446163 2.0043298739636652 -1.079805992139579 -1.310420061749853 0.7742100697057763
P 9.295632186737453 2.2224962268050836 3.345700881377113 -1.0430710986123908 0.06842168310750797 0.463142325524125
P 8.09958454676611 8.121453183306809 1.375037838955022 -0.35172177025758783 0.5594123983024689 0.9035956940911664
Ni 4.745109975904547 6.69031301572508 3.1416048505122007 3.8164843403575435 0.7137037847906031 -0.09470581361501754
Ni 0.588404992962244 4.957996561526306 9.53878725151291 0.3014677591980421 -0.21966914056299586 -1.682856953067605
Ni 2.9896506201395683 0.112705930627419 4.52939658323723 -1.2098058530702003 0.007742620059896342 0.5321005978613933
Ni 4.396617230619755 7.7494146438374525 7.407375676123028 -0.20928111246045247 -0.3260120241963095 0.2285708139279999
Ni 6.508702140802911 9.256682777097488 2.449588056582521 4.7128799171558455 0.5827569865656803 0.17330315170394667
Ni 1.321197330748591 7.395178336342102 5.8199187943754565 -0.09278879909796278 -0.4572372728935996 0.3099104906487566
Ni 0.5355970142103053 0.07463164123291245 3.7520958546371403 0.24687269756098132 1.0432513329439967 0.20387356829163597
Ni 6.636906319803067 4.3062849577453495 13.172468280816439 0.5081116911459637 0.9481752804737541 -1.5107038558077015
Ni 4.791845519634195 4.883742515003157 8.171826941076196 0.6050170835154612 0.3139712909816915 1.4203578618232764
Ni 0.3465775999082192 3.4199118277596927 11.481118510228162 -0.964570691112642 1.818319122664378 0.8555533459709589
Ni 4.971854193678702 0.0919935022054542 0.9638137760321515 -0.24140807490198427 -0.15600039875944102 -3.9848196065332533
Ni 4.551918280603501 9.075577860347213 3.0726408777640644 -1.680637833929099 -2.3607468134833924 1.5245225068583486
Ni 2.273007717632376 4.960629417939304 5.063668736604839 1.704847341295767 -0.9248762007364975 -0.06870116202113975
Ni 8.345705088604603 3.0088489218841654 7.491343182586938 0.03850741204657884 -0.7187053517702525 1.590205707988771
Ni 2.9883950943056123 2.783753752966549 11.707745608055118 0.6893598087285998 -2.9699817917349427 4.661755073455572
Ni 0.6369582382723958 5.019826524050755 2.075721508977309 -0.010760066729981468 -0.24407276621834093 -0.21385124832963817
Ni 4.041078549311569 0.7958712674277084 6.481601521981012 0.7462161555960116 -0.21588344826831848 0.6127267934548931
Ni 0.541631033889915 8.220021330868136 0.262846207257858 1.2042900654582938 0.5048271068574208 -0.6243859749603763
Ni 8.826318503923831 1.0717505824096925 1.11247178261086 -0.47239469736032835 -2.30802402916838 0.29963430553372916
Ni 1.937819798349209 6.127003548088714 0.17299272072759458 0.7294823877810985 -0.8820881590366938 1.208384033022009
Ni 0.6890157124026938 9.092742959808463 7.908955435909744 3.4259283708415773 -1.685156547735059 0.07339393951111875
Ni 5.6390068912981635 9.235966600837212 8.956079909741923 0.6852707262608908 -0.8235096872718527 0.09539435504160991
Ni 4.444364690693189 7.103352906309298 10.520018169132678 1.051517429607531 1.7339146909753687 -0.49335844409618895
Ni 6.487198918497469 5.375927381105488 1.7763722935365447 1.9513361731547685 1.0564539476772 1.108314383991917
P 3.392740000009897 0.239095218925804 8.68063347008478 -0.0002349988289415308 -0.3370538838327679 -0.2873040661031504
P 5.996691210039006 2.897097753066299 11.650437412452069 0.8325738543566501 4.3155377779559805 -4.164591653790995
P 3.6303529488839708 2.3476833959654346 3.845675629407436 0.1074029494667118 0.19616797211726217 -0.4185146595124212
P 4.547561418567757 6.105247346697327 0.8885646784376142 -2.1519107589801583 0.6855178092746904 1.433299766695925
P 6.562408663789748 6.346214610859135 4.135795793009046 1.6429248927593576 -1.4657838553665594 0.7420586817842123
P 0.3357547798276024 6.563036426706726 7.995212871581258 2.142993916106503 -1.5264379787135067 -1.0989668813387459
P 9.208457467639489 7.487674985840716 11.270549962601331 -0.03171661437699053 -0.7845464186347778 0.06882277520066857
P 8.745355826825216 4.254892724915132 13.421201065957224 1.8658295095405157 1.2592234842713796 -1.8308781902763114
Ni 8.025902045585285 4.610000404817632 3.584807343817848 -0.2379766806229321 1.8312728546115689 -0.358738310784737
Ni 4.983706732335078 4.096059337323914 0.8864340323581993 -2.126020007256326 -3.000887223064548 -0.10638170729104904
Ni 8.980841877458186 0.20924181286497695 11.810060656967186 1.6341854560038307 -0.6812212387818656 -1.1573841449353746
Ni 4.248961770789056 5.51349178628566 12.442150453274479 -3.5227190920100817 -1.8910756857018143 0.26489227406685345
Ni 6.547548484889343 0.09838450348412162 6.860775945593209 -0.43664787877802214 -0.10096362159927127 -0.5661592301079992
Ni 2.3700205122949214 7.224361235753646 9.14022244944271 -0.3159160734128882 -0.6934620038224315 -0.9355398510979308
Ni 1.4696866846033354 2.316332728499636 5.030262379825831 0.45509297285708716 -0.10092814037564554 0.08788544825907445
Ni 7.953681201345485 2.091762256945464 12.575553820970622 -0.0081586245513924 2.0542391778685976 1.1457074799283946
Ni 8.339530524988357 7.889986689261654 8.520927773126836 -4.275937904176171 -0.7303478211051874 1.04202183141227
Ni 8.10639624289511 1.8557327697574992 5.293257563656525 -0.39984407968611135 -2.0209930142209585 0.3992668670264027
Ni 7.264078952247226 5.059384957416146 8.18342837456578 0.7793458482704448 1.4370556341939316 1.680549902200983
Ni 3.515659726992506 1.302992206156228 1.936448089527633 -1.787173293189193 3.155520566273133 -0.1059965560374884
Ni 6.071713563415769 7.476459579697093 0.4657166949952967 -0.22970107087770117 0.8795042003596014 0.6742406936989743
Ni 5.294149549174379 4.187169286647711 3.5027465500943102 -0.5425971265173429 0.03994465871373766 0.19758696395197584
Ni 0.8067915313043935 1.671357864081473 8.88339901834953 1.457075528959284 1.659945081466438 0.1428594905021088
Ni 8.820837290394993 3.865117540642204 5.519047956580704 2.4139665920394817 2.55244286587223 -0.08816261317986107
Ni 6.697227777407613 8.23060897409478 11.000465742606675 0.825195816725024 -0.41202365247143874 -0.7924659305921706
Ni 2.5316460394273257 7.55394613676289 12.015788871416241 0.5419129559661249 -0.6039158800314826 0.9223549769765405
Ni 1.2111420587661432 1.5983218650091777 13.210481667838403 -1.8602707845058157 2.8065889571661726 -0.19534059111996036
Ni 0.4972135281551976 7.376092469746814 2.7036830613857896 -0.21190646589844153 -0.09094377546942402 -0.6510858528490657
Ni 7.960558484644916 6.365478499774161 6.100260847825451 0.708628941370857 0.16188693944720506 -0.21741556864212877
Ni 2.9386987583108137 3.8379738216797357 2.0048779953165488 1.0132074782837388 1.3658643587610864 0.5342045315782735
Ni 5.583960516115388 7.943412124375217 5.236086164151799 -1.112095448300904 0.513932925813431 -0.15702318359700054
Ni 4.60441612573526 1.3751287240340473 10.216418905048016 -0.7965681256860023 1.2768910767544717 1.2902659553994813
P 3.375940314783903 7.009132251187937 4.902907086202963 0.3789741782156376 0.7959549175820356 0.3015806306268225
P 6.093488503998708 7.100766897875179 8.715999946300084 0.2779246817707794 -1.0673145445407877 0.2580510827753039
P 0.6600252461128171 5.8482955521420195 4.3053067719463565 -2.938934178400519 -0.004866326953365812 -1.3934944617735292
P 3.3485061383523846 5.423749797945129 10.114679149316583 -0.9484653009103473 -1.092911933393918 -0.8454311699352924
P 6.297333429696829 2.199428282005085 6.665894912173789 -0.6280431120969894 0.6124475716515775 -0.667626016595934
P 2.381413940758284 0.06402806969344915 13.173798763416602 3.236462236224523 -3.0999320303745517 -0.07972785214894657
P 1.0533674354975895 1.6512975595255033 10.93008883481555 1.3776906619720533 -1.6555610934661296 0.48578140307987955
P 1.3133830878715809 3.3134732197467 7.581686698976275 0.2134367865000389 1.3682770819676373 -0.7874067709017084
