# total energy = -340896.7866094908 ev
CRYSTAL
PRIMVEC
9.02227542521097 0.00000000000000 0.00000000000000

0.00000000000000 9.02227542521097 0.00000000000000

0.00000000000000 0.00000000000000 13.20501207037905

PRIMCOORD
 96 1
Ni 6.333962277938121 2.095134796873999 11.478034368651258 0.9057471932165305 0.3000693361886187 -0.5511175052835282
Ni 4.562952732240597 0.4119543975265816 6.005401676073315 -0.21071938756887582 -0.9872388221341192 -0.25867611795381257
Ni 2.7028933263033554 1.5890302467071429 4.821849637462149 -0.7349102436648892 -0.9644611621179714 0.1979677443301623
Ni 3.275573248173237 4.105342913460617 4.86338007430809 0.08104348563657657 0.8478423504799463 -0.4032852441571764
Ni 5.068912925997743 4.645759177760365 2.5172185032244028 -0.28655536086258393 -0.22642882788433263 0.9280129465932663
Ni 7.572838008342997 6.139658550468767 2.534134367759706 -1.0743560247686013 -0.620388423765209 -0.2762087275209372
Ni 5.009077194173042 4.621173476731669 11.429532419443895 0.4229927498884328 0.4327572854743643 -0.39411257651897286
Ni 5.592547757668728 8.01279123376035 12.307361942433902 0.25101808718792257 -1.080819263895442 0.6789404131674888
Ni 1.853256610129668 6.695457794678212 0.27927191022452613 1.54473574858143 0.35348811812939124 0.45619597611327883
Ni 2.8991007539257567 1.4375101501655227 0.5110812373916004 -0.6467833688189699 -0.08214160379676176 0.07676645552777747
Ni 0.3163408317828744 -0.16849009473056456 4.8158678687347996 0.8458435748823627 0.7093128548117591 0.18048475705405045
Ni 8.501464747454751 2.2932729914762686 1.5371160728652657 0.5743803324662108 0.6517800507026129 -0.2541070105258914
Ni 6.643327086221771 0.7831632961850192 4.6922690085137315 -0.12736396596967098 -0.6240388760336028 -0.15298758007504618
Ni 0.5000370698212421 7.724394193987044 2.551512172806081 1.0192192316954576 -0.8620775202427218 0.3552161565640915
Ni 7.588789391615927 3.83109280183887 3.8046412942146755 0.14326083970558554 -0.2732758701448584 -0.12134989856510714
Ni 7.649644640584203 3.9153518337313424 12.662048347773496 1.2059584542996522 -0.10297216738886783 -0.18214568969624115
Ni 7.695008642335499 8.843905218113152 6.917775687906869 0.8834816969501107 0.03377375401633538 0.4027874785851515
Ni 6.869831315332012 0.7667607991317462 0.23758719246570792 0.16938401915519863 -0.22366206377247286 0.5501068046308268
Ni 1.8414554736358941 6.5115747955347825 9.114944301846418 0.13555935729626975 0.3385831759931008 -0.13605558020639794
Ni 0.4586040735518553 5.005414150276657 1.2979644178093284 -1.2814226460762383 -1.556032918761804 0.3240178765844162
Ni 6.345709280778254 1.937244973753935 6.958632160764977 -0.00015812284441908252 0.5705519598590562 0.2587805047421608
Ni 3.5574832717852094 4.474750965907925 0.4301703719768335 -0.8519352896023973 -0.10758626912211149 -0.07454707927895549
Ni 5.988923391904944 5.430534754596329 4.735436086154757 -1.1046317929340075 1.4576406574341347 -0.38813707566182826
Ni 5.2287425383732815 2.8078855475403945 9.429078285015853 -0.18344692500616794 0.06046591859554103 -0.6037911815281601
P 0.4143579317482493 5.536591604354979 12.396706831085961 -1.4987775366837608 0.3745081720244841 -1.299167628764485
P 3.903866476883809 6.293623683699846 12.409503124579173 0.1374079804692343 0.22830161942701327 0.5295636903721525
P 2.37885829788295 8.424811493898861 1.5541771960378397 0.38258529260566365 0.2907326321687251 -0.6111437652384895
P 6.219812446960119 7.701775349040644 5.820756294641105 -0.1735047261917915 0.2328840965913731 -0.6270457811807265
P 4.755551249620253 1.0878338144704192 12.729354523800676 0.45808290872334656 0.17880299847625336 0.19696887075200273
P 3.9490770999497884 6.041884149717217 8.211233479050572 0.1578726760814894 1.8531146330770085 -0.21889086763607465
P 4.497884080563916 1.1743484152646073 3.718663518819095 1.351189273247415 -0.6739630145575554 -0.4453574907368782
P 0.3741330181826212 5.657472052935699 3.616126258774683 0.45965231009299545 -0.5631788073234365 -0.1654628297239215
Ni 1.6017336107616027 1.030993478147196 2.7605871698989874 -0.942184610107958 0.6199253680858613 -0.6628609911071228
Ni 2.0061029811854967 6.248250659672944 4.959683844135721 -0.45944070830282163 1.051115823293738 -0.592287808874251
Ni 5.9903128223484 5.539045663320044 9.099269902434617 -0.5348161970203434 -0.19975414680662373 0.8044778674513822
Ni 8.557060009744227 2.2176482773395616 10.167674246385662 0.24740260192252228 0.8122289721517109 0.36170844915665445
Ni 2.311597233233803 4.9882447597968 7.055504333955842 -0.14374369287927505 0.5930987348113206 -0.3896424565627612
Ni 0.44181000973724466 8.908838535655729 9.09018537312607 -0.2008787473293702 0.21479792851362361 -0.007523047849922528
Ni 1.4999352750893926 1.1458741134493546 11.387989351412104 -0.5347226088652727 0.33321908346771 0.09622944934839556
Ni 4.043838060648647 6.818756213121572 1.6681366570005376 -0.1207963400544823 0.7453250112403098 -0.3926948702358398
Ni 5.653366917534577 7.621016960083634 7.981201540178048 -0.1349885723944643 0.9568671518207972 0.38164144063515565
Ni 5.145791736443804 2.7641906667763676 4.983716479669717 0.612792613695822 0.6250914856678331 -0.1634308868955572
Ni 0.6876462687903054 7.344033098953007 6.921526247876641 -0.4133014907425979 -0.31668097660337075 0.29989707227681256
Ni 4.90116175563938 4.565893994088433 6.977132336896846 0.7485404328538141 -0.5089087331259623 -0.3262197693317414
Ni 8.146158511780966 6.831567844483314 9.184799270732537 0.389916021939122 0.5773854378411217 0.3288533502998466
Ni 4.657434002395642 0.5533054872317089 10.652153304150435 -0.1913456110279543 -0.48828437200739133 -1.5789417050391776
Ni 7.978217873634859 6.982609760417771 4.768924066524743 0.0657698473069577 -0.087074779432321 0.12510268073932002
Ni 7.376432090657244 6.050374111063273 7.032527304667849 -0.24860716375358477 -0.4594615342384281 -0.6315549819049898
Ni 2.3991223288959596 5.15945146171259 2.571015625985432 0.049468539043772866 0.0479256200366852 0.7014856454578564
Ni 2.301212594010306 5.354612305364596 11.176894266810823 1.2804571968391756 0.40666958724837704 0.455242611061074
Ni 0.9351859334779414 3.292950150992051 3.6686557518129477 0.41989945567508974 0.04994779267303656 0.03302582010671732
Ni 3.5191205559048373 2.836450072111716 2.6851997416107407 0.40653126189829986 -0.18109205162074618 -0.048233123974775
Ni 1.1345511575627443 3.198189190293192 8.230882190867193 -0.7636001554004139 0.34021274117672373 -0.029885731815838854
Ni 3.5731008308606858 2.583727110087938 7.045851401284062 -0.05447370556784811 0.25343209594605387 0.13817442632161364
Ni 4.171548371863762 6.847555316858672 5.997650639099461 0.06738758541603879 0.114221515050442 -0.07248171210949451
Ni 0.7014855373436691 7.513146632928006 11.33882697163032 0.7712733556749555 -0.6694229605953568 -0.35037656908360304
P 0.30310244678492754 5.342396144192907 7.9914752054115805 -0.25778548781874316 0.430161242612414 -0.09040024426112818
P 8.50243915322029 1.6803807872266083 8.019351330354098 -0.5409302803378813 -1.1616645174782831 -0.31714968870967314
P 1.8887412200914515 3.1642203226333616 10.308308065180045 -0.48885695668140977 0.5577614929626071 1.1516495564444422
P 3.965506663829882 6.079082992044304 3.8939338536682158 0.20755615934954577 -0.2571529964410668 -0.6435270666652013
P 6.887199195875218 3.981503158480846 10.356533030526275 0.38807331230342845 0.34308903428325427 0.7641729971847485
P 6.483010270963462 7.820382184168436 10.194308906204677 -1.1132799555273085 -0.26207845876714214 -0.29362332345295883
P 2.2374160831941934 8.38032265288143 5.83847694616054 0.9241182395245503 0.22066132927293614 -0.6027298301431813
P 7.009072094772693 4.139411026152124 1.6187496225561422 0.5248372314307607 -0.4217272529124479 0.05961205523567798
Ni 5.500953615707878 3.0824875279108093 0.29097380168662457 -0.7154454500720583 -0.38326663494340446 0.38817127133387347
Ni 1.5471217765132743 1.042993104704321 7.102474300765159 -0.703448168500866 0.021766445142814127 -0.6196669722181521
Ni 6.715225600532845 0.8218995342755153 9.238860746168847 0.04946725349219223 -0.6575022978983709 -0.5067348654030951
Ni 2.7809089434758802 1.5452270986358339 9.298731664868415 0.6506089132126472 -0.872805191072871 -1.0721615882204438
Ni 6.184048146454523 2.234709400512135 2.4721765967122717 -0.04111091110769694 -0.22431743796828463 1.0307388022992827
Ni 4.230878856254478 7.061599783355837 10.297915305908502 0.053432151677211194 -0.22863174907292239 -0.4249928110375971
Ni 8.35946315167837 7.096236299410576 0.34973768716923026 -0.9045917394558487 0.2893972011867532 -0.32856050164977607
Ni 7.488299285906711 3.768442120024828 8.228743009320805 0.9349757510643445 -0.16916701804838608 -0.32424130544913193
Ni 3.127815440559678 8.476644467260277 12.187870022069076 -0.38912129395196854 -0.6066139956889359 0.5837010956465044
Ni 9.249727174909749 4.743019308802324 10.233515204854289 -1.116395618338155 -0.34677059689989953 -0.23530916109309796
Ni 8.453890288179773 2.2227007516794033 5.757583223069427 0.6726468668492931 0.28778126284988503 0.048856616491386826
Ni 3.6847785583224084 2.732143543820798 11.568686585038751 -0.40185288258602403 -0.312930508422003 -0.037634779633638406
Ni 1.461933450233295 3.5989586727499483 12.506334697529805 -1.1467670315411604 -1.2602930631864748 0.48663809465321994
Ni 3.212922566359196 8.203729652428345 7.8710585017970525 -0.22938945317455334 0.5708813181740169 0.7583941857194423
Ni 5.698487317844489 7.66206831409485 3.494112612377741 -0.1454655606663882 -0.36334469920849677 0.5627327209249535
Ni 3.304227995500627 8.319665893976506 3.599514444927331 -0.7234397811314444 -0.2788140263542682 0.9946492556655774
Ni 3.4132261071071124 4.258306574099334 9.110705636766314 -0.21466140293575933 -0.8379670003477633 0.7963644943156284
Ni 7.188416889285873 6.080707001653539 11.469873720364852 0.49732385650184024 -0.11575877763057484 -0.34827983445557437
Ni 0.6326257254569863 0.0707734365428981 0.2808508084557268 -0.05050880738282913 0.4426750588087086 0.11876722543959546
Ni 4.914758324978919 0.3173486199681607 1.7131650300992582 -0.4429686787897274 -0.5433268055945158 -0.392211245731202
Ni 5.791669380312147 5.551198668562486 0.47217177160945256 0.8296978183604355 1.5314883966532205 -1.3572113110717787
Ni 7.945241456291783 8.932531031399344 11.324935373878438 -0.1150697219833502 0.5345215485980601 0.1467616537699924
Ni 0.11687004707347123 4.65669417579588 5.767883052902219 -0.39479700418050717 0.4819373467434411 -0.08320809738806315
Ni 7.517107411919418 -0.07349635932104867 2.410826024813179 0.2184982601833463 0.23303887700168255 0.3303548745460375
P 8.442468087261489 1.4526495286338352 3.624907639622841 0.5938438405074611 1.0436226002404867 0.023868321977165347
P 1.8011800353268677 3.1113948989551914 1.4387786821158473 -0.4426750588087086 0.3818252745111876 0.7294160533195373
P 4.698295888619115 1.0449780053378304 8.120092255325185 0.20020486119079717 -0.48709009458897407 0.8357293692664961
P 8.517325907971612 1.8126563698987945 12.43424942211367 0.46783715989663294 -0.4377282563263945 0.09014056284183831
P 6.356878857979548 7.559737664161835 1.2563410515246367 -0.6475462151269235 -0.09644696467584035 -0.41358508342128775
P 1.67347874638736 3.098438911183739 5.9640832627041345 -0.2516251246443022 -0.2749964523803909 -0.03942838119895145
P 6.823077883137259 4.030611404608989 5.96548351987832 1.013271755862771 -1.5056853195471875 1.0461952460636692
P 2.3838205494667233 8.513635797248407 10.032322969959099 -0.02005049089297192 -0.06165633935921639 0.7318161781205977
