# total energy = -340857.90237379895 ev
CRYSTAL
PRIMVEC
9.38910048045280 0.00000000000000 0.00000000000000
0.00000000000000 9.38910048045280 0.00000000000000
0.00000000000000 0.00000000000000 13.74189761796585
PRIMCOORD
 96 1
Ni 1.0039295377448638 0.19498719927203817 6.7873701988615425 1.7712530224145107 -0.3916566587793126 0.059707443162961685
Ni 0.20498189642358747 5.736749604785125 13.217066381650367 -0.16471926668967762 0.4997090689045652 0.38311108320214665
Ni 4.666936751011683 5.85252659921984 0.21273165971986624 1.3593018750522203 -0.310405170896988 1.1088895397690965
Ni 2.531611251351516 4.526372532077119 5.119626583180455 -0.12830678949891453 -0.13642710461320376 0.725014581817732
Ni 2.556567479654774 9.411915702797135 2.0735010916434393 -1.4259171010786087 0.5799861086887624 -0.5927827462327985
Ni 3.4350023042689584 2.6130804736943936 0.41303215078905026 0.9658958376819688 1.6184508188773934 1.5942521101440028
Ni 7.251408636429166 0.36463227822303673 10.184408615424937 -0.3614593092603259 -1.5800930450348014 -0.20904020009424
Ni 2.4400675245054795 7.582139690598564 7.97201832032071 -0.13380226539584697 -0.7457628701086768 -1.6470782528060988
Ni 1.3429699455818245 7.30630670523622 1.288872767020921 0.21043373800765697 -0.37737983714532425 -0.7351982072189532
Ni 6.150423970027125 5.467301207551531 5.213016207123715 0.29343691847376563 -0.02591080632849086 1.5275114142833435
Ni 6.299720052137775 0.8723891830022706 12.668875316905753 -0.3855135219960522 -0.5289121728310826 -0.49110050129994776
Ni 1.5710405782810106 6.212636147881673 4.05483502018827 -1.1280979943767475 1.029771810400323 -0.7796870336599476
Ni 5.354331554073426 5.295170833780414 8.133017915817366 2.096913833918989 0.5487670027734807 0.4598148038127887
Ni 4.509218646031199 3.2048754586283072 11.886644968471591 -1.0234661798972695 1.107906349920221 1.3442310967620268
Ni 6.5390106595632185 2.4524799149557834 2.97826764773862 -0.29211819966234204 0.05944930440556858 0.2358040984516455
Ni 2.6246102887268994 2.2379014192286744 2.792023578562892 -0.6653667882481121 -0.2128348912499818 -0.6008750363226296
Ni 1.0423121793188737 1.9369901472606115 8.607718615560001 1.1609746905001102 0.7366531944979249 -0.825889757468255
Ni 6.76870560659516 2.9926160706479648 5.886822165481431 0.23885599790409182 1.1048356814146971 -0.47321102261403664
Ni 6.641577190031535 2.714163526332796 11.068053451734185 -0.818287776751281 -0.10161411069907661 0.6168220465701894
Ni 8.372270027932034 2.261646453607508 9.970144654554169 2.6995253933167507 -0.2053244418055496 -2.048517702003788
Ni 7.138457761151441 5.857925331828708 12.596729471050887 -1.6732762513577053 -2.3473984172009446 0.4332758769819957
Ni 3.4729624363344485 8.57202313446018 -0.2628497376205285 0.44109331614388547 0.03462118961829521 1.2413399191227397
Ni 1.5172785905968666 0.24617657350430375 11.587098871671056 -1.4798387907977288 1.9111187203956186 0.25702778371711216
Ni 4.332853788074693 0.04534935391449794 3.715534534276065 0.3315568652739387 -0.3704897948937103 -0.8455597250933566
P 2.6559323269585278 5.649646922328645 13.557686975049192 -1.2901625970523976 0.31178713884617915 0.7058747756644875
P 4.754255382772517 7.264684824096888 7.285102361368621 -0.9523687497298114 -2.9281345166818538 -0.6183181714997417
P 4.319089367197124 5.709755941740781 4.139265564730865 -0.9295885186105023 -1.298887121409589 -1.1042001047132273
P 1.102937599241423 2.8823786453249585 5.850379312006539 -0.12581359076341558 -0.25171819857874067 0.020932122166976853
P 5.55284529937658 8.67116264335939 11.02085068944231 -0.9208737644453238 0.07116684995281292 0.6247395016450531
P 4.791492554123429 0.1057729081829765 1.3780786079198124 -0.47608680149993493 -0.25380027791875 0.6664646492979812
P 7.984537746513171 9.1511334450383 7.902758683864045 1.997216994847283 -1.532251242961174 0.31316653569220904
P 0.2995198073200033 5.710685462659526 2.4381286753163813 -0.7511282481856483 -0.07210710237889517 -1.1126824311526258
Ni 4.191463328323465 9.238395742197998 6.42828124539029 -0.8104662238243333 0.29065858439768005 -0.2182774024217918
Ni 5.8184347764323565 7.116092924500441 3.1896040871703506 -0.8828836583547957 2.142720607840458 -0.5308515559456406
Ni 6.251854419372534 6.829284081016762 10.289877316761778 -0.7920812935592423 -0.09959322361430589 0.8988455810006908
Ni 8.253225626631428 1.7674323869413735 1.2741647415743247 2.417331908967288 2.663411935423645 0.1958643248339143
Ni 9.09503357140701 4.214391510985826 11.06826001193835 0.7076622065822135 -0.262611962673109 2.549265753695829
Ni 0.6022384810745136 9.268356360902173 9.157559345207881 -0.8276905581224197 -1.2821291852249597 1.686849619166766
Ni 3.412487242014928 4.560605191367441 2.2025373733655362 1.2537830299820987 1.0388321208303786 -0.037731453112502755
Ni 8.672054607877376 8.294462554662998 5.570965323831982 0.24222594281758927 0.8534496693643946 0.4765310881262051
Ni 7.37770142307594 4.662289146417961 9.531036155809275 0.5200688635078398 -0.5034225132004104 -2.0077163517167103
Ni 0.663530527110506 3.6614861790361464 3.520537006993819 -0.7588261310505383 -0.16018795447822734 1.571920536526338
Ni 8.101065868963033 1.1762570826199559 4.464591313921261 3.7492201678932466 0.32045792714729976 -2.922057971470471
Ni 1.6864983433092884 3.9645569440477573 12.636196553696765 0.16519903453957355 -2.8092040261915168 0.15451121580842422
Ni 6.264069638718861 0.8630536006840127 7.839587878880167 0.6276029392357773 2.6107161476918264 -1.673211716668357
Ni 3.0080329731588566 8.139260728533255 11.36072860501616 1.906757358103129 -1.4031065309419966 -1.6077177487306054
Ni 9.679880622200814 8.51960378810311 3.115700601760041 -0.08769570084577155 0.6686128059892357 0.9771963502964526
Ni 2.5745663847177327 1.2119074960388685 5.010006960649908 -0.10290223338288083 0.352112063717471 0.30019840556731525
Ni 0.8524983742511602 5.082319932488144 6.6251058915693815 1.538689285277034 -1.0080660432921154 1.1184854109876479
Ni 1.0727328639323255 1.6449515749714718 0.1994845782627306 0.7404771962297053 0.5650456853288462 0.08937591676167188
Ni 7.8812482553302745 7.861850374339104 12.369975190198245 -0.8582092955365671 3.1329714773280237 1.038115040158696
Ni 4.989799739222415 8.739449569036438 8.637758102705765 -1.0681576092673732 0.08789316156855831 3.673745691704015
Ni 0.29025464325316547 4.082653046229239 8.835930084762028 0.22188028928170175 1.1355639637364896 -1.0086064891766178
Ni 4.558980877034686 2.5107298925304304 8.586019466112424 2.111006821676945 0.026418599202844825 0.5513643311870118
Ni 6.281608477872543 7.835664173911042 5.960231784221781 0.566660852334766 0.11561788117733637 -0.3608448156047785
Ni 3.7398194419157855 7.487225276784556 1.9527506908384324 0.7800230768431277 -1.23558656157873 0.3682279954427271
P 7.891998775047065 3.394422613250644 7.67974126488676 0.13733778935293123 0.512465340128969 0.7695450601299392
P 4.7892391700779875 1.9008327224314743 6.0684768424846105 -2.2066423461950837 1.7751754973973686 1.1978872472557434
P 1.194096372979696 2.468047043069704 10.701681373246064 -0.5762855199087237 -0.38887369671753674 0.6003307337833854
P 1.7610947443135712 5.643750567409741 9.28972876966316 -1.454613697682353 1.4734102615635658 -1.3833823130401917
P 7.108196691241209 8.637192878874368 3.991100869193032 0.6717744915466689 0.46103504937313494 -0.4610980414005865
P 0.5311686261013459 1.4735066055141774 2.743322315880801 0.12537341790220347 -0.5257929104758106 -0.23562566389225226
P 9.7084234867764 9.015310721699349 0.25833358042945737 -0.866494932584127 -0.275550525111648 0.14566096450664592
P 2.7913513189893355 0.1671691732310704 8.441936212426896 -0.2265771805367388 2.099843348860958 0.26724354790784943
Ni 2.9236343515569057 2.600057791731783 7.179137915541783 -2.028278492138778 -0.742147899063909 -1.4419456152963812
Ni 4.057067748213295 3.295977897765445 4.126155564136494 2.6309373598347077 -1.1163076866100388 -0.1459576698114583
Ni 2.0806997147586044 5.72577374666379 11.304071018833625 -0.4093319645718886 1.5852522206382376 0.5604418680082477
Ni 8.629183976412863 1.5928984035217872 6.619307183292447 -0.11622209042023855 0.5945079564540212 1.1456617142921237
Ni 3.2491732333215992 4.815209421201693 8.174340284660657 -1.1036280342598412 -0.6600942269952632 -2.896321228825999
Ni 6.141748441452179 0.8719469563833528 5.034303135209854 -1.6823581590543155 -1.5281968703861424 0.2675849904076682
Ni 3.301864863584159 7.207232920038336 5.239166728971056 1.6956782732019893 0.35716865230477196 1.1776632068993846
Ni 2.991179538318996 3.5100024365813827 9.916839916049247 -1.3343130663173666 -0.45876553661266795 1.9104615464275936
Ni 8.027783941985257 6.602302583939539 3.966584989688654 1.031876515448152 1.4994455092850627 -1.246899672598704
Ni 7.116872219816156 6.939972183148857 8.27458676847219 0.7415087228180133 0.8283983828227218 -1.4535873133003676
Ni 0.09552282750627725 7.378762391397334 7.835821910794224 -0.38749147165802944 -0.6412367279691279 0.3991516816047771
Ni 8.527866196269727 6.493539247346258 10.601172933539248 -0.11418269139270656 -1.1389673329910837 -2.8442399347497274
Ni 7.023910738841529 9.538950228358866 1.0768462287252742 -2.1665130822743657 -3.2531319835707198 0.06078807782165015
Ni 6.157099620261744 4.965923257440932 2.915878954800513 -0.5313986866983623 -0.82703107016155 0.33553256209223503
Ni 1.4176790157883792 3.8593708546266146 1.3737295767121116 -1.5475436503438702 0.5752375382601835 -1.3056113275072998
Ni 8.039032084012083 7.007949268519657 1.2146453576540792 1.134363515670485 -0.17178208707372994 0.5558758459041201
Ni 4.4470909700783565 5.914691831573441 11.635236788341789 -0.5960588458809088 0.2601161928344488 1.2206142565396139
Ni 4.717281106226908 1.2628809209667795 10.783651034629031 -0.9352583153017698 -1.232702812273032 -0.6687051085927257
Ni 8.724182892128574 0.8726614669077614 12.333187756746403 -0.8204773282034321 0.5358515802633933 -0.05144134649942753
Ni 4.5830639190203355 4.037529030719285 6.310966316344562 0.4640013310903105 0.2907657993995057 0.26895101751725936
Ni 8.383574504559995 6.064438590493177 6.286903930379329 -2.3007426650156186 -0.46983876370769406 -0.6153768294832305
Ni 6.751044709139016 3.423125092529447 13.32970929444188 -1.333522452095271 -0.42392528900503124 -0.11235592259661295
Ni 3.7727751835803587 6.651830087438292 9.554947377261458 0.7467339757726946 0.0049228912229141025 0.47929322425237464
Ni 7.814266414579543 4.201904007734008 1.5576573548711297 1.685746615910574 0.4970929714379569 0.14453147888789303
P 3.1390203099002973 1.2017109332332485 12.768970636204237 -0.05884226694918898 -1.0645662923716892 -1.8465580629054132
P 5.787178461902054 4.629511797656986 10.757459200740856 -0.8871707157659238 -0.02444373486466113 0.7459492750878701
P 1.4324011248852597 8.11370359781788 5.2478657302964775 -0.9565617047652366 0.7650667126436114 -0.8353380473653484
P 8.88469894896548 3.5630884090518946 13.47155324773225 1.2414180806588426 -0.43191293519619806 -0.38585599293713546
P 6.154048162700209 7.475676683551671 0.4208363708664272 -0.15143052000057147 -0.059253900565310845 -0.21730449698556126
P 0.4316723313949411 7.407023582967239 11.746477908475036 3.6538476672285074 1.8096992422058509 1.0123762406316952
P 8.034346923017603 4.617418636613119 4.23401566929156 -0.5522624175212489 -3.1573604476953494 0.47176220598265206
P 5.395127194396096 3.5979689162552817 1.4751243474768003 -0.4163387349070249 -0.517261990186664 -1.1070216333224223
