# total energy = -381167.23816490086 ev
CRYSTAL
PRIMVEC
9.20584234277340 0.00000000000000 0.00000000000000

0.00000000000000 9.20584234277340 0.00000000000000

0.00000000000000 0.00000000000000 13.47368080945069

PRIMCOORD
 96 1
Ni 4.449358551549826 2.9468361871638753 5.287341531071616 -0.4164076404717474 0.5341384542270285 -0.5645044681133955
Ni 4.761381374460223 4.625355846894164 3.033882030145797 -1.135091137865129 0.27445266406177893 1.2188101134513396
Ni 7.620485883382047 4.6906252696366755 8.261521831969214 0.9374188132881984 -0.9104245440875417 -1.6611103054191327
Ni 2.6433011509627318 4.611749611800591 4.5840961817616295 0.3774029770737758 -2.205589993671169 -0.6105742658882647
Ni 4.987789862884672 6.414115469578131 9.504523213337972 0.05117472310160218 -0.6501515139602544 -1.2667509029966766
Ni 1.2744476184838718 1.3579630208985505 1.9073069378355079 0.28049578493206534 -1.1690834356501738 -0.032747626744666185
Ni 3.1150453398227165 1.8982262948745467 3.4266133941176715 1.947690605982381 0.015949067130088663 1.8553849171684238
Ni 6.9034704349834515 0.5961547050474514 10.78763537070552 -1.5781919713573465 0.459967270230253 0.858664895016747
Ni 4.135402501731683 1.3261292178176465 9.572673144173029 -0.7689606483813789 -0.13838474256020683 -1.974115118722497
Ni 8.231956348460065 7.563059838379538 2.875876633222894 -0.11043222321133885 1.2137877205360839 1.5273473779016535
Ni 6.5765893824106545 4.746339027949467 5.820374536412637 -0.4154396201315232 0.3605771637656887 0.2567786438207836
Ni 8.705744234336812 4.784948331049903 11.544842606516179 -1.1644940165072784 -1.1444661513221257 0.6826268608801405
Ni 5.160491466643421 4.374947727286395 8.229185389892294 1.9720656923926358 -1.699821863056718 0.36013930489732165
Ni 6.549349294696255 4.719826201786076 10.229811031733242 0.5625522294830312 -0.5644903270460085 1.3437700979652083
Ni 8.746277558502578 6.6818950138283695 12.621362771847926 0.8496320953905174 1.3667665588603815 0.4256510134468863
Ni 2.595670122292808 6.008119407266386 1.3837872500490858 0.17612725141630312 1.6574727086665455 1.6872201151323072
Ni 2.1662636027124855 7.446707196060411 12.748824104212666 0.46967344177442344 -0.7715461497203681 1.0555656315349757
Ni 3.1805449086256754 7.6851937497370715 8.211399702341021 -0.40835803069439347 0.7207653196230748 -0.4274271315107026
Ni 3.9344481675925715 1.7369215240290887 1.3650183785275858 -0.8810201227834956 -1.600063317509141 1.0277915467455008
Ni 4.544887578319791 8.153633041169051 10.74558400312505 -0.7416904998115161 3.5991127375794725 0.1849422786047718
Ni 2.113854741827701 3.1105252711955558 10.288367554184664 -0.5597378999626876 -0.1667121287499903 -1.227950642300027
Ni 0.2839311947723461 6.2759541865711315 1.4769577399915987 -1.0417210123423994 0.45430750084131444 -1.8790020423667317
Ni 7.663375903206782 5.501853309339485 2.7393208491335668 -2.1920860456474633 -1.801755304768426 -0.07385159587382766
Ni 0.18236221479203413 7.9507638918070285 8.655007154435108 1.468382212221355 0.6768421358775634 -1.3653264839797454
P 5.552899705546428 4.752562177423929 12.235261455585382 0.9791095081587653 -0.5380881829033959 0.36055453805786936
Ni 4.209445092298401 0.47547807854466284 12.783141643577904 -0.3746647522070064 0.6993624284672665 -0.08907535480211756
P 2.7350926057110514 0.7125506148259424 11.220827332688057 -0.3340937727631795 -0.6339445651830888 -1.4300509207413241
Ni 0.8697458976160752 9.275806820219369 12.93763040869719 -0.2157302105199059 1.0701496999967377 0.2837860256475629
P 6.734055316967872 2.3205074924234577 9.014903119671018 -0.8839149278327874 0.7797142873534572 0.8007132582026274
P 0.2310537565084933 0.5837479912209232 3.8014375534183564 0.10923074670406994 0.5870872385099178 -0.7452031409504649
P 3.287535209205855 2.971111993619729 7.770433406436612 -0.8730160215320965 0.23188933677827162 0.42431146869985636
Ni 7.706726215152408 8.233364842349996 6.720146209658752 -0.3283026200026991 -0.40738769636132416 0.014858662279387314
Ni 6.193672367040444 3.4754540704813 1.8100950830715616 0.3861706959640769 0.39633272409874326 0.43414053897513616
Ni 4.4343806459359945 7.79624382682352 0.6514256623399435 -0.49124448307697977 1.0611953190169272 -0.3797074568372364
Ni 7.450187004494357 4.798987240737115 0.3559190413114006 0.11270739239876074 0.21350106407907102 -0.5862732272490548
Ni 7.025742433977251 7.127586668645857 0.7224846393790376 0.6670572885766576 0.6290486705433683 -0.6058457500643437
Ni 5.057045415394111 2.077160253950176 11.329169050935176 1.0856313405721045 -0.021332185818872938 1.0752723659352836
Ni 7.039201375592139 2.8931569200254286 12.310012896018275 0.7088850232457211 0.16705202858791232 -0.21580502962189932
Ni 2.230419118522439 2.0989965121653014 6.103806774525936 0.20518688778642083 -0.6837784579860805 0.13750645372031156
Ni 3.0609149864057956 4.646639754564219 13.327774010365408 1.4932218969728541 -0.32299971973254693 -2.2086097543340992
Ni 2.6301920313597216 2.5579814034341553 12.519798394788824 -0.8708526953321906 -1.0984140941590697 0.517827889992463
Ni 8.949247972131197 6.218233554611251 6.833473812159377 -1.2938454452206234 -0.32273643876883124 -1.3748485645375679
Ni 0.9873542168409964 4.197164498512997 6.4481936570405045 0.13397812885207894 -0.1378998325039883 -0.10730010534026038
Ni 5.240232473666784 7.127034318100787 7.036077833259765 1.2736149771063614 -1.71433419774028 -0.8496056130279561
Ni 0.5751607814135586 2.480099976579197 8.27065770998468 1.0704806009735952 0.41741859823476496 -0.8236611252480525
Ni 7.70705762547945 2.2421933909748613 7.053417958038015 -0.8043104886355825 1.9668124144134966 -0.4278127969848955
Ni 5.445034849936554 8.874864765395019 8.38781126059416 0.5321808162800254 1.0394432720518163 1.2669370508655537
Ni 2.424745246120703 8.942951175917392 4.56019413250794 0.12770129470443167 0.7775759008542157 -0.8626673313079207
Ni 5.386623779795335 7.944835329289937 4.834006265294592 0.1296152238976929 -1.6519674625776004 -1.0761578538640304
Ni 6.330121363357724 6.963382057438778 11.533255212664839 1.878658542984384 -0.17604549033577424 0.8221814553787324
Ni 8.561350596012932 2.9890541804921074 10.176132685179038 -1.5032821094223336 0.03624818369875693 -1.150221051528032
Ni 5.214897995332878 2.1813151550656604 7.3449080700196525 0.14897820180533697 -0.3758052935693527 1.0771616125381964
Ni 3.327672682147654 6.738492533013273 3.6080900068691095 1.6230731481407532 0.5061622807290767 -1.2375218309282299
Ni 4.210144736322157 9.010871881276245 2.9044672180199917 -0.9201772525989314 -0.8263826379442735 -0.10222706169272718
Ni 8.647747427104397 2.386200383917191 0.7830867000157031 0.6360873225577045 1.294057047010797 -1.1390935741563029
Ni 6.740388936551349 2.501466736831013 4.805091634844387 -0.8027534285611078 1.0797111184329276 3.051979670864989
P 5.6074167043448995 1.2667883575922259 3.568316164702815 -1.1102882198888362 0.542998989941452 -0.49390531773859453
Ni 6.157686729029092 0.5918436090431751 6.166310762206129 0.4219987614062797 0.10636808044429422 -0.1659438831253981
P 0.18140388659633655 4.159549426393688 2.3175809551188253 0.027831163279655294 -0.7697695174359195 0.03165259390827452
Ni 2.142926792183252 7.854387927534622 10.333019572248174 -0.6473446406390787 -0.11299381329092799 0.7612036301437793
P 2.8379126596759487 5.35159554939544 9.507864934135648 2.026101796202433 -0.3239032053834228 2.1681909841974205
P 7.192478651849237 7.609733459438006 8.775300817893315 0.07455633525033611 -0.3818805532291552 0.6751544637624953
P 1.7687000920554852 8.804900363019408 6.60539078099912 0.3441015347081687 -0.215972408437699 1.3593291287457299
Ni 6.401696788156459 8.93442656583847 2.0619715345449756 -1.7685433367928318 -1.0320217827767646 1.4765068982110185
Ni 8.576070738039066 4.225002965984556 4.424972274984959 0.24909001692727423 0.33347053735688376 1.5645080461123508
Ni 2.314100226100639 6.550923493749707 5.561153663858268 -1.1267149979862918 1.6565152298492825 3.2162022004239064
Ni 0.3547931667836984 7.927721668235165 4.946511786067303 -1.211464728829862 -0.608947528918119 0.7671369649090788
Ni 7.232965946802914 0.016114827152435496 4.261725071389335 2.2478051935866383 0.40998296789232613 -0.09339866476781979
Ni 7.828648392134331 2.3790842677281976 3.0451601076918977 2.365222075645927 -1.1534465004438652 -2.376595864700507
Ni 6.526178189330542 1.454256132589196 0.8378780329182255 -0.14171792069849787 1.1499927375673098 -1.3918731241200224
Ni 2.294169577266007 3.5637196875835855 1.7467552048998294 -0.1198799988878 0.10186762147077941 0.918888872804811
Ni 1.4314900842898683 7.972314768907201 2.4687418082040615 0.9666003199481611 2.8356851032011807 -0.5696705856953673
Ni 4.310985534167217 3.979685677233856 10.437360431380498 -0.6649178736361516 1.3312372556055203 0.3394285547125316
Ni 8.195151390473526 0.7301972941567071 8.828413925723064 0.092187418068538 -0.5618037813527809 -0.29639214444734757
Ni 2.005400712303084 0.5274082356237195 8.804538573412385 -0.48732637896949615 0.42423819225975967 -1.2281213635499364
Ni 8.419773945468913 9.189023343746356 1.2933334042040783 2.0457295977356895 0.5067461782570047 -0.9746584143659471
Ni 1.38426411268633 5.87510419017096 8.292188334231534 -0.9055638735611308 0.1161146183080968 -0.7260034280935626
Ni 9.204525982378005 0.8891812721286271 6.092946642225606 0.862653704461166 -0.2577505208157496 -0.4807872922993978
Ni 0.7108300428780474 4.591496758481334 0.10390726395444426 0.43839134383169015 -1.5265495645907066 -0.9036355461901664
Ni 3.600948114321346 5.520393875969023 7.373458149110111 -1.7353568227385336 -0.4131063440126563 -1.4529869607122075
Ni 8.579688634109278 8.32650035009132 10.941477885687073 0.5440500569137856 -1.0569267735485603 -0.11974373042025183
Ni 1.6834908146359235 5.481471574226379 11.366101049547083 0.5439220159763536 0.33395647585436683 -0.18140469776515855
Ni 0.5976580191142852 1.103513536469349 10.700406331459481 0.7172717046475195 -0.3669072197487746 0.3437464653615951
Ni 4.061746556546515 9.058355616467482 6.301532619729111 -1.8883893971189025 0.8433840575982765 1.007901235579477
Ni 4.8787650711301485 2.9791210765232536 -0.005176445191553544 0.5360166450863477 2.6478027681314784 -1.8625824633581276
Ni 4.105262573655662 6.27429713493592 11.879637001231353 -1.306237391127073 -0.6310980968732293 0.07698268530364161
Ni 1.0950809848146041 6.104265225478345 3.592460327612094 -1.2075191139185528 -2.2556246896310572 0.8347832033031429
Ni 8.749766572778942 6.091211340929843 9.749083781841927 -0.9516838078476451 0.3698958700634533 0.3137200942028339
P 4.528059298379973 5.62769717519141 5.155771631235793 0.22775757399808516 -0.1309254580686842 0.35679635656701775
Ni 5.460758428786232 6.845814243920495 2.526625383574738 0.9550858915506585 0.7526639681038844 2.9666339583086327
P 6.234260926260717 8.976202678730644 13.06731495200584 0.8250554344924179 -1.4617325681153213 -1.3389762761209907
Ni 1.2260248873660136 2.77053509901975 3.9583253610717333 -2.1955074126241865 0.29739975977625555 0.31472848086269023
P 2.703829564860054 9.08798922321052 0.9597891628892469 -0.7739964110330735 -0.015124257235948147 -0.05216382648774887
P 0.27201331117820554 2.7732508225330137 12.124412986447885 0.27467866402965596 -0.0022479154939122575 1.0059664804506094
P 7.4785502049837325 6.647032488591996 4.933078620811185 0.46205963398290745 0.34811682651514886 0.18103085936550758
Ni 5.0812383692682035 5.753513423516081 0.7914428431783799 -0.29008111462765523 -4.383000182474014 -2.228524490980156
