# total energy = -381172.777669037 ev
CRYSTAL
PRIMVEC
9.17303553439251 0.00000000000000 0.00000000000000

0.00000000000000 9.17303553439251 0.00000000000000

0.00000000000000 0.00000000000000 13.42566472922106

PRIMCOORD
 96 1
Ni 8.593629930303875 8.829551231553491 11.185968302814732 0.8219094326642683 -0.3445445357828582 -0.10510309768894156
Ni 5.104170515841456 1.9102663067238248 -0.02169789828437505 0.8491816381166601 -1.1377941386185888 0.9846484356991236
Ni 4.3451018242746855 4.896814047287174 11.486018295577862 1.6882909795989829 0.5756699978119119 0.4027627959948031
Ni 8.070427501773436 3.2689121207906386 5.782286251396793 -1.4648508020293287 0.29164614512193 0.7307440281023415
Ni 2.6854061565700498 8.691588776917065 12.455862246047516 -0.6812276665397687 -0.6146294097942447 1.1296493980242674
Ni 5.461111675071015 8.022975388885522 6.515649345448425 0.5813904452354568 -1.60730765777638 1.7143781636043376
Ni 4.273432897541016 4.121343968161233 4.331334015221241 -0.7163502212745146 -0.6288560949165879 -0.607168068420193
Ni 5.163997053683128 3.3782455314828965 1.965893428891791 -0.3514934562968656 0.40875989411850244 1.0618478649992618
Ni 1.5947597490629304 1.3011767463608828 11.145047391236734 0.2661482579611416 0.8648090602412719 -2.096282628092893
Ni 8.394703481417869 5.7595839057199525 6.259554704422451 0.4485047781166082 -0.3848211239147179 0.26378952792097793
Ni 7.09649879857442 6.915624883646159 10.4386823754089 0.9767857451215952 0.5517682514936497 2.428845823144159
Ni 7.2143723053615245 3.017341620896758 3.3537581130884857 1.654178611296306 1.1885752258261981 -0.3421845201911139
Ni 8.230680432790614 5.215751320242883 3.977312633206493 0.24804589193347604 -0.00581454979924805 -0.3186650969129351
Ni 7.5377126353801 8.797876739807508 8.910076724108402 0.21802054921597935 -0.7322874613300614 1.098288881435115
Ni 7.20209878379879 3.5324717781452786 0.4246601768564185 -0.30722548761742574 -1.827692593459478 0.18416657678101186
Ni 6.351831772817437 7.662640206503336 2.616286416415068 0.12193071076924164 0.2555758817619341 -0.5737565828392828
Ni 4.857746088889797 6.308048874148577 4.736251984972041 -0.6438775080260847 2.128295947774696 -1.5404636035686374
Ni 3.179970368120773 7.502809235121349 7.943952439553313 1.2231889592453256 0.08642737565630922 0.7029794563945635
Ni 0.4492585889809556 3.0263220226978924 9.91426268506129 0.11317687583601155 -0.9687878145177831 -0.007422260606000121
Ni 5.32012211870387 9.04816301472472 8.610039573595039 -1.1793809609214398 -0.15897593644799718 0.3142759667063039
Ni 0.7814398906603404 7.562351408861047 0.22689778618140788 0.9423527602547062 -0.02042021552756483 0.020520231440538852
Ni 4.484568656740923 4.469002015416588 8.97876257968198 -0.4900417210181302 -0.13114271628581284 0.6569919339208556
Ni 9.011984562524848 6.986725082175876 2.52172893138294 -1.2214087274164511 -0.515938386279234 -0.29655540949808923
Ni 4.5988463335933565 0.8769688001569627 2.3451544182158557 -1.0311262675456887 0.5332539947395462 0.4054022905001792
P 5.701491071596782 1.9653412121518234 6.4087541276047295 1.0460312096819793 -0.3886268708140533 0.128601695031514
Ni 1.5039558701768947 8.418149760277624 2.5067190933163457 0.8343204047341114 -0.0767073201550679 0.6122539675835327
P 6.190900037169734 5.152925199777133 3.3125950333720295 -0.8902922921140409 -0.18699119071400055 0.22952212209767567
Ni 2.105633617817348 4.646949732005153 8.541206949452697 -0.6474708818042978 0.8137590356429921 0.07817362028794923
P 5.261882516011938 5.8566804869916655 7.507819547137468 0.9893795226262057 1.015871141158831 -0.6076005279719213
P 3.0883409160354502 2.5629919971868653 3.5156044003802873 0.830608245989847 0.5214696005101084 -3.4802742925823096
P 3.1875931606608576 7.404987984041373 3.7341207839818216 -0.35401519427745487 -0.44264934777709575 -3.148883263462274
Ni 5.077486155433386 8.69390038187507 4.395791101407361 0.30817036802919834 0.9068285992061672 -0.5972634077119714
Ni 4.3542014755379395 7.374570198165417 11.639595091323471 0.537026831518417 -1.1406508913410938 1.2072095530979339
Ni 6.082538968245526 4.719104829622847 5.649116707834008 1.6355198585445383 0.2583948392679679 -1.259801982482669
Ni 2.6208738514924397 0.7698470083352397 0.963821852632632 -0.8608156228111626 1.8348973387380334 0.1543474365370503
Ni 2.598097204227663 3.9497439921716317 1.486825226291687 0.5078612656980543 -0.7041112560061615 1.3108178114089037
Ni 6.741025325032481 1.2296821073026183 1.7533514433424315 0.4285535318056619 0.5962239107038635 0.20736409794339772
Ni 0.9436485128562738 2.845714125800513 0.49983595507994893 -0.752101410732195 -1.3068421145906075 -1.1506802505526375
Ni 0.2776072439922871 1.4200409409871328 5.734705716011212 -0.18127459994519746 0.014075504256459629 0.8064213643309982
Ni 6.238719071479554 3.8386677047253235 7.589581564884201 1.481572485659384 -1.57556378970588 1.1153800325894467
Ni 8.420516403448913 2.4415134874295394 12.012586310850727 1.0141629002184727 0.7714728732802714 -0.3668144029246521
Ni 7.183945346450021 5.612604357140202 1.4413654967247191 0.5922456427824058 -0.4647155835485158 1.1005578799749498
Ni 3.5438555152598927 5.275816357008795 6.407572640626194 -1.093028404367124 0.0502367846683651 0.13934427825999873
Ni 2.3461873020185195 2.471316679923804 5.367701736785897 1.228821989161387 -0.936332265092239 1.6963506166786657
Ni 3.4774794300372083 7.9047533067476055 1.5127904207128218 1.0141302472083245 -1.1249419652462689 -0.6827924399237273
Ni 3.081846406867725 7.938656846131664 5.608262759415506 -1.0122453714807857 -1.0850734111861056 1.7986434986123214
Ni 6.822692860513072 4.3382954318983415 9.82002809088044 0.4066209933986287 -0.2497528473222537 0.43253411371996475
Ni 3.1241799659200593 8.56017586966165 10.126710188344509 -0.7186405599705882 -0.21272433381404657 -1.576373430091369
Ni 8.724033803649048 0.15014791505790337 1.3774597099750125 1.5759419989809051 0.5158975057389696 0.07887450300971577
Ni 1.5958513402930987 4.485797843504307 11.925414036738001 -0.43954088405510106 0.3755844358077983 -0.18310882494045883
Ni 7.63093819565071 7.735042976080817 0.31906202623915764 -1.703543791992995 -1.652363155354122 -0.8613753519693745
Ni 3.9401856891309963 0.49839395389186075 6.687995089228051 -0.32270841374437326 2.1748447420685126 0.6780536396871613
Ni 7.73526312893396 1.6530819090747917 7.674700913641367 0.09488579083630755 0.8320951149480186 0.5584459206241416
Ni 5.8321701360083855 8.979466151508484 10.899975069724798 0.49538010251190817 -0.21899088354904866 0.16010053697074364
Ni 3.5638435597181886 5.701078284997138 2.47463181497072 0.8135731448844311 0.4351651235849086 0.5927652627313017
Ni 8.865839760179933 4.027008470589358 7.995614058454036 -0.4667858358139832 0.5383751180161954 -0.5200377531595883
P 1.2932971088254646 4.472762959991118 6.351520806912372 -0.46335032776987295 -0.4954086417569984 0.31079160770212927
Ni 8.494964759953517 8.11426543865558 7.074411963582825 0.3711940200495865 -0.5905798250442087 -0.8809486461156119
P 8.020608745714233 8.882140244348081 3.6005889055149036 -0.8220225612033649 -0.37399035184780105 -0.11684429738526973
Ni 9.136114079555442 5.231125327820719 10.190992069551669 -0.6245687803951436 0.1693703923084438 0.43237804775807476
P 8.799472847992796 2.232102258912587 1.9834001672344517 -1.6871064723725782 1.1098174509000047 0.29465305026905386
P 2.919401120354663 5.755281752048112 10.27484920861748 -1.2226163745713072 1.1418202290588464 -0.6339458507346695
P 0.8753020595979574 0.8347489867454194 12.895457959382593 -1.7853341830979252 -1.256864754231216 2.9031130549368522
Ni 3.893623360691203 2.9251250945363867 7.045104115008132 1.6587878279335433 1.0540345396024298 0.26130687070844033
Ni 0.6661027282021559 3.454895416518932 4.415567248744506 -0.8251004287977404 0.8553713118671397 -2.019375276111877
Ni 3.969741209665475 1.1113591217736785 11.485602757067554 0.8824216311167127 0.9589026941935873 -0.7666492266393828
Ni 7.324705576928475 0.4905583469270712 5.742559669047098 -1.4342101943253365 -0.24358734194149015 -1.655990467694064
Ni 0.39400389205622344 7.242304198604073 9.23066789537335 0.04623691948035263 1.1514392402058493 -1.3802504522794294
Ni 3.0830572475600126 2.866665338991311 12.987424061872513 0.47024679777939016 0.21513937101344238 -1.5920700148910194
Ni 1.4371486522834716 6.6254359040967366 6.879592282711496 -1.3582916886201508 -0.4463532789912442 -0.2288523497241607
Ni 0.6794916908874834 0.5614145427112205 8.98238684602685 -0.19053391375993636 0.23589562972418726 0.4787589490154594
Ni 1.452577698074593 9.099807204857903 6.8725978431064245 1.1653375954544962 -0.17942983342697486 0.5295081545438688
Ni 1.7964472816487738 2.4791137601392936 7.598604162648853 -2.0354783523213267 -1.1015670379657545 1.262347631722658
Ni 2.9718250185093944 0.4989782762562451 3.9164816479723537 -1.0634195803617557 -0.0035254966547552183 0.8399729750341984
Ni 7.378276104526661 6.349584379108266 8.385522190138241 -0.1640878037532658 -1.0033539825284268 -2.116401510329955
Ni 0.04841161240619674 4.912426553789248 0.26456227013999584 -0.21159227709213235 1.35774584341901 -0.0867950434083731
Ni 7.191980925589749 1.5131931169733628 10.117540822011094 0.6753110439450177 1.3968944885940136 0.3412337262420704
Ni 7.255476677650476 0.6648928048134229 12.774681186844662 -1.5562044113426616 0.3698758154587952 0.46303793873577676
Ni 5.14288989888802 2.1587088014959623 9.078380828425738 -0.7610884447221539 -0.08461449081728654 0.22860089583498694
Ni 5.031987899117118 6.71147897753355 9.478734295688035 -0.6086431103038228 0.7096075032340424 -0.09922504164160975
Ni 2.9580379460813 3.322666109099778 10.476059743354847 -0.01438352241518168 -1.9571054715383778 -0.9626644752288646
Ni 5.445820224813108 2.040349123824832 4.188015425128552 -0.8870071936048659 -0.8727362855081486 1.4957729455294821
Ni 6.792559438739093 5.226492944869164 12.166995100920508 0.11806505716624827 -0.5939785663131125 0.21529980785070663
Ni 7.029535639076686 7.274694187122771 5.054305894604513 1.5380357108534353 -0.1785615718894086 -0.8739202785139207
Ni 5.606311654754524 2.9724396118910863 11.38299042952105 0.5233555046789117 -0.43429171984101983 0.058042910976345195
Ni 1.6698226989492249 5.650929299658219 4.466624364602641 0.3513816133093497 0.9443584778308252 -0.4064471868249258
Ni 1.3523622847166843 7.060604710476525 11.342780428197992 1.219405066722861 -0.6914573146875769 -0.284458112013923
Ni 0.3848024200983911 8.090938409257946 4.861084156525582 0.5105115588367078 -0.5551723920791923 0.347639372658098
P 2.902009044956347 1.3507294843892053 9.213282241099918 0.45903061734859657 0.44572618693020655 -0.33727191338084495
Ni 3.1211345181182444 5.882539274200448 13.333806139883192 -0.8414457029249831 0.37948119975904326 0.39827930630215275
P 5.263341028664011 8.892028776668429 0.7640102058162798 1.5201112651645305 -0.8401390682984174 -1.5429349479272652
Ni 5.469312368850601 6.497031752500946 0.3044723132006448 -1.1520136246520805 1.3040401263654382 0.016039312851049797
P 8.598665926819526 6.4611376644030525 12.14073453475474 -0.03571313713089333 0.38488205905964035 -0.20323670603858546
P 0.9715070218144404 5.122369818367963 2.268588007803304 -0.29642556878844434 0.2652280601397174 1.1457707290661623
P 4.837831428715883 4.390003833280358 0.13809546365186615 0.0012516130189139734 -0.16664065208210654 -0.520911156903477
Ni 0.5754722196879706 1.137456407906699 3.526237783187106 0.07148798073765752 -0.07419689502838835 -0.17580200686640046
