# total energy = -340890.351189725 ev
CRYSTAL
PRIMVEC
9.07820149838460 0.00000000000000 0.00000000000000

0.00000000000000 9.07820149838460 0.00000000000000

0.00000000000000 0.00000000000000 13.28686553155510

PRIMCOORD
 96 1
Ni 6.648947550785615 1.7496962828754141 11.274623579181851 -1.2490110625147521 0.20830255059726707 0.9278406826814602
Ni 4.8364210339436315 0.38167120279770195 6.131649830228376 -0.9690544379156085 -1.0287937627577701 -0.331105636669133
Ni 2.721354367243261 1.4612091892488217 4.66941661982778 0.32689751212505636 0.37929016679415967 0.8822239132836095
Ni 3.7033888361543514 4.37239783224341 4.752619246229602 -1.3228981396122055 -0.3660068194216922 0.3700416516126982
Ni 4.844536946263545 4.791592873948411 2.4192063956983194 0.7053937222630109 -0.16446601302829095 0.6045321734592426
Ni 7.326417430859191 5.996506272799286 2.7155297930324607 -0.23806384102009967 0.03674414949856898 0.12429046925066982
Ni 5.06102482220644 4.184170398193005 11.379190845464748 -0.3366772172196395 0.673002450416499 0.505263165953575
Ni 5.666731517840523 8.180748836454613 12.327646861927413 -0.6263824365651147 -0.48694842680478717 0.6423847255306421
Ni 1.8892736340148457 6.595023032686869 0.30777282531833927 -0.3318486854827446 -0.38944551006060674 -1.1011476910401488
Ni 2.741925572295746 1.650471538293041 0.5809141267910394 -0.10130686387130296 -0.8487345232769125 -0.45408972840355344
Ni 0.6293299920981493 8.938751443810004 4.5106515815749635 0.1298067710832087 0.1909226645579228 0.46329247794874406
Ni 8.569767935708398 2.4092548709946415 1.5403593064117074 0.6627175235507232 -0.9784788165533019 0.3157944602333594
Ni 6.9815456264731175 0.757419786806242 4.9746421017490645 -0.10638890637990064 -0.4826138039851753 -0.8728656119971612
Ni 0.8647695219102276 7.504023368920449 2.4116987228923157 -0.14460835487241547 0.6405358452473614 0.5379753114746154
Ni 7.76424094245285 3.822422216846399 3.926202403041895 -0.4106236868001186 -0.5752568215338932 -1.418705670931834
Ni 7.482126746419746 3.4104625018963977 12.875198597470492 -0.3654833428180544 1.4846683509758882 -0.7181834178285115
Ni 7.88129527517427 8.725767753723357 7.0634437152906315 0.46895893220590207 0.06935576488600313 -0.776406820246779
Ni 6.837746911543128 0.51521064198638 0.6307443759230289 0.45323817903653557 0.8920046468194575 -0.9038962560507208
Ni 2.1019214306385887 6.482553191824013 9.260107982332242 0.7054366596858044 -0.1859177551441637 -0.06089683548537254
Ni 8.956108965460643 4.772165522310142 1.291411412469842 1.5427655122289365 0.6448352439536637 0.028066933439545208
Ni 6.327724461828369 2.0473342038157334 7.120630939080403 1.2694047956797556 -0.45071746949721087 -0.014526475750949177
Ni 3.142737255557993 4.322640208725022 0.3278056930100065 -0.2677940210946807 0.20271580053810895 -0.24370509846627708
Ni 5.83633956020397 5.457188466198222 4.5740700830117005 0.7836362481156828 0.43151389998556655 1.06974243725599
Ni 5.374422501298177 2.639260189269025 9.421703603875159 -0.1639546206095112 1.396621694548601 -0.057707639124113516
P 0.10587361950754519 5.77282846110989 12.618058534314432 0.3859601226151676 -0.045598257455089206 -0.6768976717058471
P 3.9618724731620287 5.890463798740119 12.43209520376804 0.4403268702915062 1.2019742728409233 0.4737812932952099
P 2.402491610728048 8.488291075449771 1.1315333866885893 0.27369058908477384 1.450063102197193 1.431877946647734
P 6.287843921759718 7.696490323164812 5.839776567367637 0.22732742843920203 0.026066100959432528 -1.076596998283978
P 4.966547977113232 1.2095069689111384 12.73279066304096 0.009018401448526404 -0.13606792150157213 0.46078385259427734
P 4.046354218183398 5.964723488647146 8.183752813397186 0.022147996851948955 0.29168651144156216 0.11417112142848078
P 4.60939336582689 1.1417018804129002 3.695702322774855 0.8117286354765245 -0.6050129697504031 1.2915862168728014
P 0.40619505687042134 5.568133169175458 3.357524784322455 -2.197917050506944 -0.31623874685962955 0.72899747772488
Ni 1.5398627287787103 1.2528553820292383 2.657107025991302 -0.9758359796138162 -0.19945255640580487 -0.8555186360782814
Ni 1.6986132419088071 6.52649168805262 4.675129532157669 1.214386273352031 0.9877211610871762 1.319298338076089
Ni 6.296776872232641 5.77206589216708 9.41326632321506 -0.44313168673015296 -0.6367174999425357 -0.16385537602748557
Ni 8.624436866346555 2.3760104963687816 10.076625954386131 0.21240088903635682 0.37776395995762035 0.3909313505775138
Ni 2.199257909267336 5.345490272479877 6.878105872841377 0.41228950453831575 -0.7648929060699085 0.45052720786327566
Ni 0.569616304775233 0.22779296052006245 9.420188452011406 0.32979283139498045 -0.4287196250698811 -1.839983237901373
Ni 1.3945933451733 1.2434140522611077 11.338067499583348 0.06727239999441317 -0.4884751478619587 0.8883261695266056
Ni 4.017467380373598 6.841096767970474 1.5083913269448848 0.8878587429718838 1.2686105819132345 -0.9422509445695193
Ni 5.539981665703368 7.644472227423092 7.908382813407105 -0.5059529929317479 0.722703160075736 1.2313745803799117
Ni 5.562895046794485 2.893613244503145 4.843846095114165 0.017276784802576696 -0.3064675264054787 -0.42574280182974417
Ni 1.0919533350962116 7.517195839587331 7.222474744853263 -1.8502887335924394 0.5039722150562933 -0.9902819798358171
Ni 5.409718549508266 4.421374730415588 7.377120095174563 -0.05121251831807309 0.36876458467248746 -0.03704933944381361
Ni 8.305646735444943 7.216062810992463 9.259390804397933 0.08456281164374468 0.664580544901391 0.7329479777321958
Ni 4.3982343942819675 0.4054760632957714 10.440473923785976 0.11399731485477786 -0.2618411459453555 0.4794132947700066
Ni 8.262970109252652 7.137599913698278 4.883574121394254 -0.8798065620913686 -0.04184856060466986 -0.2469914825270327
Ni 7.539401120945838 6.407821435428579 7.182812989445583 0.24875140264093287 -2.116287867570226 -0.5231045650103701
Ni 2.3738952753726523 5.424479705472669 2.4377150333245354 -1.4821077893375636 -1.812682493203891 -0.3282352570998734
Ni 2.102375340723595 5.348268202200115 11.372733520595448 1.0998477412818026 -0.348703038035922 1.2583441669902198
Ni 1.0875140944648503 3.4344198761830294 4.041837812837586 1.1098889275678885 -0.13869173227766435 -1.0936428980226713
Ni 3.5787814396184268 2.7499870154054573 2.6394490158643875 0.45654770302574277 0.6590105070127812 0.273185110203265
Ni 1.0043032976814987 3.2877706059192 8.225805767132679 0.35635515526454115 0.8879672435252901 -0.8344476743405952
Ni 4.041052548390525 2.587369188351107 6.649199016972709 -1.1697182410206952 0.34083520525207106 0.8121454112989691
Ni 4.160603386579479 6.694256855470942 5.942444673854868 -0.16733742103881502 0.9820709047799344 0.17703793615603058
Ni 0.7737768906295283 7.586852881232395 11.23711426539727 -0.48445857050339786 -1.2159142799607834 1.4109018586166993
P 0.46815832257462886 5.738957690566721 8.245696107057652 -2.098272919050044 -2.0604514773268967 -1.2398139693965164
P 8.63422316777929 1.529649751866069 7.797171211299886 0.478134428057583 0.5415535157441771 0.9103204144095096
P 1.5637837902585412 3.2805443573658994 10.40817368213693 0.8644480773574273 -0.03364031376226464 0.27957173045589917
P 3.68592237608331 6.322132289581092 3.752582703347162 2.201810472024079 0.3284093207838925 0.6042634931788883
P 6.93113437243232 3.950533799238572 10.484267168787383 1.3174337740635247 -0.267704546704668 -0.2603807593497451
P 6.35593951271236 7.780245812050172 10.303791611168714 -0.77035855717017 -0.37142799043726354 -1.1719340177250912
P 2.379859653889635 8.552746307520662 5.811488890870046 0.9179347364216578 -0.08974692694784543 -0.40451988789522586
P 6.980074957797697 4.037003670432268 1.6926007489228139 -1.7869197824174903 -0.44016283390981614 0.23455531364620896
Ni 5.102076450294408 3.2737720188976063 0.6142356661313504 0.9865983603366429 -2.345077996597884 -0.6210947058036141
Ni 1.7407451759990904 1.3097303156805256 6.855797099983487 -0.9347623495019579 -0.585077921389373 1.2363257537375998
Ni 7.170181579600029 0.5497858809814785 9.132275100732263 -1.64975194298352 -0.09435537225413428 0.31418623520597505
Ni 2.9292179515710375 1.9868461458877962 8.974958943470785 0.16192987686999855 -1.5370219248769401 0.46434894423771644
Ni 6.301515693520107 2.0151519787887877 2.6007177761309714 0.6383352380516167 0.17739429105418483 0.16202166525285644
Ni 4.153295434210878 6.875085555135745 10.454557845903551 0.8352717129037872 0.035926024472647804 -0.11909761219582068
Ni 8.211351454385738 7.227101904259816 0.8417653588021092 -0.5144129507736431 -0.7198518066698699 -1.8618638400245484
Ni 7.72229965059827 3.7087903661659265 8.280361220249581 -0.6533887899506295 1.0553288329338213 -0.4591674000367769
Ni 3.2634682599679636 8.518439783295888 12.40601262246341 -0.6349791770951903 -0.13597664733934645 0.1783458563341767
Ni 9.130129013850352 5.026455030132361 10.444234114930168 -1.9256361972855027 -0.6079046894759015 -0.7888177923166221
Ni 8.740220250829957 2.445540443190044 5.825374000370387 -0.008039068254392608 -0.23077142112374452 0.19302994070891275
Ni 3.470669135571631 2.3948477648965425 11.830293042685181 -0.07677494016820971 1.0556414790782334 -1.44739352578483
Ni 1.058373067007447 3.353015641538003 12.644963600693094 -0.7988283824750888 0.12370965704653533 0.2026049859918575
Ni 2.9592577209967534 8.525248434570981 8.082227652504 1.743405146964307 0.8066982721414687 0.583902155913717
Ni 5.510559213993261 7.838890995032982 3.5626467517367937 -0.5957235740286773 0.0519797355014008 1.4790821151373623
Ni 3.0584370745706257 8.470180063058018 3.392362383346687 -0.2442936239798954 -0.5593224096918239 0.3788175980331153
Ni 3.292963337291672 4.217877761105571 9.40167981438519 0.8191295559262862 0.7981871493466641 -0.13102315998881306
Ni 7.246974087781391 6.397898960970341 11.850343158960078 0.969979263722723 -0.7772876801898355 -1.2279177321795625
Ni 0.4773091498883555 9.111337136331091 0.27246406762587067 0.29953634650328415 0.06418887597308301 0.18439617629331467
Ni 4.580034461528683 0.353926402761778 1.7011442445428022 -0.04468500161220046 -0.3492720231655146 -1.466376494645236
Ni 5.950543337591549 5.5050669019646845 0.23947025136693403 -0.6062620116661559 0.9676858397028559 0.8120394818487241
Ni 7.886578788563743 8.786310280861494 11.311747069394174 1.119167267546021 0.8131216591693092 1.2072270365994306
Ni 9.049178689290333 4.962707897794079 5.638826033634507 0.5262251129172227 0.17480159062634412 0.853820165329936
Ni 7.670553900907553 8.584628951891503 2.695653070410035 1.1939794275609048 1.2795729944620091 1.4647001353840776
P 8.595432011914653 1.5064277119171476 3.6340640566915123 -0.5042293253724219 0.5529568724851123 -0.12780568149277988
P 1.7361606841405268 3.3156497633402857 1.6246386075351633 -1.2862992574422492 -0.574922578122926 0.18632938876028554
P 4.902292465479744 0.8694711225707227 8.437186246799083 -0.19269389752573263 -0.4982021453417355 -2.585354014777954
P 8.470978944807632 1.5584185730537672 12.52118322833205 0.7605307724464708 -0.10323339147005448 -0.1652589412432315
P 6.130972596381548 7.685532933712761 1.5061589971468239 0.1486149049286473 -0.9441175654646128 -1.2919510564113879
P 2.0582008112507837 3.2909479765142438 6.058532178095224 -0.4038760836636399 0.3379429713059406 -0.4758322622869677
P 7.083067156085623 4.050221532107651 6.008546691714162 -0.4211752370637198 0.40774585103169136 0.6355430200184604
P 2.3996864464027094 8.365354068026669 10.286664675841257 1.181076860566624 1.5893739561160949 -0.1290727211306616
