# total energy = -381167.8096640992 ev
CRYSTAL
PRIMVEC
9.21875745038610 0.00000000000000 0.00000000000000

0.00000000000000 9.21875745038610 0.00000000000000

0.00000000000000 0.00000000000000 13.49258337492207

PRIMCOORD
 96 1
Ni 2.402113208635154 9.045205187779729 3.758223783130642 -1.2949155383563504 0.9890650767095803 0.22807947611387813
Ni 1.7641014384130937 6.722087512305955 2.936000034580813 -1.486157533926905 0.19166134249616024 0.00035455512594132486
Ni 8.527793203392326 5.250829125171239 4.602130971235715 0.09337758172189725 -0.05374916869699775 0.6221511720925866
Ni 6.389281147192289 3.5566519625230035 1.1010662727874567 -0.22435266208159427 0.088230490303319 -0.8681936604427887
Ni 0.004485847407670419 2.8338091856314347 11.577513986948766 -0.7302094957551102 0.0629730012881109 -0.2363473725496252
Ni 0.4197825766573323 7.121499400478434 7.066619215105227 -1.2049279561526087 0.29891953885489164 -1.1859449872922028
Ni 7.837225296567041 1.1106021555628252 12.571255484725745 0.25646882588984865 1.689893291089096 0.3137658598391048
Ni 3.913113659424755 6.054548061757615 3.3511935137462863 -0.8652844572157935 -1.0865903620512642 -0.17433236429940946
Ni 4.716657439618311 4.599708281760303 13.010196483254472 0.17155094489953038 -0.13561617867613415 0.16703531641736394
Ni 0.6370373475525352 -0.07042669804952356 11.200922211133351 -0.5053582967705426 0.23207677019872935 0.31883504683189606
Ni 7.45904420695573 8.54955868988947 7.467915417314139 0.5393899324339549 -0.5062134456819862 2.301471829872159
Ni 0.38871997320450563 8.746452912933089 8.7869232584318 0.0476548828738018 0.4411699350180918 1.1104841379497261
Ni 1.327842176446001 1.605907559424963 12.905696335547137 -0.26487376212409225 -0.7903177739009164 0.6685338731221842
Ni 8.149335551055511 8.17789526184253 5.256670129933878 0.0010055584463789134 -2.949174625181605 -0.9757202799715584
Ni 5.893441055394177 6.303638889861302 4.471576771034426 1.837729923090822 -1.9085607298604548 1.0656767518270487
Ni 4.116497887760194 4.874399599488119 8.66972703787234 -0.2071290991144562 0.1160534260528582 -0.5991197441944198
Ni 0.1434116013099566 0.46099411026039405 4.111945665298403 0.37867181648387044 0.24762988744198 -0.7188069103451233
Ni 8.765388240872577 3.978170431220748 7.61251531646801 0.9649936375826736 1.8324180239596053 -0.6640727520270369
Ni 2.8504582617067586 4.339066350488075 6.47912531419943 0.004528741108288974 0.942824300574486 2.2290255989862904
Ni 4.288335527873175 2.6044649361287124 9.472548989352333 -1.276587429471124 -0.03328138776094913 -0.1183872163923574
Ni 2.601579465025957 7.797363389064437 11.707663483695068 1.5761458874615952 0.5220663535538429 0.744205552923886
Ni 7.1216284630836695 2.6153983825436264 3.3180290335796316 1.2798409034114153 0.9405010517579481 -1.1301559053470407
Ni 9.031994708258166 6.742590029023298 1.2264330781340471 0.04577772045574697 -1.3136007734706796 -1.0864867465938643
Ni 1.7473601747626015 1.8365332162225194 10.165461226214138 0.41241625992416714 -0.3843426416164026 2.336270682718899
P 6.6884298286121515 7.735523963641805 9.365215917460088 -0.17981292779800645 0.833627492432145 1.1811403668147078
Ni 7.672762662467493 4.754399032892053 2.6468804394634673 -3.341710344131761 1.7141897017426155 -1.395206045147997
P 5.2599003825677615 5.082752738125109 6.627570357113554 0.5282143754331097 -2.4260798303632476 0.30697814749331004
Ni 4.139858219307742 -0.0005236254269537192 10.18095058259385 -0.8294705328409779 2.164092388648015 0.5495002813950794
P 8.401772788137796 3.165168205814964 0.15183109255004165 0.3064153330113046 0.17683327634439225 0.11957275206002634
P 4.088518958696734 -0.05813625052813803 2.558517726789275 -0.8733662057826636 2.5744350538726053 -5.2139856092976204
P 0.7685207985115161 5.064186160486292 6.057792142527773 0.8352807117648519 0.4841955466499983 1.8181748837770297
Ni 8.892745375967042 5.327363250075637 12.58159155565357 1.182810041207647 -0.670677144717432 0.13942526800957925
Ni 6.957977079645599 3.733292575302233 6.248550360568216 -1.3279778681279581 -0.3429409387411642 -0.33169879016844167
Ni 2.4124750920840263 1.0669236824482702 8.214149869528814 0.6965457849540778 -1.2349854376596214 -1.0904601294193157
Ni 1.9299561048976777 7.691393771408927 5.500898985323211 0.06924726433259688 -0.02084161933569959 -0.3363440022499368
Ni 0.25364581619273463 0.22224764996629676 6.612337282192809 1.3267571083469796 1.7623755174192228 -0.1879065034394183
Ni 3.711693026440392 2.7497156795632685 0.4424699389061546 0.14591627505056162 -1.1302518074949566 -0.27697980135900685
Ni 1.5935175493223963 5.877455729860062 8.328702150432456 1.0218864941149757 -1.7265230264969877 0.585151712050102
Ni 2.5967764923597088 5.662151648055413 10.477584386963132 1.620761726398757 -0.9042641809131007 -0.6343119758248367
Ni 1.383735503270304 3.812112952070795 0.4052390647988431 -0.4653681295308501 -0.2952721719102915 0.5456793649870925
Ni 0.6234627271090607 6.687047014984633 11.016370982528963 -0.9911001048617382 0.6976529019753275 -0.145675105574033
Ni 2.3330462773193568 5.734924519892959 12.768787645789525 -0.5576799889923943 -0.29427124144960287 -0.02186800371768492
Ni 5.527013881616775 2.163126138769868 4.751359608538767 0.012685308777152345 0.29747277910603603 1.211862478488913
Ni 3.4358217077504265 2.7156892455687935 5.113473325674063 0.6035443556246767 0.4439593248377709 -2.53412761250281
Ni 6.863116064797822 4.879635853757656 8.789325666640675 -1.5349300753449178 -0.16881220581212864 -0.5119580614752474
Ni 7.964351962723587 8.156397119313374 12.538954802138415 1.870103197215205 -2.2862156750440366 1.4220841004857638
Ni 5.794044411848139 8.160711497831231 5.9157559798393216 0.06618585179845375 1.1313931201882514 -0.1154265911021367
Ni 6.054520405485064 8.615316087256739 11.465970708498604 -0.45874856733180347 1.1932106677156804 -0.635974194018608
Ni 3.367086651705234 8.165016657591574 7.374884325833444 -0.9674251298423018 -0.882958734567105 0.049088015775902556
Ni 6.7098265648086235 2.1503305033365625 8.335839312501955 -0.17822707136812532 0.22920150553346333 -0.2939208000887196
Ni 6.604225697453784 7.478366722710925 2.6372330097221455 1.085836257494059 0.4192949893218714 -0.5296979019571717
Ni 3.0693023463978566 0.23647495844196004 13.452645219018338 2.103270886485268 1.2704378649299604 -1.6773712473626854
Ni 8.64016063876449 2.458734817303283 5.131674840515214 0.04042391234300135 0.6536523280246613 0.5509686384104898
Ni 3.895570363870302 6.414356167637961 5.805359514824248 -0.7059840475488421 0.5359865631793609 -0.33111514975082973
Ni 0.17235389053392142 8.90872148274364 1.8802052362068125 -0.12495278542501707 -0.5601155950170805 -0.6712353312137471
Ni 6.800548357531362 0.384122578830882 3.9678177665293917 -0.463706425557711 -0.4628548761906932 -0.7697168098211131
P 1.1815589321695643 8.161688686128011 13.303741081979876 -1.3562021530809742 0.43806764194368425 0.1268057794733558
Ni 2.646299657739909 3.440726086749359 11.961391346829702 -0.8347801179793494 1.2478959750737024 -1.8240048601952459
P 4.474821773680337 6.572227390113003 12.250469457538221 0.41234632591818016 0.6740373194389165 0.8513966434901079
Ni 7.562091478478419 6.104467633711036 6.573398172317636 -0.5480180404225982 -0.0852418399886403 0.5557506331801655
P 3.8711867502383903 1.8771694993565333 11.534444873706072 0.45797980748657907 -1.8952632414206003 0.6303632755897338
P 7.349331773748403 0.916116793858344 6.09060630990879 -0.7064936401954091 1.3163503111913588 -0.49757608172196244
P 5.363408591966289 4.392433737752778 3.4869830463413605 0.8596892225162034 -1.420328808357554 -0.5358898897004964
Ni 4.003088732788633 0.672744361042321 5.9726541512329545 -0.2682442212582219 -0.5113029443897518 -0.20832594763603476
Ni 7.055373252810495 3.975626054146114 11.94970657167717 0.49017618971346544 -0.42529183033525464 1.6749420690959025
Ni 5.465570862767366 6.815842276251718 7.724477126509434 -0.16715153028025406 0.7688341501058437 1.624264083125061
Ni 4.510562896572935 8.147519455824703 4.076595417724517 0.9007672235034357 -1.3741425396094786 3.0559245144453504
Ni 4.68813460386136 2.7583720928715354 7.206240063324279 -0.22617043201662337 0.4916440325082436 -0.7552890644315573
Ni 5.185652509527528 1.810674601387921 2.2525324147949606 0.364744664879817 -1.6834956150928686 -0.5961382929685927
Ni 0.525217506376869 4.520768061144023 2.469966029585989 2.3604225973747543 -0.5313619199231558 0.17385568177330704
Ni 8.451047047065043 6.503851865610965 9.08048168529348 0.3053611807151773 0.30135540198989386 0.06793857282350235
Ni -0.11145477837800116 2.0925381124638007 8.614798914960046 0.43081250304316776 -1.8565295722958286 0.6319283060840084
Ni 2.1869474081932556 1.2429005446862904 1.719103761097886 0.7069075878043761 0.6523955727994248 1.8380315134916407
Ni 9.239315346053276 1.9264437582837801 1.8887454931703676 -1.1324704124128304 2.148588893695777 0.14811482536377718
Ni 7.6693332846712465 0.7080475929528716 9.959846980435385 0.3218854036224456 -1.2771186193842456 0.43986561438437144
Ni 2.115197818440073 4.611600478956963 4.346918888140878 -0.9089029652366928 0.1599408714644278 -0.821040914016386
Ni 0.6371682539092736 4.430332049904305 10.137059156180655 -0.5992511275659614 0.47144518896286547 -0.6147427954436575
Ni 6.781806623499726 6.406280536053252 11.317160602786815 1.3209682695793443 -0.3191224961653278 -0.7822702210060914
Ni 3.5452483594747335 3.3051458199499164 2.694968244298303 -0.7231965547723868 1.5426855509206205 0.41267208468871514
Ni 4.744166212048415 6.968265213034337 10.212900952395541 -0.8109742738090033 -0.23882540177647252 -1.5862698632694745
Ni 5.1961803306117025 0.07482404538503279 8.115006741814486 0.4810590579035457 1.0043250881924444 0.360447837276676
Ni 5.952957353922579 2.0850432626026496 10.964558799657345 0.7588546702956286 -0.7338578911409749 0.32181881205056834
Ni 5.76175110426682 8.009523874555862 0.4619685329299188 -1.3225638962012383 -0.3260685884658578 -1.0554062231389758
Ni 1.8310664930150622 3.3253441176692053 8.485094684201805 1.6400174893045754 1.1948525741944775 -0.9915654745339308
Ni 3.001092759531121 7.469470621707222 0.9086256315001998 0.7789987493436713 0.06080170466840497 1.0792197806188057
Ni 5.295549317885192 4.697583830316071 10.81086459621316 -1.6545640196601827 -0.8130141870571675 -1.7362983607161966
Ni 5.074041012271741 5.997585359061364 1.3706172113239106 -0.3310999802421781 -1.0442581769419563 0.4882684311677914
Ni 6.993635233720546 5.990081290442696 0.06533794390025502 -0.5104035725039339 -0.5408490334779847 1.2141296772565349
P 1.2866804241335301 2.3193287661343716 3.8782409434902387 0.9849541398650005 0.5125805255505946 -0.7249330778475193
Ni 1.6951635697025318 2.1991253868729363 6.189129015242237 -1.8738289828062245 -0.48795192836863716 1.1972483281201638
P 7.124043777553069 0.19454712737984367 1.2523626774015246 0.9841774095999759 0.676607651269254 0.401514782520315
Ni 5.621690521314217 1.0572255495406062 13.276216637661994 -1.0667159917248403 1.1815913383091972 0.2099213171476127
P 2.7451708321074912 5.390862051851292 1.3065155028066573 0.1560505352710861 -1.5129034345621817 2.0941977205394062
P 7.71680988588272 3.3991033965610487 10.002807312339382 0.44759640736972595 -1.107094395541887 -0.5708507220463975
P 8.717340076695063 7.046016213930952 3.3484140583549746 0.12280617139565948 0.38423516950426084 -0.03308726947227205
Ni 2.3798591279896204 7.826236537607027 9.502839982801003 -0.31072450190961975 0.34680582101320917 -1.3879002555152031
