# total energy = -340892.09119105345 ev
CRYSTAL
PRIMVEC
9.07689396732825 0.00000000000000 0.00000000000000
0.00000000000000 9.07689396732825 0.00000000000000
0.00000000000000 0.00000000000000 13.28495182769011
PRIMCOORD
 96 1
Ni 6.282299946737092 2.14496084553754 11.439340054563283 0.09231494478533779 -0.5841584948988973 0.7519995950470081
Ni 4.775399372187075 0.3201420550214086 6.033188218831208 -0.5310595581913886 -0.11276755621273483 -0.19065449849820068
Ni 2.611313510774 1.5736157462088598 4.7694040836318825 0.5585464507577477 -0.6790442857352047 0.46964850207375886
Ni 3.270949559044933 3.9504186209314534 4.66950106406335 1.0628688500646082 1.17421072957441 -0.7618443490515717
Ni 5.098627571203586 4.489313823841037 2.731492496390358 0.848603397015687 0.9210593980935686 -0.05116289602706027
Ni 7.166434816863555 6.205727268082128 2.944370170725504 0.5129944731595617 -0.7791234478469936 -1.3612636267642815
Ni 4.96166631607974 4.602974691801856 11.451960568124434 -0.3758119784375721 -0.03856011966138521 -0.34985257825933297
Ni 5.844430575196612 7.762677836717432 12.787390443859485 -1.438893972954251 0.4032129961583443 -0.8650144913838587
Ni 1.898505016846265 6.708614432084144 0.32726015537717235 0.09416022552419268 -0.026672624195179868 -0.36358586868502546
Ni 2.6806700586168857 1.6519039578493377 0.3006539633817441 0.4115472270556525 0.24393495508889604 0.31640792544764224
Ni 0.5035470542033217 9.041022217747772 4.645933816213688 1.437406332665131 1.2832185616343963 0.3764964060991064
Ni 8.598106093085887 2.4968901837085085 1.5514036786488121 0.16279839551788092 -0.500284481792061 0.1475682088316878
Ni 6.87364144377522 0.6741917556548945 4.7776277496894215 -0.05985451026378724 -1.1381836607475235 0.8756930541436273
Ni 0.9990755801558376 7.343779173852732 2.538130144377187 -1.1019928126492635 0.5716379938343833 -0.01146506321680606
Ni 7.583400101284265 3.7126130723205693 3.9911711523867868 0.21135882092508762 1.2369255921051279 0.17185870594793629
Ni 7.781076701064708 4.230068651358291 12.899064379701104 -0.39266993053517535 -0.026547154360909122 -1.2322281866294584
Ni 8.107617966428903 8.606184528837776 6.937628101066626 -0.9891324396124062 1.1073602476087638 0.5636878857493711
Ni 6.876373588900297 0.7100309643321424 0.6014014187727517 -0.5057547608780129 0.12419842375749579 -0.32639846100145076
Ni 1.8636134359133958 6.499355715427962 9.190781893557192 0.5254982620535272 0.5411056295734811 0.2839444056022981
Ni 0.07208233914208992 4.821900300677993 1.6026173305581342 -0.0411294230504582 0.8996667913504054 -0.5932779407016622
Ni 6.4762550199352065 1.8426367336407994 7.012329124157502 0.4775057933346486 0.1557294044862415 0.5358286974452577
Ni 3.416325095002485 4.078012521340751 0.25353399071298494 -1.5128052184214202 1.5278181468904848 0.16476477521563238
Ni 5.9381041223420885 5.493753848411892 4.883999871685335 0.035117412528423396 0.4775230197258292 0.20910961987959467
Ni 5.919260490183754 3.2937870246086938 9.167374399043748 -0.6938535828338954 -1.1961494386290301 -0.3710752350835351
P 0.34960293021230693 5.744766277942996 12.503677595632034 -0.11131514003692441 -0.24582805834655083 -0.806410822808037
P 3.9379288146453897 6.2468637521580295 12.55845120540865 -0.0823748028534904 -0.4404415414924995 0.5658761516499415
P 2.3478657363214523 8.74048625398937 1.320336816220176 -0.04127237638622569 -0.9455905504657134 -0.031707101295293784
P 6.387573764546514 7.716712444978606 5.935637022524826 -0.6530252359636238 -0.5926552195159988 -0.577719681252089
P 4.761720492773486 1.095971424707965 12.612201849219826 0.0017534923559969803 0.04768984987679528 0.5758216928984277
P 3.9920906417594453 6.100190220343713 8.37859320916127 0.059875850420025904 -0.8187248642886997 -0.8754842805669308
P 4.617806336766556 1.067597053741225 3.6811008190623378 0.6095062296350665 -1.0915924432515458 0.29383698212566167
P 0.2517122580664639 5.44631799982834 3.6300995664750313 -0.5302817994850997 1.2174957655152905 1.0305878785437155
Ni 1.4652830150866452 1.1936297283647652 2.647106427291321 -0.17668595213325053 -0.3764334140716549 -0.6814909475034844
Ni 1.8399953574567556 6.702006453176983 4.77166241488477 0.20988429326209015 -1.6049813236360488 -1.0430153056737907
Ni 6.225415051392065 5.64118983933088 9.391770651995909 -1.5473145650521998 -0.22186537688336627 -0.06263412989145344
Ni 8.467562202093035 2.4280237881471978 10.271805489055936 0.45144457747122246 0.02924115625330448 0.06408963139105736
Ni 2.5410038890502737 5.386646497993615 6.824732415278711 -0.654971303946401 -0.41044705201293835 0.5636678311447131
Ni 0.6352092185496935 -0.17336141585667383 9.101440747967194 -0.26381755294543596 -0.1537637961194384 0.3163706444518036
Ni 1.312364580129297 1.3406118745785918 11.594987003888068 0.08241954004849676 0.019320040484850597 -1.5860873149450232
Ni 3.9718400910151086 6.697177545514057 1.497399789492153 1.600175160496657 1.0791236213605737 0.4804491922336887
Ni 5.382371280870988 7.714071068794563 7.999347865876 1.223897041055944 0.5382882147293439 0.5266202914731124
Ni 5.418551780766517 2.6978980036248426 4.936887302867295 -0.47706073537742993 0.4791039910597039 -0.291518361294814
Ni 0.8570684795999988 7.332033672883134 6.733996151065045 0.2781925907201854 -0.2868009012144867 1.4256831306909317
Ni 4.7766610604674264 4.3367766184360255 6.66371829847068 0.6055611289443894 0.9437653243315165 1.239685157128136
Ni 7.827986089790271 7.214542355610747 9.18109775523844 1.3007699402545985 1.1428417283448251 -0.37077621578587755
Ni 4.573747092789411 0.45522439306588264 10.357386985108368 0.07246140039452037 -0.5079476547642735 0.08136513064205342
Ni 8.293249527734341 7.304385453444653 4.8182922352719535 -1.255829370988166 -2.0720746633881215 0.15804005489728912
Ni 7.241736730344065 5.926649081983795 7.106360300930646 0.12194613738820934 0.403524356751176 -0.26693835796260484
Ni 2.3551000209217374 5.373829923519835 2.4825323526159977 -0.42537153453325455 -1.5443390273636435 0.6085484937074873
Ni 2.4761857882590097 5.081635625442313 11.287692384780389 -0.9886881529861359 0.06963652935121556 0.423175041102568
Ni 1.0205152040276995 3.1921348875464672 3.7588580323977756 -0.7820053973804789 1.856279146847919 1.0122628549822823
Ni 3.8345611445976497 2.652014303932945 2.4585929521081025 -1.2452688218635006 -0.8544876237106057 0.11195920137882652
Ni 1.3532106035938942 3.4549835869882006 8.05441375164274 -0.18699581869969087 0.21889035341544238 0.5805617786865744
Ni 3.6608112376733564 2.3801704024348966 7.026212233688413 -0.25524960877076686 0.34528655615520537 -1.017246681350119
Ni 4.09197278447154 7.025143883252461 5.916851482488753 0.6451954555065598 -0.4341053148618266 -0.2617683837258911
Ni 0.9125001641990983 7.862142442300779 11.544184535281623 -0.3572010482046042 -1.4290060244165776 0.23387397130846818
P 0.3404924516008811 5.555621958619602 7.986435076324727 -0.6433874557635435 0.4939230583504074 0.05465831077482845
P 8.530655693004684 1.382919277993811 8.0802402384347 0.0010497814207530308 0.9031742902830318 0.4768373065127143
P 1.6463488986581525 3.222097714981275 10.287680976842509 0.6493061352408237 -0.6037644420552827 0.645707619256288
P 3.8731379445364356 5.961794815951555 3.902626958099054 0.868060220188718 0.9260643075073277 0.20101244469375704
P 6.959218401380602 4.101049678574784 10.88972867047541 0.6976834981029468 1.3097898843650215 -1.72431136355765
P 6.218589227026424 7.9841631297306845 10.569906122126437 0.7432447316725135 0.2539758842646659 -1.278387201684024
P 2.497543720083942 8.568597110356242 5.698168226685173 -0.583516233329208 1.0565706757607223 1.0733993172822869
P 6.934583710784398 4.023614694980011 1.5464613098095958 0.018865212335619122 0.14128700380866635 2.3969379186919686
Ni 5.31088166291384 3.0062945576766538 0.5856847766329849 1.006929615694827 -1.6591058733945943 -0.7021055384300425
Ni 1.3967161570307418 1.1223125713955786 7.091560425095307 0.2534719480450538 -0.6243756905477311 -1.017238968040635
Ni 6.8305080429966045 0.7514560936405263 9.314836712955636 0.0029989347273238673 -0.6976189634135985 0.015553631463882889
Ni 2.7855081855093515 1.5423095384467722 8.998814660167689 -0.3957321144002669 -0.252540694480036 1.9825521937462565
Ni 6.5503133989235724 1.9112308223790127 2.7617421536788282 -1.3408552383112584 0.22347154502822159 -0.9484969254792309
Ni 4.146878916902062 7.034547545543422 10.405558062114284 0.33595936521700853 -0.4407356756941506 -0.13160217242073463
Ni 8.346730587790654 7.217955267793567 0.5272568092904047 0.20368613487117823 0.18126020176749427 -0.16495272285672238
Ni 8.03524788974374 3.7411508273811673 8.108510225119252 0.018968056462070556 -0.2782532687547917 0.3139828609459173
Ni 3.2690887957537678 8.43231662229014 12.257466843081545 0.20557049637808467 0.48543507548405423 1.6340144776436052
Ni 0.08875205516269714 4.957118792134016 10.194552951032637 -0.3204877519439706 -0.2572977495490472 0.4224623313062595
Ni 8.623103859446221 2.209397716776468 5.990650262305767 0.4444028401330927 0.9812638354976069 -0.555303775450734
Ni 3.6494469662560958 2.494484806771149 11.36503750712354 -0.5881488470052129 0.9943818609368036 -0.2698452471967546
Ni 0.9008790166787153 3.450517755089405 12.87666532812253 1.2212310641880064 -0.10983264195412697 -0.32139792246306587
Ni 3.039515990094526 8.405049632403996 7.853651915556604 -0.03275122628909198 -0.1592137634904161 0.3980468785763725
Ni 5.429916052183779 7.8825836078212825 3.7882036310335625 0.234937379575976 -0.011124906268567937 -0.45740902258477356
Ni 3.0117951555032194 8.44644934640889 3.5598625599041314 0.8072903971995128 0.19022152472584014 -0.8640966075552796
Ni 3.5737275156468358 4.037012190676399 9.15507248446562 -0.10930402314416658 0.36553990708760276 -0.09476289210519809
Ni 7.420851081683375 6.431823623299828 11.45032672718585 0.9512042971080651 -1.3027892846774725 0.9751523232832302
Ni 0.5121964265943026 9.58392940785099 0.39536681490204145 -0.6952165246196931 -1.5613928975221367 0.5824032027706874
Ni 4.481398772183009 0.19016546991000907 1.306893936053272 0.6271673943602554 -0.1978106499270077 0.946553685709931
Ni 5.8068976180797 5.47916727958798 0.32512526988408935 0.03353078476759387 0.5251287945292505 0.4582469451050366
Ni 8.015079031046334 9.045197589035263 11.53508494894312 -0.8085998600395559 0.3023517044648922 -0.19428001106592993
Ni 9.193078347765312 4.808393882252366 5.821041234471373 -0.1186777510495827 0.17459024594648642 -0.10419935492774958
Ni 7.9415924963864715 8.753938211050379 2.6973633745621615 0.6258314491576512 0.393364899719671 0.031029872722611075
P 8.493013813158532 1.7058297857167088 3.8248307141189724 0.35792532796513843 -1.0477350797469633 -1.1916710911427026
P 1.814216978203543 3.2937597939263843 1.7685456778336617 0.5193870069494668 -0.3179094496938331 -2.0761930564318694
P 4.923752129410491 1.0908066719632195 8.22107369658299 -1.183627909123252 -0.6401602070754975 0.8134394475200443
P 8.205367039026736 1.855843614561019 12.64917385428116 1.1807819550340244 0.6306913483531138 -0.9566979732327847
P 6.452192173667507 7.768623202355057 1.5114154216769715 -0.8987957015993617 -0.44071125021411844 1.3104218615220657
P 1.7754314097003823 3.3392259564895324 5.952535476276836 -0.15734868525721935 -1.3299367916265417 0.35908489549087835
P 6.910166865646672 3.8575347635729593 6.274456602542481 -0.31275387363482265 0.8571859964783752 -1.4458626909626002
P 2.439106675847259 8.611567127040999 10.284001203973054 0.16360469346926015 0.5971253394722104 -1.4015443286611993
