# total energy = -340862.54690844513 ev
CRYSTAL
PRIMVEC
9.31951115167703 0.00000000000000 0.00000000000000
0.00000000000000 9.31951115167703 0.00000000000000
0.00000000000000 0.00000000000000 13.64004660110294
PRIMCOORD
 96 1
Ni 0.1908850256799851 4.327598933700425 11.82946720757376 -1.4606236513218587 -0.4280920187882111 1.1303271408175823
Ni 3.7830878487439263 8.250302380776171 13.122829913537979 -3.716559701545748 0.2780802335120372 -1.9285682833306337
Ni 5.042293613953457 0.2628446999980762 6.16504216320048 1.481538547097655 1.4833393477518197 -0.6016743922954735
Ni 1.848506421328351 7.534293649434107 0.46125895883287593 0.17584443006856168 -0.36226637854265353 1.501447627316756
Ni 2.2055089395378875 0.044870650910367696 9.416052086972854 0.2653879827563494 1.1321191997209985 1.2313038750429763
Ni 4.932043795632556 8.182512255800157 3.926928913485442 0.8597414159103774 -0.724054531897308 -0.2783288591877336
Ni 8.675383928811085 4.534678474113819 2.3379997715040006 -0.4996090529915912 0.9190850479760172 1.7870853614610769
Ni 1.1083508362864165 0.5707753316168509 5.287100399888972 1.799129694220121 1.0259853467746975 1.1782620168256484
Ni 0.12717311883560484 0.07503884084160978 3.3339545060240954 -1.987216689101461 0.5061447972275799 -1.05928576069904
Ni 0.9166661965394887 7.43696067373305 5.045903060668224 -3.3973425887840847 0.3354952810963964 1.5570914419333053
Ni 8.373944336791675 2.8396364448641074 6.801663569742479 -0.6774424884657236 -0.5730271608724259 1.920449510878241
Ni 5.585369494174418 2.4355517557198962 11.376672228876053 2.571326333040294 1.7845255711537007 -0.6462184974544355
Ni 4.031536699683651 6.350492049907959 7.789830920645588 0.7888033941389189 1.272170531350351 0.13375958508336963
Ni 7.803618205618026 4.0099899896280355 0.2757745899336992 2.198498891152343 1.574298035619579 -0.5250323781607023
Ni 8.690630649248362 0.6678538846602444 10.115527073371291 -0.8444227832754361 -1.339482526333448 -0.6357152839302664
Ni 5.858962386519874 0.313227841824489 10.756145618296877 1.4647356166077032 -1.9294835960560515 -1.5574603952369501
Ni 5.839354134808362 6.723076790960483 5.508246810612897 0.42628247638329814 -0.4080867793108778 1.5699485004016316
Ni 7.7572163590060415 2.1592282465724097 3.071465811356523 0.09625593171095681 0.09610655061728608 1.6267297710567339
Ni 4.855055313033318 1.7041192332264286 9.13849001477762 -0.2210806761985418 1.249160957829055 -1.4712623619826275
Ni 1.983853683498636 8.294337071525645 7.259177948947178 0.7798287014441344 -1.3300028689777867 -1.7465791738169145
Ni 2.122947389199352 5.269065281679791 2.590694591778214 -0.8798479568522652 -0.418228238620254 -0.20797499205451922
Ni 4.252381158242437 2.723403500308038 13.143985204120264 -0.13586840389625632 -0.3949690109819972 2.3511355156458733
Ni 4.231738440779985 3.1093524205213554 6.207121620485563 -0.8964711672312432 0.24877608523128122 0.8172727052232053
Ni 0.04896284830890602 2.493556393862694 1.4248255958372795 0.808856199024736 -1.0632540013181688 -0.9740894292363546
P 2.7287063022205147 2.396903742484327 9.01357501352267 -1.2517611144560636 -1.805579820720839 -0.48222351052529205
P 6.033824376473812 5.9739371970545285 8.424801841741719 0.25332179562043466 0.25166137719887627 1.0689543941370558
P 1.1774922903965412 9.380554068546454 11.488725372627648 -0.22008720193702097 -2.07567035115918 1.2853011551950382
P 7.341873700247998 7.7184378726126965 10.386091124554085 -0.5922718680346509 0.4104596504184286 -1.886926696530447
P 9.141173102072175 4.878866664327477 7.219554182881668 -1.1175844964399333 -0.8385007613640463 1.2429684558650982
P 3.0710026316464174 1.83268189119235 5.052996140695615 -1.153748347955 -0.9225331544256177 -1.2283915864921877
P 1.4709823393028698 5.467235369319324 10.732316559931304 3.1742124862556818 0.4081757394802583 -0.5951039381668074
P 0.8152130649060839 4.611601720134169 0.7049036017130549 0.7620531226282682 -0.4278742463504502 0.0452249332760705
Ni 5.6289102508265945 4.168924934822006 9.650960619988787 -1.9756240991678555 -0.27062917655063073 -0.5569037729480022
Ni 8.319602266577881 6.856196689937302 7.9000695555529665 -0.3958881803621569 0.15258417398904045 -0.4553729659913513
Ni 2.7040095973557303 7.094981207690317 4.045501055370214 1.6443027469434908 1.052209570578549 -0.36508070806299703
Ni 1.002826010179267 2.016714280235703 11.055217122502647 1.5528393515251708 2.037974122159987 -1.2068909934162506
Ni 6.691064269748962 4.794040472750397 6.710861707539248 -0.3772947336306857 -0.36818402957866914 1.1061618564252886
Ni 5.43290228980164 1.1256012516466862 3.613998364070458 -0.38008309500910026 1.2003184824050552 -1.1202880114140257
Ni 8.21006073111348 8.051004632273001 0.7115726439776736 0.15114384199808809 -1.7026649889324679 1.9010040005591198
Ni 5.501931909776527 0.3891771989171514 13.04901006477045 1.1403544431465975 1.8760617287914851 -0.5113530809013966
Ni 8.430942467717342 4.379359499292503 5.187527945629799 0.6974068474027925 1.1989786805477094 -2.5585024418027484
Ni 3.2191269437675016 0.23347332828039602 3.2962943609831177 -0.860744403253595 1.9616732934147185 0.915725387475165
Ni 0.9825281146337956 1.5482690462627384 7.7592498763650966 -1.1787620963905183 -0.08700073166127598 1.545465941879235
Ni 3.1185880561896573 3.449663694046806 10.847697701157323 -2.7120577214558064 -0.023833612084487983 -1.6058213030388409
Ni 4.343367546768807 5.80253274578166 3.38075336381617 2.4281076594265536 -0.4972562364886985 -1.0126644612960753
Ni 2.7119311819350007 5.446285107984972 12.719943713543056 -1.6307836294111333 0.6743890463513805 0.3402662201224785
Ni 6.791864103642357 8.862258768791705 8.483850265146724 1.4945264747168905 -0.19686576951523513 0.46763095742309785
Ni 8.58621484498231 1.8570710521852327 12.507526889025486 -1.204560545510861 0.5737349855727281 0.12291878571412379
Ni 7.294828807358401 6.710383616611111 3.814793758034673 1.1168432473985346 0.7412814372985556 -1.9996929671916013
Ni 4.498928828883136 6.374918488945919 10.76349684878644 0.08568381262206534 -0.3348782163376878 -0.37655399880991924
Ni 6.163738363573844 5.602638548557227 1.6537193162797301 1.1503403507147156 1.6030457971762326 -0.47829820732895684
Ni 6.148137501708317 3.3330020519723287 1.7389695456195828 -0.7898467478017688 -2.183088727244859 0.7835837976111923
Ni 4.582534164483881 8.814785178383701 8.381740107968804 -1.7685726473688703 -1.2072784586626564 0.6206254794766796
Ni 0.6683729814379684 7.072502546507729 12.172963890051205 -0.36974597474915033 1.033712025994994 1.2019164230197945
Ni 7.126210889955181 9.321002391532879 4.820038181388435 0.2785479171770751 -1.195614906281799 -1.014725457590162
Ni 0.9481763960935717 3.793264755050471 9.242440775431312 -0.36152847193536447 0.6040518913887146 -0.4095366243835269
P 8.564034408160353 1.686039381363153 5.03079054119323 0.14253193195936098 0.28723207521463434 -1.2470431401551039
P 4.05949523349284 8.492236893338356 10.977769187997811 -0.32604570564772234 -0.9382248541292616 -1.1028171083227718
P 1.7147621150964598 8.454604706831185 2.4458377003082967 0.0909373477115208 -1.0028829564292792 -1.361938541344119
P 4.283573562462221 6.776142088130324 1.2269863508478218 -0.9452982160362752 -0.9662863882521682 0.31961923329608827
P 6.499203491239036 8.515088334971733 2.2798926187372355 1.27363965969671 0.41990871164647037 0.8406658873361652
P 4.103474007174694 1.9443575947375216 1.6864690108326876 1.8258401136317717 0.6067296953311937 1.3309714035386433
P 6.012175151794231 2.600693495419507 7.24762548277722 0.7982663393240317 -0.43995714565691324 1.0397536042033835
P 4.335958535309373 4.445975365848532 11.979752714358296 3.365733703629552 2.369046334488023 0.6099299474360463
Ni 2.7289113314684483 1.0892085601383918 0.3916766918396929 -0.5802450187771039 -1.597387827559507 -0.25707637756686047
Ni 7.651206918312867 4.738188641710907 10.22402016381785 1.8214049606785534 0.6133055487764986 -0.39967464398778263
Ni 2.269841525832832 2.914854220322096 2.1876453003360696 -0.5830305519420411 -0.6006346381770494 -1.4082194266885295
Ni 0.8322770900409591 3.151858711422592 3.9023356551957527 -0.5459485594880791 -0.17336640084171434 0.7797425694882313
Ni 7.367558273307372 8.505265570093439 12.257313854602403 0.827445531991149 0.30758184251557996 0.9048110545555063
Ni 3.5346949148718196 4.137154720903498 8.195062841627102 0.10099653171973574 -0.06519083487503612 0.05905721117347248
Ni 6.081708025377683 3.1495940701840484 4.970364694022557 1.419427636699523 -1.6479691400514842 0.09885660255859749
Ni 4.639439100296851 9.023467674735489 1.3235523307713803 -0.1893326943629836 0.14590393375538743 2.9327591599380587
Ni 5.47495192465066 7.0195397639618555 13.03198704548516 2.800514983057951 -1.9575806114025833 -0.1761359931670515
Ni 3.057200435455947 0.9976257228907577 7.079156677554316 0.8810322069683536 0.8774434611758307 0.22622056852826847
Ni 0.4741040412159444 0.24871259310865806 0.029794477529325927 0.74003856603039 0.05188100514000742 -0.37574770085854
Ni 8.394521817675239 0.3716993874819003 6.746967358100435 -0.12497875356694603 -1.2520287662951533 0.5729654543965551
Ni 6.3977140135116795 4.816081116903308 12.232203363437243 -0.11983089081741945 0.07989317408221724 -0.37345016307361495
Ni 4.0122732698891195 3.363784397696246 3.6815303385843006 0.3173186101873697 -0.4509280428461202 0.4461267648027349
Ni 4.048181346811388 4.344849349060694 1.4573711930934297 -0.3834903209184364 0.9230013523112878 -1.0272261611603342
Ni 9.138209497488402 6.544869096460712 10.182580956956997 -1.066253707376441 0.6411500817925926 -2.0989506618433595
Ni 1.7477625045025729 5.591352620409584 7.07105522640754 0.8524232849824094 0.7604135301423162 -0.035912911846525244
Ni 1.7746306554932036 2.974806636320267 13.135801741274316 -0.4288854612237839 0.6282629414172792 0.35776591956913867
Ni 2.3519743786529603 7.04730258803438 9.226113923637874 -0.4676697810808333 -1.4778924657046355 1.2662384821366321
Ni 7.538580624618183 0.8768672236621079 1.0620971699036208 -0.6310687862971907 0.685103347445091 0.00036509664890259705
Ni 0.30510029604615774 6.872710863907264 2.557740799928449 -0.5427673335466201 0.06699009286730398 0.10620018740786227
Ni 3.861819079950603 5.356938953442072 5.654113005153325 -1.199185911462509 0.02116583544433774 -0.42707309060539356
Ni 3.6663702896018306 1.2045375121012971 11.35257010883028 -2.0604597048570126 -1.1999531286458367 0.18080357384604992
Ni 1.5935618710336248 3.2539259988486724 6.313090987280279 0.634602767592378 0.6875834335544675 -0.46261884892048716
P 4.066857647395927 7.7593878051318885 6.07179858904458 -1.4528162394622979 -0.20015292490693917 -0.07008827217665349
P 7.763413834000412 2.64609815432563 10.206205918025761 0.07053204458229144 0.05771638087486189 0.6966841103041551
P 7.672157179647218 6.257977261533351 13.367818429943252 -0.49136763891840535 -0.4319059932176626 -0.4083572593634451
P 6.623749439847704 2.448804100745452 13.346731171793234 -1.1458841147155747 -1.582537649920552 -0.2781506817386564
P 1.4739086658415648 5.284759338658016 4.8257668849659385 0.43420378811290383 -0.935248545109757 -0.3963764328524851
P 6.625221922628321 4.692606912090659 3.7914148320634298 -0.11589915986318106 0.8481678521401651 -1.9325336957362844
P 0.27420145643136884 8.793862875583159 8.349795619189551 -1.1035881821608413 -0.0453840845617541 0.946867360295608
P 8.12105939848756 7.276488009179574 5.727796789056316 -0.48132670974263553 1.3098330788981312 0.16694738468924797
