# total energy = -381174.53508646745 ev
CRYSTAL
PRIMVEC
9.17497395635077 0.00000000000000 0.00000000000000
0.00000000000000 9.17497395635077 0.00000000000000
0.00000000000000 0.00000000000000 13.42850180570979
PRIMCOORD
 96 1
Ni 0.8415414532497395 6.338237136056347 9.56996939612975 -1.6632332652994064 1.5428688705760203 -0.8021476766563088
Ni 1.6810570722571152 7.118366818844866 2.598683831764327 0.013194130092770824 0.20182362774114274 0.5759800728531629
Ni 7.441206626299817 2.3482703509660565 5.714458183902432 0.09298625982074953 1.410771760796738 0.11345121254332075
Ni 2.6479433492635422 8.170185829463435 10.070852325067227 0.7564979971379938 -1.0838696206859912 -1.0476317213998796
Ni 7.8694301842429475 5.142141660486825 10.976444271278657 1.352829379953999 1.0092646915859071 -1.0264329758350774
Ni 2.1824785721639146 2.08750841707919 7.563012662614114 0.42245281822456276 0.6217904463190581 0.5620364661888771
Ni 3.451175616392061 1.1992883664949858 5.59489084122553 1.0038435205703358 0.515184538832345 -0.09786441384865727
Ni 4.5727611287268175 7.771450637711233 5.627495946058356 -1.7939345231724264 0.5722568583653047 -0.3195652401297012
Ni 9.012494310533201 3.422054249158082 3.128760610229779 0.7452123969218456 -0.38981960557057377 -0.6520497594242318
Ni 1.3379864473002974 1.9480579884121312 1.2816594473876186 -0.5657414258442902 1.1069257311745064 -1.5232436401459248
Ni 0.8474987638184297 8.987327357060357 13.53767585948624 0.44479750446835004 -0.07000548265486009 0.6058079548478728
Ni 6.0733189389820215 0.18340130625399328 1.9109030140105177 -0.774685209569982 1.1810717183603014 -0.8176411443062176
Ni 6.114542096821425 7.294260243937054 7.113050838953445 0.9627153830714581 -0.3686365437350555 0.398105756838766
Ni 5.04607050853125 3.0107309931824964 5.135542101743472 1.470331622638242 -0.8332492831571198 0.5606010192939312
Ni 7.42618719398664 1.7035174084224525 3.4376966622006813 0.4955472242173918 -0.6255879656882775 -0.3772489679944149
Ni 2.7607313037081873 7.722814100941441 12.533478633521495 -0.4970968280926987 -1.0517801963506144 -0.014552186782562036
Ni 4.146189066089962 1.1078689263187522 9.916962322438971 -0.6134526158773241 -0.3799316570329005 -0.753065317307361
Ni 2.5422017747923364 6.17023418853858 4.558627081397282 0.19226092375337211 0.05552117299575599 0.8684605409509302
Ni 3.6769441997337493 4.0995251487137745 3.5757956172087724 1.7956736173507202 2.606270196105331 -1.1004056706678016
Ni 4.708165393893503 8.947746519553306 11.80758772658061 -1.591633441574233 -0.2856156226571339 -0.42189437461793144
Ni 6.673353058621274 1.4671609051727579 0.0570013604960746 -0.4292433587838349 -0.23388194172826818 0.0876440216722297
Ni 1.6042900654371086 4.6502529584868 2.1707043281275675 0.41508249390242064 0.3207975698749056 -0.6964982195455941
Ni 6.241679710482813 1.1407703828093156 11.091566339089503 1.4106959132534802 0.7684698247878895 -0.9359286018959172
Ni 8.905780188826077 1.7654760073295288 7.590567861799309 -0.257571314925408 -0.3156340233960951 0.16540420857184415
P -0.11158052787627949 7.6329727562800915 3.920719586898187 0.5132287006575548 -0.9013287524338607 0.15764487634139945
Ni 4.316394007349427 7.482484833982763 3.0447114266064927 -2.6443821724857037 -0.551578761190663 -0.9661154098919424
P 5.4673577861880265 5.604275922052132 3.1868115877427305 -0.2632128294819015 -0.9422347466196032 0.5546643420945222
Ni 2.9655625965558805 3.806467306615312 5.847937539539916 0.1506368204546825 -0.8828666890739312 1.820846259961606
P 7.825454534226419 6.195823190811916 0.1639310940904058 2.9431528444675568 -0.8996323385680441 2.3288918737563247
P 8.21082178897172 0.9799239149520742 10.16818228344514 0.17584340162729717 -1.370068883760737 0.024732469749673535
P 4.143987072348262 0.8570333967199895 3.2544779379277706 0.5512447748900119 -0.38381839368181636 0.41102040801790507
Ni 2.346793180164333 4.754921061008927 12.649299834345333 0.4924598435413196 -0.9246129197727819 1.976338094515745
Ni 5.292923181949714 3.1771283202636056 9.922159027669382 0.7238218470612114 -0.13482839266751617 -0.21957709506982181
Ni 8.175222890147573 2.996574008418152 9.625603685511187 0.15422890868131503 0.6213227626540202 1.7508546612638167
Ni 5.439355765772746 7.9914114625591885 9.217766919626627 -1.1782766721136677 0.4370150323094538 0.9049488656849511
Ni 5.9742475705533815 0.7091410745456892 6.1583911321978055 -1.189519334907022 -0.925303003861271 -0.31255949823582946
Ni 1.8081855109445797 5.513370280415628 7.153322551996956 0.31211444027861085 0.6808348019767242 0.11808279777806116
Ni 0.4660180280272297 1.9394335129238072 4.962086467222822 0.5204113344489231 0.8628007715619915 0.5627406913447535
Ni 6.287802304397498 6.121001278463744 12.41243412004287 -2.816461993305511 -2.450420206880825 -0.9930065778558317
Ni 8.725042377502147 7.864117874341097 1.803514531719999 0.3109595007385612 1.6313402732455518 1.056761965835922
Ni 0.2057120903443734 8.570278917356353 11.27087744196829 -0.8469730605011155 -2.6984252182740365 -1.2137589241806774
Ni 1.1347974747849552 1.7186469404227145 9.78337561960658 -0.7124897098778439 -0.6791512436267142 -0.9121253288287323
Ni 9.206994582742752 5.452145679422451 4.916523546717485 -0.634648533228649 1.7837709523758634 -0.5575606898057107
Ni 1.1605699765367656 3.9354766149571447 8.933955616248516 -1.490164341093453 0.23421387114639017 -0.11733717786128822
Ni 2.398356533615802 2.408834353836723 3.3302687275222906 -0.6714705871530048 -2.46070256264344 -0.04541519491000565
Ni 5.9652193962124125 8.57822444477432 3.9651411406474093 0.8925273520921468 2.2347187927163255 1.6223982335609155
Ni 7.3753303135273 8.309911507348207 13.463550327658881 -0.4940539275013169 0.4520876103718601 -1.4989729405240186
Ni 2.7243341821526754 0.002527705315992813 1.7530503401445956 0.01065439439005262 -1.2196737470032155 0.9164764067085763
Ni 0.724233906650256 0.6155361555808183 3.1838306387149045 -1.820256448896407 -0.9644377650792036 -1.3282349784440868
Ni 5.24345172255286 4.536712656180408 7.3535553479140665 -2.731166160150483 0.9286716632231877 -1.5473384763115998
Ni 2.3863189678278434 8.716977575423172 4.332773170798103 0.5906639001175827 -0.6894338564996448 0.3791451565758632
Ni 8.321894023292623 5.716862027070454 2.2658313752663886 0.5307183728018859 -2.155419029243733 0.3603655619755149
Ni 8.14748694397608 9.083031510058982 5.216905770499277 0.2356423760628006 0.6767709163199958 -0.7452584196684328
Ni 0.9390218812000019 6.57958482512056 0.4825531660326099 -0.3564857673051344 -1.4229708739660911 -2.003028716433054
Ni 7.085914936076565 4.396720904051848 3.9275677874348736 -1.0908601930712116 -0.41909547171655565 0.845162746765254
Ni 0.3398437866278352 3.7702169846425804 6.4661729724491 -0.24646286371707232 -0.019072443250418767 0.6058557773666728
P 4.4911038608054525 6.63880928179836 10.965338882841351 0.19673387192306116 0.8525832075990414 -0.5252388377445535
Ni 3.7333794643387286 6.292554940890001 8.57286259001328 0.7196044665457543 1.9148640463706637 -1.8139886136098242
P 3.1623474372724463 6.529443592627273 1.0364490943015063 -0.015308862442928475 -0.37829874941516783 -0.07695748849266101
Ni 7.242972139703299 3.228443949419133 12.033589354259963 -0.9314422839897892 0.39447741605755937 -0.3620100395574733
P 2.446176497706381 2.1400534927405 12.683582124411421 -0.4738221738354743 2.7810866991300105 1.6350429189081195
P 8.366814695623297 0.7943885097634169 1.3179978491100184 0.12510036674647487 0.9054404606093891 0.4986556879393864
P 8.43115878775055 5.168996809161638 8.572621288199086 -0.5768102820639421 0.060637154066082666 -0.4972675493426082
Ni 0.5463073073365636 3.4437989373573665 11.477058373480167 0.5311688300757432 0.34653714073285474 -0.6031188380514839
Ni 1.3245451105020054 0.36320602272987695 6.381318226115309 0.020198072214429732 -2.2838582305554542 0.42897930648917093
Ni 5.9971666554149055 5.485634334244135 9.24004467381088 0.47577004159046443 0.737359219426014 1.1368579999575645
Ni 7.71647419396013 7.318473000121828 9.017534123709515 0.025652924681413884 -0.691125642379771 0.23986412745363206
Ni 3.5020324968514007 3.6335282231265693 1.0197754141898774 -0.7159005353316058 -1.110963648689306 0.142559956983819
Ni 3.738838573823359 9.038587936372341 7.799287508595887 -0.41140607349209785 -0.32542349868269116 -0.6495311067674361
Ni 6.675600927232592 7.784937849379143 11.174407178647032 1.16826016841793 1.862083926455154 -1.3125941865830362
Ni 6.897405921839221 3.3860149515855964 7.9555547469677865 0.7483380870350209 -0.8670919427381776 -1.0122266024277082
Ni 0.03479700610320996 7.293232646857595 7.0284777643191125 0.28397577306086574 -1.0697208399894351 -0.9857354981157151
Ni 2.8056244511170902 3.0350905489500497 10.59774630507853 0.5365007838116179 -0.29297849078010835 1.2616621756198594
Ni 5.414032837743199 2.6820192024163454 2.684437725542646 -1.2728256484358467 -0.6856795316635351 -0.0039026774885158595
Ni 2.698258906261381 5.511498585735183 10.361848550525021 1.0437544978326605 -0.7875564091056954 1.988993064275594
Ni 4.433448324668615 4.292383100590976 11.803089236865798 1.2519115239909988 1.0195449904659926 -0.23803992976069974
Ni 0.35418427087065474 8.834288792012225 8.819947390272015 0.5706200940928302 0.48751998303754107 0.1845805243899789
Ni 8.937158599645297 3.9425688698002026 0.12960476414948416 0.975531818109836 1.1355670490602832 1.1111585383089315
Ni 4.0122069218814564 1.2897719593309973 0.5012251554648313 1.660206819768257 0.4519986502024796 -0.7310595024602313
Ni 4.897243256514121 7.612861213439234 0.13631167008774456 -0.12040501815333457 0.3815558228998848 1.942838420096402
Ni 7.020809321113644 3.581010672387031 1.339223233785219 0.40865010801351553 0.5521194641854814 0.5700626789274633
Ni 8.784881557432838 1.3261140310429664 12.292342886354922 -0.2805153253160911 1.4061041801177396 0.48044173603452106
Ni 4.604855187512092 2.299450314717789 7.729486141978791 -0.271257554163249 -0.516832101738097 -1.2503655196601173
Ni 5.158739188314887 5.249387930681526 0.9287881152854522 -0.27741843155832224 0.21688746405280065 0.8108274638184939
Ni 2.094729121557181 0.5941034164949409 11.496852462223263 1.110464083345068 -0.030596127619302145 0.2879679249393944
Ni 6.495826488170657 1.0662512446006274 8.393712966675551 0.2752975285605775 -0.5575658320120332 1.8796355621856726
Ni 7.117274996947939 6.843346975480492 4.850200412714883 0.24242006110626635 -0.6734840180386078 -0.5523691183024423
Ni 7.269047415594593 5.187034807895728 6.545024533344583 1.4495239418642714 0.12811755630624386 -0.07967565875477246
P 5.4055368118898075 3.20569918906216 -0.10849039665876087 -0.11337125123500474 -0.12295863781312372 0.6297055874010768
Ni 3.3782620986200285 4.070055132470693 8.633533022581462 0.5059956732442253 -0.7675030899992459 -0.8271022897191176
P 2.5371922390299697 7.435894316397966 6.426571949999415 -0.2527954908033195 1.0923378060580025 0.5462439792413109
Ni 4.742727520664266 5.4083535288843985 5.2792276983737345 1.3191350730253475 0.7299212750907299 -0.3044085869939209
P 0.9148797723144414 5.816144419899341 11.739223160879973 -2.088848540412351 1.0040337822042709 -0.9594788784120316
P 1.5915368516830977 4.170227497770183 4.356340008818644 -1.173915309821178 -0.4902191271362589 -0.28831888052090987
P 7.823454389911042 8.911817321667904 7.293570285897989 -0.5713004079893064 -0.14820404264347378 0.6864169240501921
Ni 6.415398666755074 7.101099517920369 2.037466274304279 0.5935761886683713 -0.38419300341241575 -0.6770681358454405
