# total energy = -340896.8912801197 ev
CRYSTAL
PRIMVEC
9.02103801543773 0.00000000000000 0.00000000000000
0.00000000000000 9.02103801543773 0.00000000000000
0.00000000000000 0.00000000000000 13.20320099609591
PRIMCOORD
 96 1
Ni 6.542597919337533 1.9008679929586745 11.631967080161957 -0.045864880852914555 0.5186354734954228 -1.5994876475113293
Ni 4.6564522601686145 0.2916438393316037 5.939314208150812 -0.9271835087134355 -0.7068253125032149 -0.8686096649342847
Ni 2.525610949010024 1.5482356229577035 4.600747351374652 1.2815447734763992 0.17148872420302724 1.41912501785744
Ni 3.2715966539181918 4.244849365667865 4.776244426137326 0.3304816299318889 0.0006916267503859056 0.1641338264998528
Ni 5.16518466932274 4.688648344295847 2.7561417673497735 -0.21746159138871582 -0.18187443831272548 -0.7000867082278007
Ni 7.353426844393232 6.463113554740998 2.653394852420122 0.2483739646968561 -1.3050706245124815 0.29985207797149005
Ni 5.148721275225739 4.318379845275896 11.698880628498673 -0.7791180485303549 0.5812366932664119 -0.3417978262756565
Ni 5.622641499272835 7.708774546790475 12.2485568221942 -0.02206520733015555 0.4411640214808209 0.48522321658356427
Ni 1.8015734292185699 6.649100292328872 0.0922337974060099 -0.09050720215263768 -0.247925821415844 0.43583309618621074
Ni 2.8311354592989177 1.8591727559634201 0.31947825165286226 0.10185990816129556 -1.249124962384797 0.16904643331012176
Ni 0.3962021786638179 0.26402051929630127 4.837837366343405 -0.3572475851718234 -0.6712594995834633 -0.5019868091951484
Ni 8.627819842031174 2.3523980010338494 1.3366922851085665 -0.12497592535346863 0.9962492531628455 0.03112397509831414
Ni 6.844135130891702 0.6645717403130859 4.718771393922535 -0.03647701188011137 -0.6050222257217839 0.6835123488088873
Ni 0.9229604256725336 7.275530182460297 2.3146395449612975 -0.3095626203910346 0.1652463428377412 0.45657187139545885
Ni 7.523879354783826 4.10368816521314 3.889306808852816 0.6500391567521062 -1.0011217507637984 -0.464707870239032
Ni 7.503085862513368 4.001551974546704 12.671719274610508 0.5071971497514942 -1.0211601574719122 0.5413647967721386
Ni 7.821293952035349 8.890350085872777 6.943537044982357 0.004151817384844463 -0.951346222002568 -0.20492283549175674
Ni 6.919650238829234 0.7146285773020443 0.6067532023482042 -0.8356877173952832 -0.3871821679477267 -1.071166571297026
Ni 1.8061110112628391 6.407201162076223 9.179301145402762 1.0981238166121603 -0.11918734369614958 -0.25052392116032335
Ni 0.1148856234759111 4.912730924772288 1.4824424875233704 -0.497887185204478 -0.4153655723604782 0.1324285249767719
Ni 6.345226631968609 1.9601452327457398 6.830834512668897 -0.3699048689245178 -0.0912340530163332 0.8654528644728579
Ni 3.406957327028055 4.363647413264253 0.5368762430740287 0.6457191892205139 0.8157845507134531 -0.43397470282123324
Ni 6.136290374061408 5.832939933897103 4.703310237131931 -0.5848583491793992 -0.49729968813212416 0.9915932424480729
Ni 5.422383479788273 2.7449214004578004 9.152815378241778 -0.566215023046599 -0.41584019800405164 -0.029773117497374532
P 0.14172681952863275 5.4252251067146045 12.396300673976366 0.5662885565970118 0.5936178405395841 0.39517701322774523
P 3.8970793350741735 6.090806301164378 12.445495099745779 1.0115725137834772 0.6059712198986145 1.1936834935870408
P 2.4056491875295194 8.596940829431702 1.1683579144078218 -0.5046638418066792 0.5978123382369058 0.8110526924554224
P 6.219148606818096 7.680664992814444 5.842812557732588 1.0201574272390108 0.11907524359831749 -0.11044816405093882
P 4.816530577018634 1.112014316133274 12.621666046036696 -0.2729053741793171 -1.4859323052899764 -0.16965629897997878
P 3.85038644310372 6.099141740148284 8.232671320589564 0.39034539616705677 0.3211156153359566 -0.25285822572045485
P 4.676812742621728 1.0522860244531402 3.867837640846541 -0.3134953797865375 -0.23660551130701832 -0.6945387818263781
P 0.16032910170256473 5.621784500676005 3.7825581615278616 0.1635041633356539 0.004191155263212136 -1.1494769742731559
Ni 1.3636020410490344 1.2901617718196177 2.593002612353392 0.3979514906490888 -0.4631958044698796 -1.045941221071334
Ni 1.7793546129660145 6.5713299249259975 4.858210478249524 0.8577382694374196 0.039590617808428596 -0.32986765049697386
Ni 5.900904433144668 5.540333549825691 9.24440597564827 -0.03598747383820254 0.04688355192541603 -0.13120545120294824
Ni 8.824974624491425 2.2966840712020256 10.17146826723637 -0.3211837495697307 0.6208147126693502 0.6247297314530402
Ni 2.4939831902680587 5.085628136423314 6.884465484858531 -1.0713874290585805 0.44124038324471104 0.7264322881008651
Ni 0.5465657398409267 0.13731192359927805 9.122065366483724 0.8303519070046667 -0.869951780784476 0.5314004864705751
Ni 1.574035791241223 1.0198553933415135 11.408318411606647 -0.10697151835624803 0.09838351957692089 -0.2435276923481483
Ni 3.9499335959039428 6.94397997794135 1.4510050726802806 0.3190656747854634 -0.19280574051324859 0.17818387683501571
Ni 5.493063311432111 7.691192543998664 7.989956688514248 -0.1893596909461771 0.5108992811934299 0.21798455377172135
Ni 5.259535704314814 3.014388822414797 4.675134829579513 0.3206559020907187 -0.17696465971593395 0.4707332504975054
Ni 0.8175739550646455 7.378676729367208 7.065732415437336 -0.4086035710462963 0.047763640537524195 -0.41722910793177825
Ni 4.896312635864594 4.580404910997261 7.03821734785637 1.5434586816412192 0.578931699282319 -0.14344055981655943
Ni 8.287519230786696 7.156705071750326 8.99759849869525 -0.8331376972799199 0.33579892837974423 0.8047730300942978
Ni 4.6612243891972795 0.24957422926510262 10.26631996982975 -0.14537865737953673 -0.6316447134053186 0.1592358749776032
Ni 8.274583062493491 7.183560701463626 4.991231996241933 -0.4637066826680272 0.16666250645897748 0.10057847034571066
Ni 7.21781358222325 5.985431557905709 7.215390531453686 -0.04921040028637977 -0.6542004872186475 -1.5143882466378242
Ni 2.306417771054444 5.165202711398463 2.7681036635539504 -0.01213072182526298 1.0240050831198753 -0.9931829555326959
Ni 2.3634938776033354 5.150687861479518 11.354079421465158 -0.8197936718728461 -0.44394209844659027 -0.3224024524681802
Ni 1.062191124024925 3.467127649563396 3.833298793186712 -1.1430294188755992 -0.4201637650800699 0.04498042136543221
Ni 3.7810236829876422 2.699753063885919 2.6572892344648755 -0.6119804022071719 -0.022753491646431784 -0.32122591566157577
Ni 1.2106954492988053 3.2453905389309106 8.20630463112835 -0.8815932216781462 0.6397544869966466 0.37485192851714794
Ni 3.7346826114937826 2.6959912910977275 6.959512400931057 -0.6331886608536709 -1.652333330557451 -0.18248276132068572
Ni 4.14555480192776 6.737894367998342 5.9114951315939175 -0.3957526832255571 0.6191661213223337 0.24677036765516208
Ni 0.5640223502064646 7.163425744957047 11.133823565249509 0.5894739935745396 0.6467777123920152 0.27655351245486565
P 0.24996032968556925 5.435915036580329 7.989903464390865 -0.29684671548626296 -0.32597937118616116 -0.3309907083578235
P 8.383097126927916 1.5818840941806154 8.062072669385614 0.6241373492846799 1.4552914404756678 -0.5383329519243503
P 1.9272004024760148 3.1789145109304715 10.528152887444667 -0.3051549782416422 -0.9082879573605132 -1.1932003833030354
P 3.926803654827389 6.144228887379414 3.786242353390445 0.2268828847026157 1.1017094770808897 -0.0142793927371496
P 6.799336656872136 3.949220933912894 10.456472622702005 1.1226174308781505 -0.5645931711724599 -0.4758181212195805
P 6.395906822673788 7.758606759936685 10.108450003048196 0.006908039973742942 -1.083580628690663 0.48015660069393434
P 2.2277904050547397 8.524032801436107 5.686248837233359 0.8567044288562666 0.09828067545046945 0.3978111084164826
P 6.88473882230573 3.9064882775635823 1.6952253159746598 0.4270957163132128 0.21287037247360757 -0.6617839559928603
Ni 5.27109165381523 2.8776479305121443 0.49730636259891337 0.5063880235866376 0.4162844846303218 0.8480701502200363
Ni 1.356060453396929 1.1329611660473764 6.957637829263464 0.5054333729828521 -0.4444642894986474 0.2569964162585445
Ni 6.8548070186817025 0.6986315708624762 9.273584522610873 -0.12233205997271836 -0.22958485701481107 -0.1935171647579764
Ni 2.8812292825431083 1.4996934182256692 9.068129483214376 -0.6154395644003658 0.05389880690098459 0.27334040483420663
Ni 6.371928904038265 1.854950910244299 2.6991035491599003 0.5967882678477656 1.1116272504152338 -0.6589436583305877
Ni 4.082073758497297 6.74058263728103 10.339901869353591 0.301597599907687 0.7170459617899586 0.04531132234228971
Ni 8.12791902894333 7.049706541676612 0.41597899996730037 0.21597729353370546 0.26145676602274326 -0.6851038616657233
Ni 7.52995953430239 3.679870785448095 8.372677828198032 0.798866691912192 0.19993695224139116 -0.8033563522524293
Ni 3.279914050826375 8.361834540688665 12.301923477974496 0.13475408778615502 0.49994998127077767 0.5446709783272362
Ni 9.076697664975105 4.9107914016320935 10.109717458867717 -0.014569927394374906 -1.2550654962389483 0.31347763917472465
Ni 8.580287993539613 2.3702776980750855 5.898001463160879 -0.32081325360418944 0.6808191182474403 -0.20522725410605303
Ni 3.896998145733421 2.4014183207725366 11.140253761037094 -0.5111029125638037 0.26802182083477066 0.2720651376662088
Ni 1.0753437972268032 3.369303514994695 12.571969148458406 -0.6704534587424003 -0.030290680563741384 0.1160922497105936
Ni 2.919839324589774 8.328483763715179 7.879908145539603 0.7578519400627269 -0.21764336838221873 -0.025217122695575925
Ni 5.483789684510621 7.874978148348364 3.5360546935507693 -0.5050518212737173 0.5244446239780323 0.10326115938419635
Ni 2.9173314760643128 8.455987112847788 3.4310236518346193 0.4974665527272916 -0.5401975159369148 0.019718047254217656
Ni 3.4227892484747606 4.115632019341596 9.159285266595953 0.011216951761741973 0.36911065515799657 0.32838232420069896
Ni 7.2676097112180145 6.008570520020125 11.337086492445694 -0.5099235475437218 0.6259502341237027 -0.07467332044417463
Ni 0.4000099587451023 0.1631779454591855 0.38837372200772063 1.0549858477721057 -1.1199367987221938 0.62237408673667
Ni 4.5898499376381166 0.40861693096863594 1.6376719965229025 -0.41517711049875594 -0.3062268711495823 -0.4651336449225409
Ni 5.881157381266129 5.635685920020378 0.3885595553876649 0.05184809501954296 0.2913440405004789 0.8648982775209686
Ni 7.852037649066899 8.645916043981083 11.58646857360435 -0.0391005655458875 0.34732929761684694 -0.3325176865253112
Ni 9.30204319075214 4.762485539191164 5.8804681739735205 -0.9904177340827329 0.16670801498493223 0.21874380053524906
Ni 8.041010350186887 -0.18348339958134427 2.5287168923456935 0.11800977844828064 0.2797769044881698 0.6262489963110441
P 8.449104060959563 1.8180548653912936 3.6388809936136 -0.17820753098409955 -0.10975653730055292 -0.3316262850592934
P 1.8589562510547473 3.402564081589568 1.5880147915112028 -1.236800122270857 -1.3671763927042906 0.4437551792467648
P 4.6903082152623385 0.8156605929342489 7.976224864681669 0.2900854855030294 1.4655354868011792 1.7551121509885903
P 8.558646523710186 1.582732071739584 12.336542612871291 -0.11968176683406487 0.9409098571605924 -0.09733630925932914
P 6.2331943627682485 7.7568747206673025 1.3493542138507861 -0.2940562972253194 0.055881384548652144 0.13121702116717404
P 1.797315499348003 3.1204221014373457 6.0308921761043 -0.10036378323174329 -0.2530034930490675 -0.5273276019527822
P 6.746320017360862 3.952910538398195 6.032899357028455 0.8169364049297092 0.8587420281115856 0.07401408959362092
P 2.4115309042151325 8.269450091950372 10.260286699708066 -0.576638018152136 1.1212439475693916 -0.4648027439456834
