# total energy = -381165.8232551182 ev
CRYSTAL
PRIMVEC
9.34979611045284 0.00000000000000 0.00000000000000
0.00000000000000 9.34979611045284 0.00000000000000
0.00000000000000 0.00000000000000 13.68437169953048
PRIMCOORD
 96 1
Ni 4.882585061037232 1.5368259818937668 5.612535795844209 0.8441016524905914 -0.9266610605510621 -0.8088636552239038
Ni 0.8065573540200234 0.6425497760179967 11.650299382489234 -1.3913180229475006 0.5908132812112534 1.4390217567813668
Ni 8.422576803974948 3.4589757598926987 3.950815237895584 -0.32101842763646 -0.9695056665204143 -0.6542886760570796
Ni 3.031568531625316 8.071996850108132 1.0538445006983657 -0.4269910724145485 -0.5807281290611096 -0.12826488051738555
Ni 1.5644172301298715 4.760149481351772 13.072009740049644 -0.9414713860910173 0.223752309493434 1.696705428914923
Ni 4.34885195173258 8.264462402443005 6.119377021659643 -0.3551225684090207 1.3728407900789195 -1.7909152767301286
Ni 2.055103878275925 8.779168676722081 5.115381893748676 -1.775122532672246 -0.9862260645988886 0.9738590583931034
Ni 5.703450408000566 6.1480145120772525 12.370534744188067 1.0827018256301353 0.21191752164203503 -0.03627055229626011
Ni 1.0960859444143591 8.449018027293045 2.793226334858014 -0.47340976888840397 0.045767950263734085 -0.21389984217938643
Ni 3.314680356969011 3.5354290424500103 9.531124156606548 0.045554548701347355 0.5322733759938317 -0.24637313221674345
Ni 7.273870207214673 1.256453646801911 5.973830616020268 -0.1017056419716184 2.185400406097172 0.3564456580958184
Ni 5.228424668290796 8.597782632743623 1.8922753095597582 -0.3820456180521098 1.4764626752366443 0.44420255119682855
Ni 4.538998754639275 2.7224175241950217 3.4285234740556967 0.930693321638907 0.21703144582983266 -0.1783448278929122
Ni 3.5537826921577276 3.4144707305454074 5.960406178806646 -0.2938686066945455 1.4244906530447274 -0.37078521464694203
Ni 4.519999969001944 2.2866983272113064 7.951728553154331 0.838280417823124 -0.7943526060919223 0.2145639581259466
Ni 7.411779699414789 3.5311842350290714 6.035519635585499 -0.7100276214905965 0.06037952952932183 0.8461191971412525
Ni 5.584249857759259 6.389435596694146 1.3817109949447253 0.03890413326436525 -0.2219309400139791 -0.6484576711975993
Ni 3.1562387125742206 1.1523623670280878 2.0124370188382295 -0.22552868466756643 -1.5082566798187895 -0.09999045905272456
Ni -0.019308263887624372 7.71089837564978 12.522349253120387 2.0576872843181984 -0.5636524045257454 0.7446644948381757
Ni 7.7607421385595305 4.998531882242224 8.005890986874064 0.12502426209290082 -0.7136243377029194 0.8754125467887311
Ni 4.689736167063022 5.283962457014098 3.3058840688156645 0.14292402519145708 -1.3331452712615104 0.2103128961590765
Ni 7.093372393863945 8.482864289107582 5.5411716072939825 -2.2827158894208943 -2.0438596344064868 -0.06526282576355212
Ni 3.7567667650841354 -0.1156251882197935 8.33044297840958 0.25004492464137584 -0.7904900378127224 0.44244700195830255
Ni 0.9104990370565447 5.9347830626456695 8.166230639873373 -1.5219192649075468 0.3999294403110661 0.08784173950533258
P 5.0694033365389615 4.587814039980075 0.3094567457621545 0.20802152902173854 -0.8402791934207078 0.8260705060204936
Ni -0.09448249434100556 3.4471295682576106 12.02568902025795 1.0993165513686811 -0.5033500080912622 0.17118481980936323
P 5.425883011733119 4.038242376113592 5.020576831442863 0.7343510287273095 0.015228386913980225 0.15591298125195727
Ni 2.26821378035845 2.8027977211065065 11.486374082692723 0.07387319314038246 -0.14322227315816624 0.7390594899465723
P 6.4634018334938155 8.08187023477005 8.766249128496852 0.9236009335684997 -2.1710073706002935 2.6712620275956835
P 7.0742427110814745 1.3942322418568878 1.8000152617472929 0.2019544968920522 0.1684674208782002 0.08500298450495683
P 1.41618556305593 1.9402042342320454 13.390869575730825 0.4001695813463302 0.19356987237278275 0.4475416428723905
Ni 5.209986870418348 4.639911103745434 7.697910573913157 0.6858993609838252 -0.4265020485932719 0.04317113607083533
Ni 3.972447861089036 1.0478596962266846 10.573804065804158 -0.15514884939242313 0.6151521150669341 0.34129851804173483
Ni 6.625873239999674 5.779987838722611 5.797534601028505 0.3439313276788915 0.983727723657067 -0.2778364929323473
Ni 2.5950452521786027 1.4284992444950861 4.4667566202370095 -0.7906041947930835 3.2883733232715175 -1.5523189602453267
Ni 5.8398452332355015 0.9643099184436178 12.013454812085486 -0.3621681624018924 0.3279490933180223 -1.0813599668902603
Ni 7.900689886305384 8.556737027946436 2.18399829709439 0.25976935101799137 0.2020483421574391 -0.23543514514800098
Ni 2.9822016083157146 7.809202131649239 11.593126314431304 0.05958865819691028 -1.0170723605557839 0.44167489967896834
Ni 5.353926981090944 8.312585802873784 13.313716928426627 -1.3870546196854563 0.41597389536843843 -1.1530690624997884
Ni 6.4892820690470305 0.8493139715001 9.650013358638347 0.3532150669736626 -1.4579545891301275 -0.3614652227975968
Ni 7.507699257413501 0.479927837795228 13.574062000312201 0.9302042978176301 0.080510495951242 -0.12277069017203372
Ni 0.42669290384676695 7.33397069642568 10.107249241344105 -0.8528200062001957 -0.16656763275232603 0.6006271819778818
Ni 1.9599042545754788 5.400330019042752 10.874381310227841 -0.8944317682037111 -0.4366676762723641 -0.3187975087257413
Ni 8.806357883726687 0.12171377542797761 9.636712338732998 0.3882908276308732 0.11799820848405486 0.23204437429889713
Ni 8.211374260293022 7.263295587846651 7.734899302190641 -0.12242719078968593 1.093746256369755 -0.38986588542747697
Ni 2.2025595122751134 1.4229735150110001 9.122823236631431 -1.2435914341610776 1.3943683797380502 -1.2520969005289275
Ni 1.984138926018374 6.723681456806821 5.992044018786765 -0.4820309348985118 -0.8806660818781865 -0.016241401559526865
Ni 2.798964304713147 1.367613372413245 6.720176218255917 -1.2474303482911937 -1.9482266809915092 0.7050052285753408
Ni 6.666096062741701 4.40562391353862 2.434764502894607 -0.345985639104759 -2.182709746638886 -1.5480483578944306
Ni 0.2542518097793501 4.549498575638647 6.438387389057735 0.3607381148235852 0.10645472662082955 -1.3278341434612422
Ni 6.336384853728489 0.38419808065696853 3.638591887472954 -1.1474586582915463 0.8044310733738468 0.5205807701472519
Ni 6.729076289145767 3.3618126790151663 13.29383365208 0.8259437506346421 -0.34933732918581123 2.5625930669323544
Ni 8.592126006114398 0.7240612982553262 4.182764979082057 0.4427177391211859 -1.523993373827756 -1.1744596123604225
Ni 7.650339746430786 6.198344464383233 3.1328866618814066 -1.4091401387305862 2.643497455887905 -0.5848902308585991
Ni 3.0350373059715015 3.3703770922256955 1.1693846057738186 0.7509361867795004 -0.007207830602348877 -2.912099317595862
Ni 2.4592114147085495 5.025347097403576 4.262982489541726 -1.9100051756164653 -0.9570751540665452 0.24294379482022033
P -0.14607466911797098 5.361640562858068 3.964800662874088 3.1668221073288816 -0.061286357614307355 1.670348021967317
Ni 3.661342746277737 5.68380648643362 12.860176085132224 -2.2643371298033905 0.2274662680099115 0.3739139900839109
P 9.203565270651266 5.167202203550027 9.844303991168301 -0.7001669266464328 -1.0416292239595415 1.2003115404265199
Ni 8.244622135158352 5.3446332837860675 0.6169051553260321 0.5227996321754416 -0.6113150007090311 1.482126301280325
P 9.027938701058927 0.0075097562125514 6.255482003216055 1.246585483792395 0.17635787936987046 0.6128270664781833
P 3.9102623673518853 9.27598879109751 4.1404122727926955 2.645854900376489 -1.4334563468784476 -1.3940426209675152
P 1.6894520531259496 3.059533771704675 7.288706463636581 -0.754858661762358 0.9684880238891771 0.9049516938984287
Ni 3.129853588032612 0.32013421288707195 12.962452569486654 -0.006879757838968797 1.55162604794336 0.4933126784599181
Ni 7.217977126240281 3.756720016103729 11.224591947149444 -0.48102280534897157 0.026923049643089118 -2.358316606775345
Ni 2.8945846692372545 5.226900651529534 7.559534526888581 0.7454918758354774 -1.2933055135567533 0.04277955705937149
Ni 4.1715798180299215 6.073057196892958 5.470013114257548 0.6897837836398959 -1.0928653964266986 1.2863779331989846
Ni 5.69895315608543 2.848078783528551 9.90257285532697 -2.469130124585502 1.5171658093829614 0.965442295084318
Ni 4.252231159027765 5.526337220831291 10.391679387935271 -1.0780327022892402 -0.10546768011721191 0.04003850397912459
Ni 0.2941978785573688 2.6438605375194033 9.806576629000391 -0.20248722946707065 1.1910992777996325 0.7428336122770239
Ni 0.7267194452812579 4.429447193953935 1.9336425473421441 -0.4561612662206015 -0.14628882789863193 1.132556030148101
Ni 4.710576862528383 6.961876861775645 7.887412240890238 0.42480666316872 -0.5554955797465659 1.320475646213642
Ni 7.905196488016601 5.648884998069727 12.16087678681878 1.6188087164374443 0.650890191898492 -1.932681791278375
Ni 7.390480863941442 7.420970548962769 -0.008907550726715287 0.13248714612884924 0.08747638574611385 1.3637552828378836
Ni 2.5851531679245197 7.106723902668133 9.225852379570412 1.979667930219926 0.38109199588958886 -0.06817794252781807
Ni 3.090883637965488 7.188684215117368 3.4605727050633956 0.5388785400151752 1.6603716274808953 1.0248890283867254
Ni 0.4923153826234269 1.773039230093342 2.5587315791781937 1.142127218776304 0.22645633868815837 -0.12259739781896303
Ni 5.5337329095316505 7.291999461816437 3.788053052731595 0.6920437833186663 1.3383844081732628 1.0902786095361288
Ni 8.841026927596385 1.7435219238644766 7.859920100492596 -0.28020036517883357 0.1882572019106177 -1.3616338656195066
Ni 2.767305895181649 5.559734692433923 1.9889278915712483 0.27664504372740745 0.43772517100260094 -2.384044093448436
Ni 6.26194177732867 6.2108451417440165 10.099257970633362 2.5803624751006335 -0.11142621169349196 -1.5136184583513352
Ni 4.8830432010452185 3.4529918904006256 12.034884544703973 -1.9104299218587102 0.1574276181242708 -0.6136392779668335
Ni 1.1698838848845636 8.381129157946262 7.6810379319047275 -0.30734350125252874 1.070654664657614 -0.24228790640377623
Ni 0.5387717144128992 2.18512214258337 5.382638334897595 0.36291583920119436 0.2705350741749276 1.30811506776576
Ni 0.6832400885640919 9.233886659343128 0.5638852666874423 0.2298820765402557 0.666734100909284 -0.04864707158374203
Ni 9.003647930839545 7.500069823811107 5.108895940207034 1.8244648305507998 -1.822699768230577 -0.9518840967839091
Ni 7.429273167883021 7.95887366731971 11.361175638265223 -1.0311977442135725 1.002075115816003 -0.8396258761074249
Ni 8.858024856872303 2.775851608800016 0.57833537653119 -0.0663311191270664 -0.5787650917974677 0.9294692194238185
P 1.2306949585977536 6.689732347235388 0.8696292084256873 -0.343648249220834 0.13683565290553207 -0.5266799410664542
Ni 5.21850453464847 1.4263020424159656 0.48324888536332844 -0.10777858763857567 0.15934848929606749 0.9706636913842573
P 6.867481320538196 2.918707143127173 8.271422390645972 0.9457445595450745 -0.22802265473401376 -2.1647637036834264
Ni 5.953258259702444 0.05885135645453628 7.421130430475761 -0.8991559131522578 1.7397382396356813 -1.4089066825635415
P 1.937165550505602 9.06065363754762 10.237250676018602 0.825173705237837 -1.5945680987225248 -1.3222980441343615
P 2.451105141506007 3.1050766284169975 3.0877823106052995 -1.6612645716088097 0.3191425507699859 0.8105505560080234
P 7.847639143339725 1.5461477285868865 11.308846699557044 0.641110743914225 0.032198181999099386 -0.004726716051707988
Ni 5.039044548662773 8.278982635757362 10.476741027744696 -0.057905871177848664 -0.2561618361723911 -0.07470983010906489
