# total energy = -340859.2730669876 ev
CRYSTAL
PRIMVEC
9.40334478205397 0.00000000000000 0.00000000000000

0.00000000000000 9.40334478205397 0.00000000000000

0.00000000000000 0.00000000000000 13.76274559319539

PRIMCOORD
 96 1
Ni 4.5586380162876 2.686319269989609 4.580008057183361 1.0186217073207746 -0.42650539102738155 0.8644005119489436
Ni 3.969330411369287 1.9932363542706182 7.490855687416101 -0.5872551315463499 0.4559000421394149 -0.8906753864850725
Ni 1.7478936907964886 1.144415245593959 7.250351985063576 -0.4752969586087879 1.1806217753070765 -1.5000265785995133
Ni 0.840298857482508 5.998017374711901 12.834048594173023 0.576292204776943 -0.09056428064281821 3.084273240791372
Ni 9.403814748660581 0.16636585300360254 6.061553893379718 0.3339577614059474 1.226892890459474 0.7647311836810635
Ni 0.2609051987563986 8.137823660973293 1.0228647925310008 0.27553201316888676 0.15265487932597582 1.1763180057254
Ni 1.6500612937712753 8.191554371911593 6.740111462723771 1.7150767323332592 -2.038786333648637 -0.5816825225545789
Ni 4.820003978928488 0.6387861234368889 9.433164467768142 1.4274237675311223 -0.8195069938703629 0.45331839745516767
Ni -0.12311893093914088 3.093549913777663 1.203444741203895 0.9799813692407573 1.7385043672285803 -0.3153046650811344
Ni 8.727836516735213 6.64851254282159 6.167292622529 2.2551528922009614 -2.221189390771323 -0.5053323286286135
Ni 1.1396759599249173 5.33731017438678 1.612084946344706 0.8518203612910878 0.7518941798173954 -0.5132523548066386
Ni 4.734010392731297 7.746860803311115 9.596390544016007 1.5815089515457215 -0.7236171872495731 0.795189757281237
Ni 7.949324215493917 1.4805754110355538 2.0272106382433304 -0.3988104962152745 -3.208633644048029 -1.2608191108932738
Ni 8.625810228026682 1.1876424206347995 8.151742491622727 -0.7356802890616942 1.7123320797085864 -0.08053132188684842
Ni 3.593544551861539 8.944047618696068 11.34292451118602 -0.41071958894803456 0.6067582345762841 0.49874310544687006
Ni 1.065098034049584 4.635830071956571 9.405514873360902 1.4032052613033899 0.6823751498806505 -0.5597710671934681
Ni 0.6642663662491939 9.004511124354673 8.646086659947622 -0.12744804104304502 -1.933752141524418 1.7582668945674877
Ni 3.3570786456722814 0.4745407246363992 0.8905117772128941 -0.632887070452852 -0.3478242349753945 0.22196205036223063
Ni 1.2920477555224334 5.2611242765880215 5.998052167086853 -0.3908791571833397 -0.33158926117377086 1.6556107157571422
Ni 5.96857550282744 5.114789428211784 13.2472343760845 1.0652728315204105 0.9501210913462154 -0.26782101767787425
Ni 7.120870751180638 1.99436475562039 10.145331471315151 -0.5210397120615413 -1.107040659485816 -0.09030948431953478
Ni 8.527770957420676 3.8813339127762507 10.216278765847592 -0.3921135438110731 -0.23062615379513182 0.2434960677792645
Ni 7.815787319093008 8.411949962211184 5.3545888200551595 -3.498797033976845 -0.4677798242961363 -2.6589952944131885
Ni 6.3531628928634065 9.226683946780154 11.777607279145105 -1.062080292725042 0.675875658199236 0.09580213200298984
P 3.4936058056500854 8.849243098626074 7.8537382774892075 0.05660643564013477 0.26153107090410443 0.3880913100255574
P 1.416942978253007 8.745514804548304 10.760292340586066 0.6604891484408367 -0.26827687426837027 -0.3132480396624218
P 3.3597115821550823 3.975245115111007 5.936215773119359 -0.6259546049990768 -0.7895754964182531 -0.09150453306890048
P 5.127813060457067 0.9791608679198814 2.614425998992274 0.5092375772202908 0.12619205714875686 -2.455193459899752
P 7.920070410501084 5.706664146200827 11.353108333367711 -0.4587999893950292 -0.6986864854461645 0.2691613337558526
P 6.346213821217729 3.9408852940104566 8.480809714246549 0.4404168589021512 -0.00022677129882541592 2.5936769328213525
P 5.391567472621639 1.85668098425907 12.348252066072652 -0.5376819486039127 0.5373811295340423 -0.588768997087715
P 1.103886830447989 2.4981207315368383 8.817956290534736 -0.734832082128786 0.26942718582272956 0.7460240941898635
Ni 9.284928263117541 3.014533609259894 12.524689841457425 0.26210339846780667 1.047592640631828 -1.4901795106021045
Ni 1.4069566263075266 6.9295314956376695 4.532801386715658 -0.529822600460494 0.16116831611362564 -1.4302537807807498
Ni 5.196927643130589 9.298685356240176 4.411896003090986 -0.4062432983442359 -0.7994436474615845 0.9331042450732446
Ni 5.28784858188845 6.010655469829346 8.219414601237457 -1.8234402459410275 -0.7367961478336924 0.7174678798187256
Ni 8.63776187898968 7.798014997834103 12.556743022132151 -0.9317955535641501 0.13770134333993705 1.1985045691247682
Ni 4.346677226077552 2.835945288969347 0.4953738345565607 0.6084939863204681 -0.6971314822542187 0.20976859361983227
Ni 0.5158825290886628 6.71624483384164 10.827660722170814 -0.3649051017170812 0.667052146370335 -2.925749561389445
Ni 7.859926618558247 7.999105521708016 7.613619171930064 0.6429580815356088 1.2637352560988042 2.3170020642972737
Ni 8.296072546934203 4.4666733062812 5.3790036639263885 0.3545841794070474 -1.240810786092147 -0.6590009939310844
Ni 6.972721057300185 3.458775817320463 11.955793136287568 -0.5094149833384194 0.47341593953599115 0.6451833713217018
Ni 0.5754743447045687 1.2905902371123117 4.1663549290461885 0.11565207684938147 -0.07310443329515798 -1.3754735997160763
Ni 6.224243038651981 4.640653987726845 4.070841396794757 -1.9976587103703918 1.1242991894559478 1.047860035360602
Ni 2.9282391160360977 6.432959674981435 11.621413964309696 0.6212962802914591 -0.0859882312363616 -0.02737479246852705
Ni 3.5175373176098286 6.047018203325741 6.190771833614375 0.925489151730148 1.8670404991294813 -0.19829684553480686
Ni 1.4414104808538917 3.078137832008697 5.397170925657715 0.4366383656963254 -0.689198086339755 -0.3558800154003355
Ni 2.8734176171263517 0.9572604783897275 5.12307189411911 0.3661538865225178 -0.09891033861466837 0.1674420649374794
Ni 5.575590926080254 8.362337916199552 7.156586534569831 -0.8236382424299171 0.9732311950011174 0.04398694710391134
Ni 5.428588440238736 4.209886772451468 6.647887220406924 -0.39382641273712177 -1.5921021536805355 -1.5415727774724162
Ni 7.3973102751855615 6.019692083972101 9.059988036381743 1.0577803797981074 -1.220007990414183 -0.2452829844763582
Ni 1.900115032880702 3.053472859171602 0.03784470060242925 1.1845020841980891 0.13320037014578998 -0.22380835954235007
Ni 7.625388398008182 3.479228091785077 2.7501266049813706 0.4978787005640458 1.4726975517672574 2.4121696480400585
Ni 5.591341528254152 0.353364524687782 0.25409153527269335 -0.16377927137391146 1.4886070239086622 1.1136633070086561
Ni 7.5544025497629566 1.1030969495031486 4.2507339609787484 -1.2322706098316196 0.6804421945239959 0.6133250891605244
Ni 3.2962672162641637 4.448929195056038 8.123446887442741 -0.02651810089518659 -0.14067122460153836 0.30006547953387674
P 0.15265765727279168 1.2117431927970084 13.604487183756703 1.5715955490867515 -1.674909158975438 0.5210826494843348
P 6.782265716147871 9.117906056662154 9.161433198395143 0.18856342029712686 1.506033961135858 -0.6489397530403405
P 1.529783113230185 4.350400950531799 11.720670027704537 1.4609198424060388 -0.8205593463942772 -0.7323468538130871
P 9.263808351187645 8.214893473162705 3.493742154146516 0.4172514765292814 0.47329355502551396 0.04002102047762785
P 7.420715199848744 3.8923170192473626 0.7435422030774104 -0.653903524803519 1.1306117619375367 -3.039231112950069
P 5.101436678906152 7.332248534026637 11.851402846751263 -0.3962298799722918 -0.8257264924175134 -0.4940631834726975
P 5.554696694420313 3.9869710858040524 2.118416498342009 -2.104328124105189 0.6894629099653675 0.12566678077290616
P 8.76920182954893 2.2880029968647517 5.6027308592111815 -0.44730304449902325 0.6760862315481453 1.4366015773756484
Ni 2.580409399968946 7.162019787068982 9.088957860368218 -1.6339394014312956 -0.4425776139988959 -0.5114878067070481
Ni 3.2317602724355434 1.9358195322563974 2.8075170976307633 -0.799218675934972 0.13619699088026865 -0.19312018642987386
Ni 4.576814681363507 7.545723262714295 0.28449348863891954 -0.7426605770342695 0.08881927292725349 -0.861494136935426
Ni 4.140095148968083 5.287792161820962 0.7370379096304341 -1.4496609816627677 -0.8069499831409587 1.3032114598165556
Ni 1.0776138856874695 1.255901298951411 1.8357434972140543 0.6102186823210588 -0.4451988536718268 -0.5225507493894291
Ni 1.9488901812245871 9.078722319791328 3.3448016389867643 0.05217153979723273 -1.3607987713127208 -1.2366576831557219
Ni 0.3380840897429559 1.2652200134316094 10.740046939702243 -3.494177790037279 -1.1054100658609285 -1.5753617009974028
Ni 2.1386402715332937 2.0426509300460407 11.339263789140468 3.027512281851244 2.1999780468010304 1.9043150672102234
Ni 7.974280692013036 6.1823699452308665 3.739324602907472 -0.24777284077774747 2.1459679111331624 -0.19955720030446922
Ni 7.45168981689998 7.71392088724236 10.537734921367203 0.19275406133970674 -0.3776163786361626 -0.108223131375162
Ni 6.166196192550804 1.704845179302695 7.951838669834992 1.4876544301874055 0.7386959359595665 -1.3792546640250634
Ni 8.537898359534879 5.896226169617906 0.7615364432684376 -2.1187067614243644 -0.022387366556264672 -0.10019409042309842
Ni 3.5238751718577133 6.990568605315741 2.781726544447271 0.15193445622018348 0.11088062360266711 0.11078189324127373
Ni 8.366503597849126 4.2983158248952495 7.710495248811345 0.47971359961924487 -0.5223800281395197 -0.17360628476666232
Ni 2.652448422807293 0.9566586643365158 9.289329968716109 -1.184253972743025 -0.24939674953441562 1.792391347055023
Ni 7.537721016475497 1.5190915104410971 13.13930654831666 -0.12472704256745616 0.041548255755431675 0.16800565075043325
Ni 7.278273336129219 8.578981572011152 2.7272670743039105 -0.30964283880966675 -0.020574995937874242 -0.5154542475539639
Ni 3.5843480808608996 4.570241743501086 3.621446155903563 -0.6396380160234404 0.48745493412756047 -0.5330161676971272
Ni 5.595554226626634 4.896819900814203 10.63590489846289 0.08542233143056256 0.74870009836013 -0.8743578802719716
Ni 6.129993315912293 6.5843065060195745 1.9368999765488037 -0.010926417104516665 -1.4836828471341672 -0.975987417590016
Ni 3.8224501690073267 4.039780268973372 12.09903616496543 -0.384871260426363 -0.15821437569162428 0.6712438158541795
Ni 1.585225232882305 8.899889512541664 12.908904859047968 -0.24606639960960203 0.38800337829744147 0.3589493983542786
Ni 6.454549754140401 6.224901272772681 6.389932791180179 0.7269557647045028 0.9437318999904198 -2.492370326060366
Ni 4.278502977862173 2.6792103414860464 10.184307394270723 0.5013859423863559 0.7033247555491242 0.22822577188375534
P 1.8032041636244687 3.5524895494190094 2.4403409404217746 0.8106832249311458 -1.8109940497578747 0.0844262860658804
P 0.5618357337236605 6.4384324215278275 7.9178314741562446 0.4205368321487725 -0.11220654150294224 0.8901601374115509
P 5.883390604264251 1.4460087163542115 5.748257960287874 0.3438097144993627 0.26763924068437134 1.408178289037949
P 3.160652180710758 8.146277267752 4.9329118179866525 0.3480075546307942 -0.3299833501392317 -0.10890061705816084
P 2.4268151695758435 6.809403768609882 0.7770651265102138 0.49018827389832353 1.493113653529764 -0.6792952254037462
P 6.837444542151712 8.061402679559999 0.2833349965864872 1.3327210392398983 -0.8257018098271651 0.6355453340113054
P 0.18978018101136698 4.89694214429376 3.509610298127682 0.14635130570545118 -0.6692147012392926 1.508613548937576
P 5.664358498928968 7.186261609399913 3.9125699428068494 0.7111398807181688 -0.6453597489985661 0.585551775701998
