# total energy = -340855.25590453815 ev
CRYSTAL
PRIMVEC
9.37534548747553 0.00000000000000 0.00000000000000

0.00000000000000 9.37534548747553 0.00000000000000

0.00000000000000 0.00000000000000 13.72176579535992

PRIMCOORD
 96 1
Ni 7.88823739221485 8.815843430172837 1.3207780181546354 -0.463040509838938 -0.09657989070927883 2.1138936563064368
Ni 6.359090450006245 5.552745127979454 4.144632018346122 -1.0618293530565004 -2.9653275807923833 1.818436622078849
Ni 1.9856512548823235 0.5511334227850484 9.009573690096998 -1.934653056072133 0.48034737654850174 -1.3685737872724495
Ni 7.360077315519009 4.589081512050894 13.166088958593328 1.0088322320341787 0.14772324635231332 0.7019576999982684
Ni 4.229190132551059 0.6201322139530738 9.426619987064852 1.2762087059754665 -0.2907709416058283 0.2503398301739753
Ni 0.19891013819476305 6.688586960088349 1.286880519737994 -1.071749954604322 0.3689358201430291 0.7554746980798022
Ni 0.4084950445323482 7.417932571279904 10.268340361925382 1.7640179381186523 -0.7785966288092462 -0.48996741613676903
Ni 1.868956332105486 5.203701022975706 7.0643076725693374 -1.498859811984922 0.14622814986402558 -2.188152257810696
Ni 5.7528243717314025 1.250408551505773 1.9550501278682961 1.1526967667620343 0.9583007989435302 1.2922567605772648
Ni 8.902677878213254 4.336490959351163 11.203725123867297 1.0726554971377267 1.0656759804961 -0.006883871604026854
Ni 8.891446214560434 7.18439272020165 5.576306308218104 -1.0404398316371308 0.8831844774246661 -1.0182463262592272
Ni 6.126835021232195 3.308296841817962 8.145514680023132 -0.8335213058715838 -0.009016858786629632 -0.38191012091551
Ni 4.7512749855014675 8.1904703982048 1.3419259845166271 0.941800487295662 -0.7697242660202808 0.87581441021284
Ni 7.343042313134055 2.8056752056816214 4.310624381706647 2.3469831840403965 -0.9019782130924014 1.254931027543613
Ni 5.7533493910674265 1.013671707684939 6.687178783226368 1.9663228763715879 -0.0855683700901236 1.586930379671609
Ni 6.052666664673381 8.500963083391857 10.968507085982822 0.47893044159631715 0.2133275146156842 -0.24133248446904243
Ni 0.5884932362158687 2.493073067805178 1.360656049329318 0.5246891358886706 0.36843728324005576 0.43408654580874917
Ni 1.7223634332110833 8.28574265700276 3.91188344641002 -2.2047870381538996 -0.03000503100252252 -0.24257407018562738
Ni 3.3657677084221245 5.60603459058599 4.8348505635204155 0.6304584064067014 2.7702381864512806 -0.7497789332466054
Ni 8.385908846040099 8.996421955729572 9.673913469677904 -1.0774832575436735 1.152476937441744 -0.7534910919908702
Ni 8.011120042880554 2.504698495960017 12.14447633345101 -0.012409943628578626 -1.0052028628117076 -2.195876880148463
Ni 2.606336614207281 4.068477963655698 1.0402320608806312 -0.3044466393207079 -0.906708014467903 0.5730510721318259
Ni 8.506363282276686 1.5245905243995317 7.904395799815547 0.21266442711038858 -0.4597078459212792 -0.04374140675200854
Ni 8.648634146994167 7.227425555065127 12.177984755038274 -2.4485908669815704 0.34755761157756915 0.5828318056676737
P 4.384511477906877 6.658529603100918 6.641156150751136 -0.9718528265963521 0.8146890036564292 0.27797507539274063
P 8.220012111201491 1.7059847049961612 2.6323700729978907 0.38389244145286144 -0.9603067736299655 -1.0412523002360972
P 4.087950555815053 2.716234411651652 9.138943142166195 0.7567566501160192 1.2394262470397943 -1.7390517550916178
P 0.9196866837947678 8.816837216773171 7.303341475985281 -0.31054863845338776 -0.018598331827477648 0.6878652264609444
P 2.474472382757436 8.33604138446301 10.34033832605045 0.03666753062436266 -0.7164664351374048 0.1367549202662677
P 7.550724961913079 6.199606451343372 10.442565215981686 2.05185345124524 -0.12397036690708971 1.605375987971306
P 9.282895006293487 6.7355668153172985 3.485794628913663 0.6487790590927601 0.8232469205287692 -0.8136896158576374
P 6.42651793330431 0.06126319377241456 8.563712269392129 0.8873774324600912 0.4783072061900213 0.5181834735596689
Ni 0.2543474924063576 6.347099383385245 7.973827731935794 -0.4496689736280385 2.6390695020235384 0.8023929598978955
Ni 7.38739707168288 7.603283147587294 7.270958095832355 -0.4003343890589686 0.5053397848277813 2.6202590541852553
Ni 2.5322338850654695 7.441399060531163 8.167784875215878 0.030591756743927962 0.38141235534348505 0.7699929463006352
Ni 7.242416732177697 2.040300142555352 9.837627624133892 0.5715492907753189 -2.46251159082772 -0.34465509321879356
Ni 7.4909383850232345 3.5940104894136975 1.7101295451471727 1.0791822425126512 0.20869078717462122 0.5220812659521783
Ni 2.8592834300278858 1.7637743333400533 12.906514711189935 0.7357898180563651 -0.9793162248529327 0.900539680873662
Ni 4.258591215368457 4.251278446045252 10.639226208842297 1.3968024431008395 -0.25930578111801145 -1.4399206144465524
Ni 4.739199540772893 0.7690155097008854 13.717799902648002 0.10288732098454538 -0.7933388201154272 -1.3047690341116627
Ni 8.987777887375731 3.4417455066211677 6.385711742946297 0.552048758848546 -0.6152968681749145 -0.2844151745911295
Ni 2.456349840319288 2.00323940263916 6.713648195572784 -1.1362224232560947 1.1604370728290854 -1.3094384145628737
Ni 1.6626518590835284 7.402847640714472 5.927034225235246 1.9625382125181752 -0.5733788877848899 0.6487433207588182
Ni 4.349775823621653 6.004993033893256 0.37377720340316795 -0.47261864044567636 -0.23753522221013929 1.2924238822827483
Ni 3.8786553476468106 6.617606220926829 10.457000435118786 0.13084678231194885 1.4238867009121412 1.1194205212074075
Ni 1.2113883644247738 0.8287055205342824 11.270865721599606 -2.1830283063205695 -2.65315554780296 0.3010913496952298
Ni 6.766983597371222 4.032382884303981 10.506522883989343 -1.5423952733737114 1.6138688559336658 0.9895168195350184
Ni 4.999196616248692 1.460106899521321 4.710435043900425 -1.6567427724790564 0.2114974033854809 -1.8822310908269908
Ni 5.6614803826083415 3.487347186093052 3.1961011472439527 -1.2842081792411753 0.8657097176786703 0.4147659911032663
Ni 0.5679331040033191 2.222303720595582 4.036669292168813 0.2319163333614651 0.4185457698606727 0.7920987770607391
Ni 6.172324196560645 5.350556431538122 6.612765730155584 -2.161549310511187 -0.44413698806621577 0.6075532196737536
Ni 5.245946328835145 1.5876209707583873 11.272554221285644 0.18571849464916404 0.9678359921274752 1.2484449055986369
Ni 7.2068091707808595 9.326087222026826 4.153619224337435 1.0064503620655636 2.3193101436051604 1.004863734304734
Ni 3.4761811498572346 3.5026758756359238 3.9740429231917913 -0.10984421191835275 -2.1246490950507284 -0.43398884388862025
Ni 3.3189566094083265 5.303201562497725 8.799274382448607 1.2740543786366252 -0.941834425857391 -1.3366157463086141
Ni 6.039681811452049 6.001374150612798 9.16069206816103 -1.2394894961775622 -0.9694966676593497 -0.9715612634978622
P 3.067528599524079 1.736088938710022 1.3069812600315218 0.045154485049451264 1.7851426359124096 -0.6129245112879961
P 0.4785148108020365 2.403313512035479 9.519104018174708 -2.8720111913257247 -2.460533384055427 2.6576974015373716
P 5.379479371745926 7.842476331873102 12.916119752435607 -0.22371862804202117 0.3568858309570305 0.35582782200616137
P 2.50803611888189 0.983951863127811 4.620337975700424 -1.032784629084718 1.4186619621780923 3.2547929162129106
P 8.07920380034865 1.2957945980360752 5.808093907262374 -0.03469086651396606 0.36782613201861813 -0.3677410285039796
P 1.5861209155126017 4.876088957296121 12.396188416297427 -0.9590505326253612 -1.050905249944829 -0.45023178811004394
P 0.9611416480465829 8.787164248942473 13.387324606518023 -1.7919552879588687 3.253245369220133 -0.6750786162192374
P 8.17083842517558 5.520887704697081 6.701957140000942 1.6211761882283562 -1.206515869465019 -0.06979542352658302
Ni 3.31098756591509 8.367242533575352 12.367729555681288 -0.009045655142036034 0.7217891329018989 0.2727266825096077
Ni 1.3186704405343064 6.886200488030036 13.07464746587929 2.325141919795589 -2.3594751458598204 -0.8828412351526345
Ni 4.899742953453102 7.949289640718326 8.644328050904235 -0.017818773348975765 -1.0161652753604822 -1.342401756862772
Ni 6.947487120165666 6.967344101481753 0.4830102888667504 -0.6219691379887675 -1.3040725222652703 0.005877798937015684
Ni 8.733321640964055 0.9185935185344016 0.020996085768356022 2.7658295158606236 -0.46370951088150464 -1.580500307775549
Ni 3.5551215571667045 4.139655585068228 12.658163689628607 -0.22378650516547913 -0.3066590735909944 1.1108800878365643
Ni 0.6557838394727558 0.3059503303959126 2.305750856384109 -0.7114234733968586 0.1030143334807129 -0.11038568624411955
Ni 3.9508361310049587 7.886559205408627 4.633263764246453 0.3829383050697082 0.8259905447121775 0.14788959672684854
Ni 3.547143138328182 0.2221028673636664 7.19934358332949 0.7062172466055708 -1.6976744776964117 -1.1695063821202052
Ni 3.7367594967407745 4.205873648824378 6.57332927774388 2.742488784252154 -1.8147437466082939 0.7144429769494728
Ni 1.1440077578531398 4.924793876057723 2.718116980985113 0.4610522757643156 0.045933786417637026 0.417592661918784
Ni 8.758006925102515 4.9141903605390755 4.475436389095645 0.28101180533653536 -0.48922873819853174 0.4586740053401262
Ni 2.7918184453486767 2.2184035769565393 10.712802043579027 0.2565166484086486 1.9204184005299896 -0.8866984041151955
Ni 1.4659383642893127 5.2205672691455085 10.258570314602675 0.8877173322980132 0.47135365769032367 -0.3545222158208604
Ni 5.013390889011938 3.317081540351094 1.1703440402964929 -1.8043420916589958 0.8344821271229566 -2.389824190465323
Ni 8.909615633725013 4.312630705597885 8.689321270467046 -1.4762112213474705 -0.7916022970402947 0.594291469567841
Ni 0.8965914582168406 2.6489475585328797 12.576725690334904 -0.8935380527448483 2.576950878315923 0.5562697389084291
Ni 6.842980146260836 1.9726195249345606 0.12476240739557835 -1.8613879288293944 0.38142675352118827 0.49135529762323127
Ni 7.150632101826187 7.303703364313327 3.2420412766806668 1.9707765412675673 1.6246206951335314 -1.940813933467206
Ni 1.7241634995060262 3.4762842786553825 8.535102465716882 3.653967737746139 0.5238126468209883 -1.5526663162824164
Ni 3.1923988233904477 0.3205111791598481 2.862757932990937 2.27113049857614 0.9036630569939922 -0.4828922544575426
Ni 6.242967423291863 7.51162977206979 5.377765558627615 -1.055288466614189 0.6256702409894386 0.22416291466829139
Ni 5.6031001075114215 5.795594696926865 12.16810501617572 0.4442866262702026 0.07470031702736811 -1.592908708742231
Ni 2.4573248762290487 8.636099310346571 1.0482920452231435 0.10106775127730336 -0.31463052183224527 -1.487456969464619
P 5.693919077298457 3.4749154782436027 5.536636409708774 -1.1662002005651078 0.05441559863640305 0.3605301125778371
P 5.579943004654606 3.386974739459419 12.69381344007923 0.5565073088405319 0.006759687321336745 -0.9120042298698358
P 5.725889004724263 6.101455961542559 2.2597826009115365 -1.1003899869385176 -0.8356056992044383 -2.557510767313441
P 1.7865189210042784 4.291967444587188 4.910484286547456 -2.746893341077753 -1.0437755808785831 0.9104854792324641
P 5.3149582454865705 9.172528441584806 3.2282370182813245 -0.06652755140858864 -2.830186284870139 2.198141250702608
P 8.005766720722155 0.19088484262980981 11.744431287625078 -0.5566242940343704 0.1416839821367689 -0.334268864888463
P 9.541570158083935 4.45843607548825 0.6895163318123606 -0.6230538864125141 0.8818621590688167 -0.387088836902972
P 2.728825500370965 7.100042738662067 2.482308296347609 0.8440815978859334 -1.7160488664385414 0.4901934161046461
