# total energy = -340897.09762758104 ev
CRYSTAL
PRIMVEC
9.02483862223079 0.00000000000000 0.00000000000000

0.00000000000000 9.02483862223079 0.00000000000000

0.00000000000000 0.00000000000000 13.20876356830887

PRIMCOORD
 96 1
Ni 6.452488719485442 1.9870076980262517 11.376112955482393 -0.06415056653597984 0.7887530005169577 0.20107749360373758
Ni 4.618578380281729 0.45323640989311215 6.166577326171514 -0.10929013918709565 -0.352551979468367 -1.0432541611574744
Ni 2.6664065585261096 1.522869283331346 4.797872137563016 0.5632477128881589 -0.23042663618981607 0.26688513612716613
Ni 3.5373485894839716 4.332139033920695 4.941807480429611 0.3611050112447007 -0.2512188903448189 -0.6097461135600144
Ni 4.944627742433386 4.502428709918249 2.610844238358293 0.611508861887392 0.19415891210703334 0.8532565795169821
Ni 7.1278264026998635 5.947585109683168 2.5588413144602007 0.46314283974475723 0.5603361956683189 0.1300764798048276
Ni 5.033089208548603 4.6998831495361655 11.456264350387764 0.31179356660408236 0.1149131418008279 -0.24793662004912137
Ni 5.439567930628724 7.910045247228559 12.356745579952209 -0.06716261388942626 0.1533699031151294 1.1431708295494698
Ni 1.834668425630327 6.29929208744037 0.5490251423150969 0.026729445575044287 0.8795864756607626 -0.5426997135334783
Ni 2.9008808853103822 1.561712187856942 0.4955674144649773 -0.2509975183626323 0.2233918408302217 -0.8316865666556902
Ni 0.4915558737908074 -0.10750748510007185 4.746265404071214 0.21564099324020924 0.8160036087027946 -0.3983566965073075
Ni 8.563010356019431 2.352387305977757 1.4291355066157918 0.13499371460078685 0.47101941427935656 -0.3258754986184452
Ni 6.8283732393486085 0.648006862567276 4.8097858267508045 -0.8401017873025789 0.11543456152193668 0.09674932640760757
Ni 0.8566250273009369 7.386225576114562 2.6488586627176596 0.2888816950029154 -0.566089038991696 -0.053043915099857036
Ni 7.624102266980189 3.8522342265198843 3.7203804348355423 0.5635369619938037 -0.502539853485141 0.1280324527916053
Ni 7.5025467184078725 3.959494431047465 12.760444651801409 0.7796230131912315 -0.3656286101466671 -1.4643923743356715
Ni 7.953905961911271 8.998720529716284 6.883020440901441 -0.14485826609969243 -0.5038999670574612 0.14181510839799447
Ni 7.0486424704722666 0.5558181381878703 0.341637965540844 -0.6362256479077818 -0.18023536004740573 0.40075682130836787
Ni 1.8137668998679477 6.457786299633333 9.115566015121335 0.20814005687747378 0.1432652105809597 -0.5141681817526886
Ni 0.06464762499725872 4.764997358679329 1.2967284923367888 0.04936569491732143 0.29413317320984184 0.9801662315580539
Ni 6.400027333796016 1.952559889807339 7.0451444431037435 1.1197241684907553 0.5140080020257406 0.14056503804097725
Ni 3.5285313223553687 4.419264823950924 0.6878912334456262 -0.904420761095623 -0.26356661327689446 -1.1933325380055255
Ni 5.964524731382642 5.470694598311991 4.778244016500581 -0.33582489652167324 0.8449424032243319 -0.08577637233587163
Ni 5.339473447800335 3.036118088915414 9.231023480378608 0.004893837757191572 -0.13384263171547917 0.21456164413310144
P 0.10931967265321768 5.669268117893005 12.474434887748789 0.31096027206950966 -0.13321682520602218 -1.0861532745138456
P 3.7857301922612607 6.172619455488403 12.531853617177973 -0.15792255548281836 0.1636489164436343 0.20626906510700604
P 2.2620937976648876 8.600102441893084 1.3640294198271994 1.032238526773261 -1.6996334011949956 -0.44289565945994686
P 6.363909930470868 7.748419416106604 5.692237234135592 0.2333345538652304 -1.0271585411471922 0.9011356625864481
P 4.8554623389220275 1.1913418442635562 12.595480532950823 -0.6492120328651206 -1.2933767331143209 0.1195447270355683
P 3.931012041018938 6.240964556783092 8.147548309783925 0.5137493490477152 -0.606152225561169 0.010503213524169008
P 4.736253248336851 1.0003040647566288 3.7352136592496383 -0.2295033530445983 0.02190245650004615 0.9306061612417393
P 0.31473853216979586 5.3623062889829 3.5975911908522935 -0.00963495198660276 0.549851236976595 -0.06645453207880812
Ni 1.3203067851721915 1.0782245196065348 2.4539898393048043 -0.27187384759100924 0.3660515566166986 0.9759115700467579
Ni 1.8507145883270069 6.471287457897806 4.871087944148703 0.6183235708163802 -0.16307915998309336 -1.1444815779410933
Ni 5.9455184216868 5.502028837278735 9.268153470573592 -0.19810298435644594 1.321413070426247 -0.543048869342781
Ni 8.590870032197525 2.498625787607115 10.177299447497473 0.4815483388351384 -1.0962885631756345 0.3762626928217455
Ni 2.5102136801282264 5.18140340301274 6.864554719026482 -0.9322488390514848 0.07963683509703703 1.1234849210847682
Ni 0.5406194078180849 -0.05179084019540835 8.897317445318143 0.06309281469542682 0.3991719933197513 0.5396244170422643
Ni 1.541415326268172 1.0368907596792045 11.247737336522064 -0.18403930717452824 0.6626943836222715 -0.6839548356629447
Ni 4.058523982943228 6.94704083962906 1.439068243772128 0.030180894458754475 0.817465795070618 0.3940614115660633
Ni 5.749471856861168 7.7509192963467495 7.829177280153267 -0.5787568642673516 0.5026262425513601 0.8696347637646894
Ni 5.313066770606587 2.700213603217765 5.018748740311807 -0.8957954813204573 0.26930660108446525 -0.7664970173322347
Ni 0.6678976064275023 7.383680571682355 6.7190337120508845 -0.209534109011523 -0.5086372246321305 1.249915833717209
Ni 5.219055028867941 4.63289177400329 7.048394287415934 -0.8432580735433735 -0.47171001258847794 0.20329661274224342
Ni 8.11029738675422 7.197146186543057 9.112158236136933 -0.6653202512808929 -0.19098925612980008 0.34689529540322195
Ni 4.640589961168795 0.28514879446810637 10.557249657065285 -0.9302554627705398 1.09878664700714 -1.3352674598108358
Ni 8.23763785674868 6.975342732889345 4.706995624688727 -0.7149201736962074 -0.6906697857892751 0.07053487279576885
Ni 7.182426675092953 6.014224516517972 7.037338860361135 0.9123330739641643 0.012359807116933554 -0.9079714545613589
Ni 2.4756936732020174 4.978570159701222 2.8393955636927166 -1.2647590693776283 0.5580263165882197 -0.8925157821279209
Ni 2.0926163571244216 5.258701144012211 11.358928760661948 0.5330213099034498 0.10488352547896776 0.5823450958392421
Ni 1.1572369799043027 3.1583505003686367 3.8112695824836083 -0.7940836687012518 0.33946506437742185 -0.23012967377468752
Ni 3.5625549631689135 2.571320861016426 2.6615918072332643 -0.0508960155189188 0.02210145988472968 0.2973164560338299
Ni 1.1751964083443434 3.6201695315916376 8.316831716298532 -0.25945901886642414 -0.5699968586865345 -0.975469854523649
Ni 3.6786865838555696 2.698823778102304 7.203782150227459 -0.3663716589602787 1.2377493735580039 -1.1828275247091433
Ni 4.101996629574222 6.94101224756979 5.954272514946519 0.5465579109373039 0.044822041410697 -0.5552112157369277
Ni 0.7208490408427042 7.465382433826924 11.160070958670953 -0.2694413268901166 -0.5220858939378686 0.44218783475964496
P 0.14883402515667246 5.63723896636853 7.974618868550838 0.024471759889119146 -0.5126193492083301 -0.256369581307823
P 8.545520219176819 1.7810699103009788 7.9615951242383645 -0.2710750058387977 -0.13245475022901704 0.5713132635051128
P 1.8674556635814168 3.088353853644538 10.356845900254298 -0.22593337630515287 0.29913294041727834 -0.04154439910068974
P 4.006378466598226 6.269501095842091 3.6462792916016284 -0.09567177707271265 -0.42824911319136566 0.9747653722574569
P 6.899001624761553 4.0159808946686795 10.48036074124588 0.4680757582700003 0.17587168376207132 0.05743150264459142
P 6.2233390473642975 7.870967696904248 10.145545553544567 0.36791766329115994 -1.3304499838175345 0.5150025047285259
P 2.335700379753819 8.48996331391205 5.793112365486627 0.857407368460562 0.12951829330851242 -0.36854218424903623
P 6.838805952552974 3.9852242453603077 1.6113506040910688 0.7411713940832525 -0.19745018126379543 0.7924895847412545
Ni 5.3160269176057495 2.868364392511655 0.6329191377099592 -0.3980044553742113 -0.29442627897022844 -0.7069191577686019
Ni 1.4038406895144115 1.1247926858128718 6.965786331494793 -0.01108968215525832 0.6483918509566705 -0.8435915456233922
Ni 6.931960334642472 0.674437004340896 9.258947232909428 -0.6663785173420781 0.7745425133445306 -1.298687860914589
Ni 2.594298099613584 1.536361416757407 8.942583327341616 0.8117628311485696 -0.5853514867657339 1.7223059030918466
Ni 6.409819283473124 1.9201877944232053 2.6319515304364676 0.24417252502099882 0.36128575979693905 0.06813346244312783
Ni 4.016035043699151 6.8161987323307125 10.331630501730945 0.23318671543345645 0.714831213526827 0.1466212715373862
Ni 8.26747397253902 7.210132929018041 0.5447230018440581 -0.060438922012347525 -0.012757299665668353 -0.05123540113620853
Ni 7.71891721933751 3.872458889401358 8.275831875392448 -0.5462776606927237 -0.19085478743446488 -0.7785884012791301
Ni 2.990371183004576 8.39728724825839 12.362886982491629 0.08060639809915796 -0.5708134410505589 0.24458415863712069
Ni 0.023331012262911403 4.837529984997222 10.18445885180978 -0.5559882031122683 1.109789682985863 0.6662962420409171
Ni 8.589110188707169 2.2598646625771037 5.628253837245463 0.09720723988063258 -0.12474658295148193 0.35026806853019676
Ni 3.755533082934438 2.8518128388638986 11.491227476880006 -0.5886890357793991 -1.2326773583517352 0.10340951203660254
Ni 1.317833979447281 3.18152628541086 12.460962608967236 -1.2857649822053339 0.3767231773979319 1.0277874329804428
Ni 3.1731512353644495 8.372595290362938 7.832849486903143 -0.10449708867382648 -0.09344134508029714 0.9331795783958703
Ni 5.602222593329657 7.827477000596431 3.6261881963286546 -0.5102205099588503 0.027175531973527393 -0.4811207643794165
Ni 3.106412555307111 8.452501209663502 3.5461306597427678 0.022794886407328484 -0.5957780814156965 -0.09197658760931257
Ni 3.3178554944637537 4.36897842431881 9.383214745424574 0.8430166469565288 0.48107705562567465 -0.5877603533175426
Ni 7.036016721533765 6.33646539685973 11.51319393357501 1.3738440345324532 -0.8050972462029361 -0.4420448814238774
Ni 0.6478543427981118 0.04773056539381317 -0.03803969390692076 -0.4038588572724593 -0.02894110851438242 0.9519820558143539
Ni 4.7656020228529385 0.44766447465749337 1.6234754744976998 -0.20474362960141512 -1.1465549155303545 -0.7327901119980927
Ni 5.806328338857278 5.513030115303062 0.37953416451701266 0.03646415636430494 1.2296617114538628 0.2983518392768797
Ni 7.945215042520438 -0.02003243382329585 11.264895359311113 0.3616968791924287 -0.4829938130324133 0.19041769989704624
Ni 0.07513268226441425 4.608840579635094 5.809280363501869 -0.023274911367540563 1.0427849348305396 0.3785980258231415
Ni 7.849957873080924 8.57987777901161 2.7378201048809054 -0.2387834927949436 -0.1804302496670312 -0.6957901377349759
P 8.373100681314016 1.459560041870599 3.5580578861881733 1.0629454689388145 1.1032845348774936 -0.4336715697585176
P 1.7490678332917402 3.255692407481341 1.5079521279200174 0.2973141420409848 -0.6537623712399645 0.11255081221623843
P 4.796105976685771 1.2135970957877475 8.227065258548928 -0.4638442366871561 -1.7324085387434873 1.0762416718270886
P 8.471047252600329 1.8269070645959375 12.42590652663935 0.41423017320445427 -0.5340098990689641 -0.23789543376303543
P 6.285998500459374 7.6321885221974135 1.367926345053536 -0.33378678304572196 0.18358473613561288 -0.2775942950145541
P 1.8279178464980905 3.2046569462610233 5.998456318844385 0.187973866342244 -0.24817341865027584 -0.014985931885870966
P 6.915571228086134 3.8251958106372905 5.90686684373554 0.7360487281447066 0.7772874230795194 0.4745410542793699
P 2.358758841896686 8.441869950014071 10.017644641084717 0.5767658019792519 0.31721345206807305 0.4713415735054657
