# total energy = -340864.4997174896 ev
CRYSTAL
PRIMVEC
9.30792592442033 0.00000000000000 0.00000000000000
0.00000000000000 9.30792592442033 0.00000000000000
0.00000000000000 0.00000000000000 13.62309044995981
PRIMCOORD
 96 1
Ni 6.5512347834326405 7.815009127220784 0.24660791443178048 -0.25890211792168955 -0.6958096781190017 -0.8712404176889124
Ni 8.375457967117756 8.717915180256158 5.474561852409745 0.920796117129853 1.3729220369388162 -0.4704743404091639
Ni 2.031520003477607 3.729062314396533 0.4866751492682045 -1.023513488195437 -0.414975278900595 -0.396942075547968
Ni 7.572863432510099 4.149343096763304 4.147972039264519 1.0556347942100142 1.093638012926665 -1.755751327234486
Ni 3.9374481615302175 0.6447954036613123 9.177903574909525 -0.6691995317306411 -1.2434983602266392 -0.9448971239431146
Ni 6.455102523775829 7.803830308103062 6.294861923841492 0.11118761332012465 -0.4300835952969432 -0.024413652957674083
Ni 7.3125672821128544 1.7929020127183095 11.526374281926621 0.5482324704262495 -0.35963716844992255 0.027516717363030026
Ni 7.435292286331974 7.428506808282998 3.625881162385141 -0.20284795524059904 0.5950458312353624 0.06006122695795462
Ni 0.7080222833472911 2.256957971030664 7.412909516696348 1.3014152871480813 1.6556130297499874 -1.1068030895537133
Ni 2.722856898689654 5.753582757527322 7.802475074078465 1.2913828426127436 -1.5341014087960354 -0.47436879036756363
Ni 6.950870585946701 2.012429447265744 4.806198780133885 -1.7559544443842272 -1.5960477685918446 -0.7858229713543563
Ni 6.135524192728486 3.638114569517882 13.083384595409015 -0.43048700138294893 -0.228766989099206 -0.07108688864449693
Ni 0.4266334418570669 5.926840491963021 8.053821653633337 -2.179414877937698 -0.04626057362943646 -0.5541015276125166
Ni 6.481509109818275 5.914712264394003 2.0347172760562393 -0.5207694891192901 0.34001373779204025 -0.062296029825744316
Ni 8.331571096060257 6.3713870373938235 5.612209323581014 0.9262532835896822 -1.430856447361755 0.36848639131043637
Ni 4.63539368419737 4.257631507767114 8.029231974744746 -2.302453477059138 -2.038148185844006 -1.9852202274967226
Ni 2.5485473686167346 8.618999850727407 1.968972602389125 -0.6928886478174648 -0.7378865526843937 1.8283214852927285
Ni 1.4683439412646533 5.895686863664091 1.5940102500975941 -0.3098395282015051 0.2629860581830761 -0.405671742111482
Ni 8.19076079163653 5.360564890394364 0.7085342192769121 0.7744018740016082 -2.052798331657013 -1.3203154664866938
Ni 0.9410220099771488 0.38198890562372734 8.686954226025286 -0.7179473905583055 0.8391736190613548 0.7867238859020709
Ni 5.212922568291696 0.7328102210595351 11.423601747866327 -0.34866549992976725 -0.30129600950686813 0.11637532816865119
Ni 8.85038558299006 7.725159717609319 12.464092908968817 0.7346577613344509 -1.3369970409074328 -0.030525679392682914
Ni 1.314521156302563 5.588553229669532 4.105930929931452 1.1716180291465694 -0.029886503146787244 -0.9845664175082786
Ni 2.967357498676595 3.9903264890970602 10.773698154419998 -1.6981763570334947 -0.21815064703594042 0.20254945016357373
P 5.411693327874501 5.652666223910054 13.72635378399048 0.13974871278726902 1.4281655307931533 -0.6892114560761937
P 5.097104045159463 8.340143695899908 8.055456125437725 0.40679531419296394 -0.8846523202194442 0.7262481971145169
P 6.079062313654297 9.126151506387849 4.4936311789445496 0.8295553792453003 -0.19976443121926885 -0.07380968689229869
P 8.938271020216979 5.960712034651939 2.9563601841157388 -1.5711499769089006 -0.3958329016441893 -1.1276215689609612
P 5.37990676060804 2.849007219674237 6.110500764488616 -1.2500616152664537 0.5912958772746268 0.8248983400892631
P 1.4720112641059377 2.6477512438512716 2.3969687246115825 1.2884055051519747 0.5387245309358142 1.0654780055526811
P 6.910958199288256 2.586784328596419 1.3382982532519556 -0.09259262392675667 0.5467304319594262 0.5725360801686205
P 3.9427536793462887 9.133206914290625 0.5473172179058974 2.3973202417320523 3.097665602937878 0.2453817148377516
Ni 5.47346072476476 0.7332746865665912 6.794203298801117 -0.20050902269477727 0.5897848399467391 -0.7334205464932401
Ni 3.935018792846017 2.2406877163947128 13.258441551939182 -0.18935994805649323 -1.0190292271718384 0.6888617860462588
Ni 5.470845197560697 8.198020973911154 2.3629929331515425 -1.0946947363259534 0.29463788076040226 -0.5956428413894129
Ni 1.5513054856412183 6.830007166926203 6.1248870949035625 0.2980674752672415 1.9437226224735689 -2.0154036930586385
Ni 8.057564370675165 1.0695179283119944 7.5501213769311395 -2.757646465829199 -1.866813984940972 0.4965252718599449
Ni 6.115093295173615 0.9542206490353748 0.3986929096109576 -1.8184913865761843 -0.6400434789919751 -1.6292273406676068
Ni 5.8189150900729425 2.0044525546896512 8.842857332446835 0.8126017821100971 1.708316273680974 0.5879588424815938
Ni 4.988043076298226 6.736313583879586 4.299937892990985 -0.23189062232985228 1.149721486183794 -0.5133940225908254
Ni 3.7985366740090853 6.144469109607861 2.0195276716280874 0.3082269322987466 1.1413144930670214 1.039564628121029
Ni 4.936337547406514 5.116632073893001 10.888377387410674 0.5804406797276778 -0.03505082095654609 0.6845058230704082
Ni 2.8623175538443797 1.1400254677097816 11.285558689840352 -0.1558816137933896 2.44328385294636 0.8582419485467154
Ni 8.542265308840232 3.0489228541541937 13.548204734445402 0.01335893780540925 0.9803734624728534 -0.9737718979959359
Ni 1.8911657874275427 7.762093567949969 8.136935847996188 0.050157851801313616 -0.17038186429209368 2.025817689303111
Ni 8.789148737881408 3.1537021770586016 2.2763910589190735 -0.6560285415663217 1.16160229678178 0.26836249200364104
Ni 3.9956599306911107 6.947082260067505 9.496915053263889 0.5674260126355647 1.018954150959529 0.2530281756394158
Ni 4.277745935838219 4.117872998980609 1.0962716999939826 0.5870417299839632 -0.8050756489363812 0.4756296593578583
Ni 0.6379652475675702 0.38919789430538887 11.14657646208167 0.038810030888662195 -1.2564621194761587 1.3993357510456546
Ni 7.110734214878317 5.157419405594798 7.362545259940244 -0.23318105900650166 2.144594427824403 2.836357189567541
Ni 4.872820260429551 6.311862850667902 7.136864355518767 0.7459212500634121 -0.2256721522239662 1.211178822158327
Ni 8.893118271224417 3.899611442368237 8.792042572072665 -0.5595910899721782 -0.577575956585373 0.7566535488792517
Ni 7.437461033088368 0.09029525926653402 2.042891496663386 -0.9443013993406446 -0.14857145328522156 -0.18310111163097498
Ni 0.7314568486201373 8.021458925747902 3.549101011660599 -0.3596063152119871 -1.0242567941193648 -0.21845043766454633
Ni 3.362004252858349 1.8146918674681738 2.0654650787818696 0.10058566943456224 -0.7229723545767226 -0.377817181793059
Ni 1.807692307121357 0.15150604218240585 13.469531351573863 -0.12344586186218738 0.5770529942023674 -0.20701931300946924
P 1.0469741315566885 4.799231797528045 6.000671891732947 -0.8424178370302654 -1.1933991295774027 1.6345335833718688
P 0.20990024669276344 9.266822191921678 1.6865524426988643 2.6254161729061622 0.3103236669267752 -0.4747608835996598
P 2.55931663899076 0.08827916249642699 7.16881101911231 0.6839013567171899 2.929159358401942 -1.598009777414222
P 4.592539992925105 2.746554878268105 11.295816955077356 0.7610735323238182 0.46399104667766544 0.11836433357422195
P 8.519684280380954 8.010959585227678 7.521294730130486 0.44922520122240056 -0.8695296056453928 0.6633124768222447
P 8.746788366686777 1.5203194000101643 5.718537485370675 3.463917705601157 0.623599731613655 -2.0252723583226024
P 8.233000159793251 1.1857553081139176 9.584021417085186 1.258526715314671 1.0642245927615543 1.8112295628074484
P 2.8476017228492774 7.360819570461122 4.158775748964719 -0.7731186364138104 0.22730403140043434 -0.7099594872568225
Ni 3.353152415238904 7.371765691429017 13.378337877448994 0.5553783374424112 -1.8528397821490672 -1.1031626645876484
Ni 4.033440802297132 8.008921149435187 6.004104654839206 -2.017330477767706 1.6515486298726267 0.3072491417665095
Ni 5.399602332009454 2.6808036890527958 2.9840428868118387 0.3141553819680396 0.38044330656199643 -0.07233001702297866
Ni 0.9270377819651044 3.0072978091130182 4.634684420236696 -0.06486019100849474 0.4983368711473869 -0.2073550990823332
Ni 3.162656401863971 4.056822312391819 3.488410541807742 0.1576291926121156 -0.6534587239566165 -1.0153983152874706
Ni 8.74143630924074 0.6864772270510459 13.352985879421569 -1.0017663263263328 -0.4977102933069815 0.5898084940958229
Ni 5.241386205978618 7.579239361815377 11.655330942598125 -0.6407173651305482 0.3963329812090594 -0.2891719725498246
Ni 3.6246832323098284 4.733778461944515 5.750511141949598 -1.5247629050039289 -0.7427863039788563 0.02077759886698357
Ni 6.922630338483613 5.998762836111761 12.01735062379624 0.6361564852327432 0.014753247049774593 0.8797078317299754
Ni 1.043632586125163 2.3571298705684844 10.186407117544103 -0.3090219173962162 2.1166205683192967 -1.565146708137614
Ni 8.701617001842228 7.419971440147319 1.231852811594781 0.30849921212352677 0.64452002670609 0.8697211528309086
Ni 7.966598009944528 3.4574663418436566 6.399052055030537 1.21861882337614 -0.6978449633814756 -0.3772286562794407
Ni 0.5864765933514989 4.655079947672793 11.864567534167582 0.37434130742931654 -0.764174282736329 0.6204742986107958
Ni 9.015731580331618 8.114268255825174 10.01205849418201 -1.5469661805738453 -2.9245046332387505 -1.7726087651114568
Ni 6.5592395997867134 9.08053336109563 9.665637035363146 0.12539321539654533 0.07820318797430403 0.08617463621555481
Ni 3.321654393678229 2.101161905758035 5.116928065939582 0.7643061803285031 0.16468738501047767 -0.6857443234631996
Ni 1.7440819408844621 6.19727297376676 10.08792553736663 -0.5391906719389552 0.19227789303423662 1.0373167126271168
Ni 3.0833621803286904 2.5096495458915395 7.417650043404638 0.19849636314012267 -0.4399255210880295 0.6873828875078871
Ni 7.551334199688042 3.9566876445579706 11.113962420194424 -0.01533688746738649 0.7340520094296519 -1.2569593708275513
Ni 8.866665145552005 1.0400490346178168 3.419531889458748 1.2790034951117846 1.1061772830442562 1.4967977872495706
Ni 5.896738659301313 4.957401383928915 5.493483935161133 0.7271547680891864 -0.4978213649635491 2.526525631785836
Ni 6.667267388862716 6.691132911109042 9.479341688988903 0.23090254738497004 -0.4125455864131798 -0.1634897651579507
Ni 1.3912929298937116 0.5608630426036664 4.9276355673955585 0.8602790335814023 -0.06726648645714221 1.3065718916483562
Ni 4.051153785462016 9.253279159601707 3.9337901466149265 -1.2713624336267588 1.0199995615049078 -0.08127565625204067
P 1.6289615122017118 6.158728852229301 13.018919761565952 -1.0265885275763353 -0.40123504649636704 0.3818149900985425
P 8.708812028634899 5.705451472216966 10.410970140053807 0.006166276711711962 1.1335240504883253 -0.9922157065234202
P 7.217319275425388 8.991866058085291 11.976208660114107 -1.2055468206835303 -1.3357338579242932 0.0715262901747607
P 6.093405827609675 4.55364217019991 9.23281847668366 3.900706737942734 -0.24140781779166812 1.9329630699642193
P 5.511260212222769 4.856131149123909 3.5509951746001964 -1.6123837867477069 -2.0189638996060713 -2.4791435429574467
P 1.9643726253633313 4.161648174926192 8.890606061998875 -0.9033897487279473 -1.8119669551941053 0.4079263424736136
P 2.916592070310188 8.512917418183964 10.773726078197976 0.40474074565678037 -2.3049597884207595 -0.29890719755971745
P 0.756265263769566 2.136997420831498 12.338201348326843 1.3402204329407368 1.1300173228866475 0.8937509400866028
