# total energy = -381175.4611550317 ev
CRYSTAL
PRIMVEC
9.12911507408404 0.00000000000000 0.00000000000000
0.00000000000000 9.12911507408404 0.00000000000000
0.00000000000000 0.00000000000000 13.36138269602231
PRIMCOORD
 96 1
Ni 1.9413427994545907 1.342135084914535 4.784764480941149 3.251230652782949 -1.4597340496280538 -0.3811974111192016
Ni 1.1263593251925985 3.963733880970924 7.517955751683991 -0.19300654367014503 0.09036502014781855 0.5497036556551371
Ni 5.160743426356789 6.1516266864675835 9.202491984508953 1.0731380932011003 0.06559475518167412 0.5504137943482843
Ni 6.5104830639811055 8.543272207365915 2.376054818476046 -0.15905564064599703 0.6209345260766661 0.48594749634409856
Ni 3.6309046100307327 -0.05296803754792047 3.492264393725386 -1.1369341046111388 1.233308564177831 -0.07699605504008031
Ni 2.493900736867421 5.010916392655807 11.676178122258406 -0.5057223649781807 0.5059506789389029 0.9004046979576945
Ni 0.023941103819207086 2.581385044932039 1.161982957346387 1.880172665636065 1.432679616613423 0.5071917504348555
Ni 6.339932939462353 1.2306959793583632 8.133567572783717 0.7391091122375852 -0.28081357328280027 0.7097712825054163
Ni 8.137136143797226 4.268445478026212 5.828355598825279 -1.1216213855134682 1.2353106822095241 1.779023667498865
Ni 4.223265488397516 9.022103412864954 7.883710088414213 0.12406806882721859 0.2561433242296299 0.8696985271230893
Ni 2.032880434533786 9.045793466024474 8.76127181947693 -0.6575550055131772 -1.0167540579844168 -1.670920349531019
Ni 6.497684044894536 2.598712105007866 6.091922275036653 -0.7075709324199878 -0.7650973087712307 0.603916651362431
Ni 4.232431119754803 7.1900269896208835 2.2805880123448827 1.1866237585267823 0.15817349515135984 0.17392047357297144
Ni 3.9750904999036574 0.29467869978272093 1.209531039379545 0.6252179839433684 -0.27473394274762364 -0.4451415180713301
Ni 0.9642536319542151 8.490770667589265 5.236699488128598 0.3140977892572268 -1.180639258808573 -1.0416413081443996
Ni 0.36163436717689074 8.218120522054685 7.479875474711234 -1.333086907219749 -1.2090759168827114 0.06619485065951826
Ni 6.590855791540419 4.884952865297401 7.577065857735082 0.6416583888875789 0.0765067741084876 1.704509241230058
Ni 5.577916589836792 8.612927354035332 11.608556029476702 0.2950628841129628 1.0857241573962269 -0.4380833256729681
Ni 8.059620829200892 7.994046396890743 12.36948692734093 -0.40798367807411023 0.47335886104581065 0.4490133423219106
Ni 4.303218276671536 2.9454267597074524 4.555990687427874 -0.9189012140999852 -0.9686780284127964 -0.8772292882824958
Ni 5.320439033262181 3.032865422197582 2.192308558372675 1.5836982458875564 -0.4553572822620674 2.4351339701457158
Ni 5.79122748853635 5.54087977069684 1.5682650867534382 0.07867395696313548 -0.9100674178584391 -0.4927362371311579
Ni 4.615287940334367 6.2986236945502805 11.814120874185566 0.6527424146158822 -0.7367400977847763 0.04012000794933736
Ni 4.610339960059815 6.850579110379862 6.972089455491172 0.15367277906752888 -0.2057939252428004 -0.5804175397992263
P 3.1107093849302334 4.767853708504658 7.488373767769499 0.9403195318747611 0.20886176553484673 0.1444404618359835
Ni 6.00176313630701 1.29362296834818 4.043782524951369 -1.1153296389674856 -0.8026310440506306 1.2309259228782672
P 6.776669796168118 5.58632450465757 12.8978764459736 0.12971986779635722 0.1579860617309021 -0.4007977018486323
Ni 5.013070863771663 1.6740879608245476 9.929137578463392 -0.9484185068328118 -0.7974906375002716 1.0371747877326138
P 8.19753436796038 2.9831026168902426 4.170729257984257 0.25502900811952856 -1.1972516705542735 -1.970652356984877
P 8.777205776619367 6.061367127474066 7.027619122679386 0.3965859777601299 0.5279662639780456 0.19147133797254123
P 4.730698210871036 1.0668740125192129 6.14743824855252 -0.26771817355142274 1.373609549924144 -1.10369385450077
Ni 7.999532994944258 4.38727003753462 2.31681051443596 0.21053555369284385 -0.9898042688684502 0.07765194345652433
Ni 6.4605559346056065 8.914279436808268 6.426731650998155 -1.2486925028330687 -1.6625814906480205 -0.4025902749726808
Ni 4.86756190141729 3.1120057192457065 8.027224339163439 0.7221765981483047 0.4135370037921717 0.08666108893367011
Ni 8.708226184452379 7.783355554166822 10.059570720475708 1.5631103944338756 1.113262729136128 -0.8731188656585478
Ni 0.5141754867369582 1.1277652088868437 3.1569209645423695 -0.9560839937978695 -0.48261277554391074 -0.5147135127331974
Ni -0.1836431011050271 5.8341160703257255 11.271795761661565 1.1940182512186406 -0.5149963340809388 0.5353497009263103
Ni 3.025105674534541 2.028379780889222 8.854762172232741 -1.8083720387539954 0.1224099643985053 -0.08111444808382805
Ni 1.2597539520777288 2.7566184053933087 12.073719124150912 1.3406706331042781 -1.296648204776741 2.024294310680049
Ni 8.302126637343282 3.6353231016412173 11.976875647493175 -1.4855312131968157 0.19942324582976623 -0.42057719846840474
Ni 7.954763815485958 1.4761231042680154 13.058680327427572 -1.0107369052560593 -1.065765197775797 0.28463680368363237
Ni 0.7212183351477591 2.873306752015656 5.563051652048874 -1.1179269673810166 0.1945234945353037 0.7723480767963731
Ni 7.204597056997606 2.4976893195499645 10.214843271213166 1.2763028083511698 -2.651358346693221 -0.410500530958693
Ni 1.480158173052797 3.3755084916527966 3.508806349920011 -0.10342211044209286 0.7115430296938584 -1.4126388959124638
Ni 8.783185346877358 8.808089572318272 1.4391145853842469 -0.2891902273822697 -0.5201107724893688 0.04523238947523823
Ni 0.9302841954198893 0.06207250383539243 12.361376621665817 0.4231035644346842 -0.008712697282649512 -0.38951158741185177
Ni 0.4617132021543701 5.766779718840322 4.95832903919912 0.445849085661316 1.4075717658022018 -1.087417743048566
Ni 6.292863223049834 4.116254003566727 4.353939639043133 0.38100714948526637 0.5248210334808445 -1.651912955190581
Ni 6.656795388446475 6.286052903336153 5.706259164537538 0.3767082649995964 0.5925189510484505 -0.36000663597419935
Ni 8.370385029433352 0.9966254733814442 6.502156398282917 -0.14478370410801517 0.6650418008085256 -0.25618960408653296
Ni 3.5724052417662984 4.797705914220123 2.6985718412278 -0.1276853538648317 -0.48604314138169835 0.833519763209687
Ni 1.22215112781412 7.008759284212236 13.023954087268226 0.2960987815766449 -0.6281842656605439 -0.8505407232477159
Ni 7.1016115118367 7.201602707311162 8.104025756974773 0.19402470052201426 0.6273170325642422 0.18330397167040044
Ni 4.148068968985196 3.321756263135164 0.39978037377691245 -1.8916575263472128 0.3409665886236128 -1.8834240826938276
Ni 3.0261829100924684 6.624925648338619 8.871543311237685 1.411001617419357 1.002720719819802 -0.6933576170340833
Ni 1.0398518324220336 5.76342020455797 9.04053874748936 -2.857796847498556 0.7468602169379137 -0.81072744790552
P 5.166321315559282 5.864424731786076 3.8737454566898677 -0.6247860386122723 0.8023767619479795 0.10492286335733542
Ni 3.593456980720384 8.43414276787886 10.29541318765427 0.14391004325381024 0.6191630359985402 1.155448104254926
P 5.939694284117577 0.9085057789199464 0.7054532666309283 0.9324936080724391 0.21206330319127994 0.6368545397410321
Ni 5.926867877686314 4.2035648584482885 10.611328947423502 -1.3264105236408383 1.6109645378026773 0.4384628204995739
P 4.063734205560283 3.2900873635550574 11.460498218242893 -0.6787802334405406 -0.5483160312789911 0.6576246824088481
P 1.8542784306752662 7.123649195199738 10.578072494762687 -1.0468922721306937 0.15354139569598718 1.7539073320472116
P 8.35407130111117 0.7917270540601121 11.154910226157426 0.24353103478225802 -0.6379842824701012 -1.1117354938583242
Ni 8.020648637702628 3.0361884200203435 7.986632642682324 0.7496874019740636 -0.6267495900965464 -0.13654846068241647
Ni 6.848771545630119 6.645329220134969 10.886426608662156 -1.431492281173541 -0.6827950110268886 -0.39383566870850234
Ni 0.941786880190986 3.845721812688411 10.174278962076745 -0.2897484138785849 -1.4208224601645207 -0.81253519053822
Ni 2.857248638910609 6.828349715603973 4.286278291067371 -0.19784458848873668 -0.10408159840296267 -0.7465257164166303
Ni 7.282760538751677 6.333241298242343 3.2706122227438033 0.7279512958485527 1.318330317735865 0.8419290703193048
Ni 8.390542115127465 6.468872558277408 0.8960253659433064 -1.2179649918422248 -0.3801481439190808 0.5201696507517622
Ni 7.402023295775173 1.7730749536602626 2.4089506710984026 0.18988111066728586 -0.0668150007420204 -0.9580560299225758
Ni 1.1452292056861355 5.623114837695284 2.3343539345348616 0.22632341265471992 0.06855898001632063 0.030743194720127695
Ni 1.386931651717528 1.1409111343395255 10.437631104088025 0.4475182458336229 1.1932885721414674 0.5974829799219452
Ni 3.299672934197638 5.936727321775825 0.5903068275148021 -0.5178242904480372 -0.8063295759481403 -0.7454957324902194
Ni 8.633349184061478 0.8629715796332196 9.0325754205641 -0.07776790020909832 -0.049023481086554285 -1.0216316977916922
Ni 3.4153753364110333 8.091098017368147 12.728734030972072 -0.7305116003765613 -1.436930421469977 0.5133181750475676
Ni 3.45694932565514 4.31662894645625 9.672077222439606 0.0021653830824349806 0.33792934445918577 -0.7609460056070185
Ni 5.681833304717263 1.945797807524666 12.173528650238909 0.30467778149490754 0.14618289844838694 0.2632791639434627
Ni 0.6129625519564137 4.673540822496563 -0.01486402487642821 1.0900004161740775 0.388882181357969 1.5713230121516553
Ni 7.909885086648886 8.796477338168403 4.708163903657565 -0.8077056303600606 -1.0086681956524888 -2.476729534199315
Ni 3.2124351122352572 8.585823011904074 5.7782230643645835 0.24471219957455273 0.39281571208442023 0.8321051422503476
Ni 6.672743952172749 3.4905535975935584 0.38903175389636546 0.6178582011441875 0.6940330458345532 -0.13377244059917606
Ni 5.981514759463921 7.670510564916405 0.2885795381195703 -0.6595306411823092 -0.6105231009353551 0.16701114804764786
Ni 2.5931889904947596 4.707957585660877 5.18934676915425 0.05947990053318789 -0.5983049616026084 0.15862035288079135
Ni 3.258345431055769 2.048482091893948 2.497241992919977 -0.8877947225031678 0.44704516285194623 0.30961455667489257
Ni 3.328237934712528 1.1187639015977155 12.358930931784723 -0.0823668324336904 2.0339981682313746 -1.0831404558294508
Ni 4.829676074591854 4.531866088399223 6.208860759407196 -0.5041568202632737 0.8038389483158027 -0.9874319119815317
Ni 2.1098753895809517 7.908433557380152 1.702013010385109 -0.6969952137866705 -0.8602831473464604 0.9275064392704928
Ni 2.9733253348348105 2.6289568626639315 6.445316703106884 0.45705549590009675 -0.6326243037097685 1.3330935920879685
P 0.9857161810786979 1.5418070859569364 7.415954325109057 1.9260637717412248 0.600003946571586 1.089163522095079
Ni 1.5990831528250795 0.821683331685411 0.9129352254683083 1.3150241361807673 1.858900129410534 0.5799837946959172
P 0.2700337412049014 7.415735226351512 3.294609927075376 -0.25761553789978214 0.5075774159090485 -0.015777574549230892
Ni 2.083245761424373 6.581233704438247 6.742741440650832 -0.8929438708042752 0.2116313578601839 -0.6391644188211314
P 2.1347522276771724 3.60373636409519 1.3391443868740498 -0.7127627610335725 0.4689766728177149 -0.34547733200977276
P 7.994575885554809 4.433828523512869 9.641921017198047 0.08238945814150972 1.070740025282569 0.4130109560853726
P 5.633941967963951 8.40022810603392 9.45165474323474 0.9981405566482875 -0.08320501206426961 -0.37816119539603904
Ni 5.220246997259971 7.988851930513953 4.568630859915223 1.2423873865506474 -0.9845543333234203 0.15726435307352915
