# total energy = -340874.63239505695 ev
CRYSTAL
PRIMVEC
9.22338359547396 0.00000000000000 0.00000000000000

0.00000000000000 9.22338359547396 0.00000000000000

0.00000000000000 0.00000000000000 13.49935420587375

PRIMCOORD
 96 1
Ni 8.551690674445373 4.536844034189406 3.4686996610846825 1.7638431031036848 -0.9748684734942245 0.29367268863365553
Ni 2.37464311413922 3.225629377128438 6.205302473577215 0.02396422412508131 0.2604859174690417 -1.1779565697700873
Ni 2.071756420626009 8.683695740298813 0.269802416597596 1.4839954932785795 3.270099207552678 -0.8586466401843019
Ni 5.780866341841326 4.643899847448271 8.624750940490529 0.4461411629804381 0.3238859789922422 3.320586417668952
Ni 7.579370800409343 7.836537181496933 6.1424626388814305 0.49872716460727007 0.42685943193269066 0.3300936504648509
Ni 4.123903927752548 6.839673883744021 7.626756855910226 0.2740266322679539 -1.7161727936109152 -0.15367972104606437
Ni 0.6197043855916149 4.614440360281146 8.869061769538815 1.1529947576184272 -0.5862318324881581 -0.4330079680325898
Ni 0.8837043715765504 2.6380906194474774 4.403044097890532 -1.1713424068876794 -1.008175058066154 0.8356092987488641
Ni 7.728632816948346 3.4316520962430457 9.888142353668735 -1.0718134608524057 -0.1365353480562939 -0.7246080904079327
Ni 9.378613129664075 6.369733266758375 11.12097024066482 -0.05706152089968238 -0.587309381823053 0.045246530542625306
Ni 3.2313570983340685 8.737145248167781 2.4085408934869394 -0.5192265701122026 0.1965173850368809 0.9815212029240515
Ni 5.538309800350707 8.909133681857627 0.5232333273336874 0.2719347827359317 0.2211981756130126 1.8114704751736608
Ni 4.7272238947456415 1.333240097059432 2.025713289774949 1.1206016859997023 1.0890177405458341 0.25683032299432546
Ni 0.5037821336935031 8.599975087507332 11.868456304766784 1.3980219173302377 -0.10280530279370037 0.8748150224140483
Ni 5.4172067738934935 6.89828848642 12.931436505402857 -0.03250182928244725 1.3253502006971238 -2.2719967032311774
Ni 6.016523792411153 8.36790553315166 8.408261525684859 0.3107185883723487 0.3558527617068259 0.08168857541974318
Ni 3.2923236638239533 0.0489826231992634 7.801614684233037 1.0728868964222424 0.5792885684011055 -0.20268700418270255
Ni 7.40070463700472 5.31714228539126 12.553157874474469 0.5953345661203747 0.013698580533015118 0.9608814151865128
Ni 4.057984405278084 4.908583286156777 12.29152645339389 0.8995989142269475 -0.6460742585670873 -0.2235967577521762
Ni 7.8798132972728085 4.191077830394429 7.380731399853684 0.19569566046653394 -0.2087756335789437 0.2555337156700889
Ni 7.788317332120061 5.524299480686692 5.358730521971274 0.4431301440682562 1.2187820884268816 0.911750719098133
Ni 5.677481435248873 1.4563907146722823 4.646828271736173 0.6617140219868732 -0.4423212750137156 -0.06009593685063199
Ni 3.3185918602710323 5.358638288135434 5.526135856358256 0.546451981487059 0.7369149327997438 0.7597836098678012
Ni 8.405453927721906 1.7911626452351959 2.9253778043051604 -1.1232977447746268 -0.5588999774424246 -0.5667189592662111
P 8.448038289728986 7.218247662947095 13.084235689546304 0.14781066385979705 0.5054076619512393 0.44059349368933154
P 1.1322902389159948 5.56157117374942 1.957082092526805 0.06609174942275069 -1.0736931943736219 -0.13831686543674887
P 9.166521424151233 7.90080571830987 9.038438140997687 -0.1476527981256941 0.533633489566152 0.7284966268290615
P 4.0469440151281 7.920820460687033 9.537347561143791 0.5937060293780162 0.8511153648042632 0.8072382038053387
P 2.2654105823545447 5.458988701528769 7.594372633808632 -0.33137894493517767 -0.16462182187986488 -1.163571504693009
P 6.492072226615838 1.0781582006618142 10.362090530821607 0.06251148827066008 0.12602622099485392 0.7121004448592252
P 4.092203158374525 3.2580495704260093 8.837243863189276 1.7514300741513127 0.042689311338410356 0.753338882683722
P 0.21022489267545352 7.194128514875076 4.762099352753259 -0.0989926139158295 -0.7701474696006284 1.401332212650393
Ni 5.690726214075419 6.3397388233433825 5.279367917923208 -1.4188830770499627 -2.362478194352202 0.32148996795623985
Ni 0.981561704387145 9.289515244243153 7.581925677662096 -1.1359434585630954 -0.5444084686944688 0.040541154647155984
Ni 1.0209086587562597 2.3893820811063664 13.199992842878261 1.5830629262964027 -1.9481297504023287 -0.2311689136724793
Ni 5.435395286321035 2.999960850980025 10.968563050323691 -0.4009434833978772 -0.044347158656807495 -0.3864283205008377
Ni 6.143954060006955 8.202318127669074 4.046647022176698 -0.9514518943424969 0.2593615740566114 -1.1854515925955518
Ni 0.2368195969014042 6.4796852224625985 7.250799750629917 -0.07930439145828277 -0.01366361353002163 -0.3154507037406954
Ni 4.62272295873953 3.8953669293095277 2.6562136458515733 -0.8397750000907794 -1.0853549469822663 0.48189698042380874
Ni 6.399349551446427 1.8917528666017138 13.072355971490179 0.17985329411763865 -0.21819281312778552 -0.4660810964374747
Ni 4.125435009427483 1.1750867387455053 9.838598948747569 0.06574670737850613 -0.9933017404987473 0.2375231380252813
Ni 5.996075551005544 2.1370579764003486 8.488016123535242 0.6842931928389699 -0.42361469974314786 -0.7826108921749618
Ni 8.315037098448482 8.564391273640469 3.4896099940078473 2.0076021947363487 -0.19310398847995777 -0.3227891463836376
Ni 8.37496142159338 1.0240261624076334 5.159344949683674 -0.6496812591920553 -0.22750380611606624 1.4450000858519887
Ni 0.44175949078325655 3.6473593681207968 11.077434947810236 0.520853049972032 -0.13175309617630213 0.9175375009832392
Ni 2.562606448196461 6.904698738010842 11.182919096506396 0.03506727601677831 2.0917225195260363 -0.1928237382353776
Ni 0.49968418436715584 3.374974404119696 1.774031132566374 0.8243229272017676 -0.47688692880372713 0.4438685648961775
Ni 6.546250381787938 3.6104473870178437 4.05817625165663 -1.4913226230676122 0.12201375740135117 0.4135321186961652
Ni 5.588042284635345 5.424087418047117 0.9343767186483927 0.05491567820127317 -1.3011190960639012 2.222955224422494
Ni 6.722813613735422 3.1844930863440375 1.6649969035287533 1.5011264965319113 -0.22118403454562552 -0.13142888006766398
Ni 5.142709655051668 8.282580011616574 6.1538562846226785 -0.7094365248738169 2.9224557211295217 0.9713033818507855
Ni 2.097378980222212 7.452466265677826 8.780911125611965 -1.0505013296381909 -1.736354667875429 0.3622041578461504
Ni 2.036071149539721 7.641425725162134 6.2563160858416635 0.9994268795598789 -0.15579291073432522 -1.9605476644507072
Ni 8.061347932972039 6.073035463629991 9.095986520531362 -2.480357103649573 -0.02610569594811633 0.5188601879117193
Ni 2.241485125337788 2.6440765953934586 8.353562249340266 -0.54653425678822 -1.3007879379767275 0.7251523929471769
Ni 4.318471204455895 6.090762806878336 3.309150804834505 0.6760350665952357 0.4140622801680224 -1.7791136561095102
P 3.945302328033013 7.287690517950626 1.054044586619945 0.6398886985816657 -0.5324512963325927 -0.554136237505194
P 6.588262894012814 5.797957271622379 3.3215156728671436 0.3713223180973347 0.3259449184037999 -1.2386716282619572
P 0.9233344838216923 0.7991775950598332 2.017788558599623 0.5636837719843131 0.06368931062884516 -0.5308818949629438
P 1.9646268202984731 4.956535657409713 11.753009979461604 0.6644974982692815 -0.5266146350461577 -0.27402920337111514
P 6.58168662151746 0.6403500074059202 6.694464621951805 0.3067583181730201 1.024772557413519 0.049871945129778626
P 4.25771677678844 3.3804715407357278 4.81719062290017 -0.12204692463213174 -0.538326524166447 0.05261891174729647
P 2.6471203119761606 0.4835487971254002 11.830847958203243 -0.6040153817238243 -0.140734473739306 -0.6163888156875126
P 6.706359097421662 0.2160300903031893 2.3694743299787766 -0.5292870396719981 1.2741135140093347 -0.8920154454527348
Ni 5.150549531098022 9.082155134508875 11.875125733436336 -0.3472251679388149 0.3269836440809594 -2.5868447403908674
Ni 0.9006255910996581 4.993991818144118 5.310268097606144 -0.4070765928788086 0.7136011977744677 0.9508451139964333
Ni 5.895854264982384 6.995936448423238 10.407745357223781 -0.10906388210890249 0.6402345119568587 0.7830407806235288
Ni 8.083364149586918 0.6848768139957792 8.662144382216564 -0.3183887033230968 0.02098071601672516 0.14261060771609632
Ni 2.1997216444696797 6.5133782426947535 -0.04907209002002769 0.028535902656163757 -1.520728329923239 0.7999362708272868
Ni 7.710352070684963 8.475339505137466 10.71018471663317 -0.3509293562632795 -0.40246660491062297 -0.22988413342278474
Ni 3.4944633384497195 0.49428389327875527 4.723356530008893 -0.2774621403120641 0.9363433208358325 0.06485042081648186
Ni 2.6974615395773394 2.200155143498125 3.151667064168773 0.6503098939149897 -2.4180142797462936 -1.5740550663708375
Ni 0.4924069347194222 4.809994539027975 13.344894965997133 -0.044410664904891255 0.16000797725693733 -0.4322793173966813
Ni 1.5439390716511001 0.34739874268933585 9.851302314957739 -0.06554718977319034 0.90025557397434 0.7267212800961935
Ni 4.019707363404708 5.703103994845074 9.902694085949129 -0.4785396339158016 -1.783889994452231 -0.4421747221335223
Ni 7.285255544684465 7.343141500057311 1.5399121423783495 -1.0060556977303061 1.5941734343872673 -0.2159940057042538
Ni 4.362641988439413 1.9329352743040338 6.6595827075756775 -0.03720129164064561 -0.5034068294711266 0.2683540073632088
Ni 5.501093447589484 4.094195409228657 6.565923858972496 -0.15852599339477214 -0.36044089529814055 -2.6848590495538276
Ni 0.12216094855429303 2.143292983703096 7.10935362933995 0.05431841093690646 1.4784246840590216 -0.9569954498685455
Ni 8.094838038765348 5.297616382344046 1.5135480227419973 -0.21364684562831596 -0.12830987482270806 -1.6158241798878237
Ni 2.888219558860516 2.7039455782368536 11.235876998030339 -1.058971314782415 1.349580276889082 -0.8135512905075601
Ni 0.6437442125648125 7.659116174876142 1.5878479115408348 -1.260065777667017 -0.23671375475010845 0.7191115860697357
Ni 8.586887106201713 1.4082630991312506 11.514112354238739 -0.8542281994016321 1.0024391840236413 -0.9232070405641908
Ni 8.441268326178369 0.40032620704745314 0.3299757710992614 0.16364377423731172 -0.35166340621582665 0.9579665555325632
Ni 2.085130326822731 6.737072964756203 3.5874802395554592 -1.4448537900821117 0.49349394123278884 0.5004120085088608
Ni 2.303779858063761 4.266054715548328 3.617800268410966 0.5872541031050854 1.9757999626240874 -1.3375287450411868
Ni 2.9047663090101157 4.168028594818147 0.821184588291129 -0.7656248991399266 -0.21018151278753477 0.4105172431292414
Ni 3.9186651962425763 1.6945938191112786 13.028375189208491 0.5847858440702509 -0.14658399054154755 1.3472076628918475
P 6.416025428966201 6.168359132970076 7.329150549498824 0.9078269585636947 1.0489111023329356 -0.5958094488742642
P 8.27214836478313 3.024661072217833 13.110410729819183 -0.5797943043929304 0.49674304429770577 0.2575098655598533
P 6.297412716076653 4.996186983437098 10.86687247929561 -1.0502434479911138 -0.6825330156147535 -1.2144677773222439
P 0.36942418268779953 2.325371799033779 9.264917402563128 -0.824631716691438 -0.10463284292074236 1.323942778826636
P 8.19857343393399 3.3383206777570935 5.3230517072534935 1.0005764197832898 -0.8839660927856969 1.447441862524262
P 3.791696097825972 7.682958621440644 4.634206993639901 -0.40318471402357015 -1.0767258105523587 -0.21106957181944294
P 4.973783384711693 3.3972673222420937 0.48126693202673193 -1.0499799099170821 -0.44499342252924 -0.6341841919977207
P 1.6513177033354027 0.7413073194390792 5.722119844780098 -0.7686356609417924 1.6611612132617264 -0.1637777287120147
