# total energy = -340856.74668346863 ev
CRYSTAL
PRIMVEC
9.42443612813472 0.00000000000000 0.00000000000000
0.00000000000000 9.42443612813472 0.00000000000000
0.00000000000000 0.00000000000000 13.79361491012839
PRIMCOORD
 96 1
Ni 6.988813031558367 5.401577794180066 12.497456188443579 -0.018766224863909615 0.4584053250597718 1.3670038716821682
Ni 4.210951096881394 2.9799312668977596 7.505588785266763 -1.908541703697061 0.7976256204162392 0.4654167233805984
Ni 0.9199945931966195 0.6165569698311311 9.860269040125768 -2.444641909636151 0.22511036618322522 0.2019223581025361
Ni 7.427058729874621 9.307601264364779 11.748159807363118 -0.9335930117842051 1.0760519244137856 0.5493845817528216
Ni 8.807220259517504 8.996783365169707 5.80457421697875 -1.1848430124772755 -0.3084179652636302 0.21222708246265387
Ni 4.76347750610242 7.913802575833622 7.851725700805784 -1.4167418623372439 0.06257293763621481 -0.7332755362749436
Ni 6.904238142917477 8.962487842575078 7.9581850722762955 0.9547722169649815 -0.8892355687147524 -1.2160860296519571
Ni 4.688147989175004 2.908201884521359 1.379926861186547 1.4320471252357467 -0.9110647487747019 -0.787076127035167
Ni 5.650797579695968 6.79890122177426 9.764872071629034 -0.697907698298611 1.251668297631941 -0.4407639578289248
Ni 0.5569210237266262 3.8008467644534516 4.872829236980541 1.0692953224162423 -0.5600659727260676 -0.03789343261166377
Ni 8.49874904488579 1.9770487591037884 7.041709563481114 -0.8348641930527235 -1.5433494097568645 -0.3552354398378011
Ni 7.964506041499768 8.136878975892667 9.802239017915221 0.5818982381098108 -0.9935683638965728 -0.8603505102492861
Ni 0.5879877345485375 2.586555308365246 0.08027451849526568 -1.051997454567743 0.22997052248900393 -0.28469722460792257
Ni 3.9155609994141067 1.7848562358083035 10.17199074273299 -0.07773704697116289 -0.5611538064736078 -0.815670393733092
Ni 0.29416869056202094 4.131682165707054 11.170951742708434 0.846222041267704 1.6798094244905328 -0.6420363410522878
Ni 7.9943061081236255 7.990790793496585 1.0153434970697661 -0.3025010855585629 -0.2516660051845666 1.4243081047202761
Ni 7.7402138891970536 1.196271934461129 9.695559114642371 0.5029800263463531 0.298486307972215 -0.852950361130473
Ni 1.4713617967899633 6.596860162861465 2.986717803259505 -2.308528993829256 -0.5533787905138792 1.7521993482171694
Ni 6.154326346166384 5.721575094036629 7.844883560271653 2.3621074412763448 0.48874125703915183 -0.21683732754115556
Ni 2.8548407279039396 7.759892111559677 13.253787910996119 0.9518696986062058 -1.1261524406146026 0.7068962749504664
Ni 5.271143599975705 5.949043281270476 1.8492411552119108 -0.0036509664890259706 -1.6351946139946354 -1.3526781990881156
Ni 7.002308823906679 4.659412883818856 3.9126695824500968 -0.6982694525134039 -0.2424725116107566 -0.5622938336153219
Ni 0.6215377842557701 6.333579118837405 5.23877348965535 -0.14567587690498138 -1.1356362117353218 1.7685456507856765
Ni 3.86156840558486 7.715625535679773 3.1772761293530367 -0.29337958287326893 -1.0310599330841275 1.0449868275778649
P 7.141790476668568 9.360161343922417 2.8239530813659792 2.3347884417464178 1.0638762082831998 -0.25047507020025894
P 4.833359699023327 3.9126488486909023 3.308536846594371 1.973024199651163 1.6773972155046144 0.5479563339467272
P 5.982349238085375 1.8236566388097017 13.333156741192031 0.8971167712350421 0.43424698264601347 0.2500582943778145
P 3.3956148654361775 4.403247288972851 11.58773988514575 -0.3005002530784502 -0.33966843863747953 -2.9411080461233867
P 3.5169733277750175 6.177519883156046 9.015740618178528 -0.4224319922889563 0.6059509081836404 -1.3269627965998825
P 4.475231131121182 0.34132479851873593 5.795015011546562 0.04928213406457964 -0.34951190709046254 1.1844995130949276
P 9.095664547654689 5.109307185027927 13.08883012284599 -0.0026672624195179873 0.16537258400296037 0.6602202110501663
P 4.74767272693474 4.874949735079962 6.742456389698482 -1.9825105418750437 -1.3803466115376615 -1.7150448506540594
Ni 2.130676490297811 2.4405990680731273 11.549421070823822 2.2668388131793216 0.3200653196945713 1.8355647971187032
Ni 8.853277478236919 6.886793511886244 7.400012483449211 -1.1169512337313086 0.8750888449007252 -0.14926205159434294
Ni 2.338965950276898 4.6213852845692465 7.354811003518362 0.15454001216383062 -0.47507224419249156 -0.3036151445583481
Ni 7.212558566573231 4.263275565539097 1.0481094337020131 -1.6278415160636739 -1.4947468182578127 -1.3538174548988815
Ni 0.5240174903288167 6.030366739492255 9.38456874826855 -0.036068463587783046 -0.1575021801159481 1.1995666918406953
Ni 6.377760874793332 6.908064463932431 3.391712206489644 1.5084605682994796 1.98482993403684 1.7794425002038388
Ni 6.025843010213491 1.8116781806569746 11.146164533591607 0.246046345004944 0.4397833390832104 1.674329375212568
Ni 2.984511542792508 3.147101912620082 2.830022418148321 -3.102803952605708 -1.1010677297318325 0.6310261059847132
Ni 2.484083415765246 8.650180882492414 9.546312803743552 2.8822858337788553 -2.4054510983693023 -0.5392752612329615
Ni 2.065186084551706 5.522389639231054 12.543692471446946 -2.3515160389137435 1.2983872989550347 0.7417843450769032
Ni 8.107870561892595 3.1331348984718983 12.525415662717139 -1.3642095967664827 -0.9788755377710884 0.4065369183252547
Ni 5.533793206787939 8.720939547961079 1.7601067244354662 -1.138218627750517 0.8127668469330518 0.5227111862266933
Ni 8.592833189448083 5.365670693029877 2.1871156677119896 2.2906179178767903 1.7760471013690444 1.125668044779016
Ni 9.13408797321619 1.0591935128785845 3.7436149919718895 -4.6685456140148425 -1.2343825139682998 3.190794816094395
Ni 4.304940997083712 6.65459425778169 5.600842414248018 2.1726410495489743 -0.13141088234553494 0.27471748768739135
Ni 1.5552392771670445 0.05286071906595627 12.614784761949918 -1.461136329292219 1.0422177494731597 -0.8508947641530248
Ni 1.9170810728521743 1.1859898747879387 5.007716477193685 1.963305429701503 2.4283457435792886 0.40169013175591467
Ni 3.5288858148757627 0.4748860205870415 2.4631950958205535 0.5749909694670161 0.4398350182567522 1.1608188816485363
Ni 2.409328789433672 1.16885625014462 8.224815560853841 0.7283909544891327 1.1496397251032653 -1.5032057476584435
Ni 0.6028114299288869 9.116011904973128 1.9532859861798815 -1.3364334550944792 -1.5614085812514207 -2.1317319700394384
Ni 1.2514991294060387 8.72360666334835 4.237233021547413 -0.5062191021089412 -2.087846581510398 -1.1189561799764793
Ni 7.470128402382851 1.619070982177603 1.1446731473752279 0.7961541780770353 -1.345174948732535 -1.9938717325241337
Ni 4.314657590597057 0.5495643089870363 0.03606448923134569 0.21915851947516451 -0.50308184203154 -0.7930829953508792
Ni 5.527186677153745 4.66953472808009 10.858953904126484 -1.1081560040371818 -1.4767989755301405 -0.582782697597293
P 0.9846179508309617 7.843430312240851 10.879824317642782 -0.16995557538795247 0.14872340548205354 0.12707883062908437
P 2.465272241514386 7.2997628728574036 5.217131214830864 -0.12316818272076852 -0.0553116280881112 -0.6366619641142519
P 8.860864149214846 9.20190621465366 13.325487135177326 0.7808586853705455 0.40255865040379707 0.025264173883427457
P 1.1176627138066084 2.284973356447651 6.643446092440335 1.31568079592816 0.8986789735158394 0.6658920646239629
P 8.520151939035943 6.8970096005074515 4.0170178802571845 -1.3989791390371842 -0.4939328285424203 -0.7318678572941396
P 1.4174257495767006 1.3222295215667124 2.85158175793603 3.545463584795449 2.3448789932132 -0.631837546142415
P 2.3613112880267924 7.95139665102735 1.563961592682661 0.9023402244175105 1.5052996540729948 -0.33326536332461315
P 1.2298888976639435 4.318738371383942 1.9526517216372548 -0.6613532962133449 0.9009531142619969 0.7986327215245148
Ni 6.472108903563552 0.21875435371062726 4.744162124525699 -0.233717648236262 0.46451478039161936 1.1402891371263006
Ni 3.035224432894651 4.843321327872604 4.675042368476985 0.05728623531597876 0.07841016177878754 -0.061261932134275145
Ni 5.460866921039865 7.702742331671293 11.96916094661553 2.2102974264491677 1.5920257919166454 1.7960893647319003
Ni 8.536361968951514 7.1981957261131555 11.84414957288409 1.1968372087246741 -0.7632756821814596 1.3597577316427163
Ni 6.409606044028631 7.528154654818997 6.020499355002951 1.0650146927630173 0.11358568123865598 -0.05178973097778178
Ni 4.585619549959019 5.730415215002213 13.094760920419171 -0.1639052554288145 0.9351210183929572 1.0723191968442307
Ni 9.077098408739761 2.8309497826504675 2.4994301673434522 0.30340559965070324 2.451003075967489 -1.2353117106507887
Ni 1.7486758260141895 6.888716096829718 7.512871989405573 1.7726295910470633 -1.2303309696067455 0.9860435162744373
Ni 2.2731833870148725 1.2591234981279553 0.7989744681100872 -0.7249377058332096 0.5845431319318255 -0.2234754016829635
Ni 0.07080484520505319 2.824852172560133 8.975159939217216 1.1853904003403133 -0.02749512009647523 -0.42757959792816685
Ni 2.3238397305010308 3.3507262767804433 9.358912606152758 0.589264705777211 0.8842064909312773 0.31380159817304665
Ni 4.652646138772704 2.1512029119002025 4.6657319681551295 -0.19427795418340088 0.21843861059000444 0.08936537523871062
Ni 5.3501486469421184 9.24977292508458 9.817674359191805 0.0339753285041802 -0.12717139034289066 1.0044868105812894
Ni 2.5813718685666625 3.7740342440407777 0.4323196129610724 0.48251790183725934 -0.0379206863051734 -0.7109442197675949
Ni 5.5096572261985335 1.2623655041110697 7.798013012725661 -0.1415968217396013 -2.3094399356793 -0.5351869500962009
Ni 0.7221700269490733 6.769732592362229 0.5570209227481989 -0.6877798658359897 -0.37893201212379257 -0.4109841554633309
Ni 6.472627247543411 3.198691275269985 6.846005495332988 -0.07040786029960133 1.209852904258052 -0.6002052639491148
Ni 4.532550550857519 3.469068919600107 12.94779061081373 1.8395278955315095 -2.2299640516401595 0.29822894054577026
Ni 2.9940490720219017 5.931165126183361 1.6056458730992713 1.190882533803136 -1.8517210951635916 -2.0340321067931035
Ni 1.5975172970514921 8.81327074742785 6.603748483131983 0.13722028993846044 2.074035900879551 0.4336008644215823
Ni 7.622040886225344 3.901320676621998 9.713408053977895 0.27716080702156143 0.5757286189639892 0.06293057808594968
Ni 3.6988743669613147 6.943622860950715 11.021884496093564 -2.729409325360377 -0.867416673067448 -0.33966972418906016
Ni 6.568143906377311 2.416736396127648 2.9639719269797205 -0.18326103424760695 0.16050754260117517 2.237910560180746
Ni 8.121884698220764 4.873027150136488 5.997849607970339 -0.15845683071973357 1.1234255286017427 0.4885785062090424
P 8.938860781529534 4.70247313189109 7.963964136429916 -0.1900829422654468 0.14953947362544567 0.25139295402883804
P 9.122316852655405 9.246219912713551 8.060574972283117 -0.10817042376035564 -0.03295382921820131 -0.3291014617549107
P 6.082568690481991 7.392848027203968 0.34939682795053034 -0.9876609972732023 -2.510636985580037 -2.868764402253653
P 7.9774363676882345 2.921245303941795 4.986019540640414 -0.7736063746835065 -0.8261144718845514 -0.6959274346437886
P 5.930147287095639 2.762594348361145 9.223982955977625 -1.2572550476910993 -0.12752774524104488 -0.4070315985734861
P 7.360899189172698 5.888755164194949 10.41613735435148 1.4469646657775272 0.9587137181112326 0.36500254652689396
P 0.22100490902681233 2.0476566335964956 11.19208415554546 -3.651399977018963 -0.43004451452889164 0.7395472282162683
P 3.581775749693311 9.24925458110472 11.777277544820763 1.365679753554106 0.20791508535086126 -1.3596579728400584
