# total energy = -381170.00978897605 ev
CRYSTAL
PRIMVEC
9.19350540783028 0.00000000000000 0.00000000000000

0.00000000000000 9.19350540783028 0.00000000000000

0.00000000000000 0.00000000000000 13.45562445812256

PRIMCOORD
 96 1
Ni 8.770466039531719 2.0843055269762454 8.698442281247365 -0.40112166084695433 -1.101635943530477 -0.06674223852255604
Ni 2.610348699894023 3.3178808585782376 3.719901807911272 -1.0667645855745886 -1.7895921870433307 -1.7447711740738983
Ni 7.2636597339679945 1.7258507599921298 2.3547076593939655 -0.9355401082082467 -0.485566458855596 -0.006567883025504818
Ni 8.2520442824085 4.747342205059187 7.833070509522793 -0.48731789432906397 2.903876158355122 3.1464684833731944
Ni 7.336178102831054 8.692937210345336 0.8469369551368169 0.20084712276048636 0.41746204987819074 -1.9703543661284841
Ni 0.5366055910195479 3.9520028783968937 12.033243786110145 0.6762525819226805 0.6236989761956807 1.2324019932031614
Ni 7.602182981720985 8.05134087081501 11.97236991090859 -0.5611298952142079 1.5629625560021019 -1.1350623415097227
Ni 2.2576858411735636 2.2513239355887213 12.570351342512543 0.7374584640080396 0.1431284278927793 0.37493806047305106
Ni 4.339886055463496 8.256245714275947 5.343187985409732 0.32782156660122247 -0.786356218150007 -1.2141237637192637
Ni 1.8561319219036942 6.152330440749891 10.859873042532573 -2.525139035850954 -1.3292536495165883 -1.2964743982030382
Ni 0.3564220829887276 5.279315188818328 6.044616576004674 0.283966259979169 0.5296220544139136 -0.26292023794214714
Ni 0.11553661830322597 7.037049024776113 1.09821567742877 -0.8567890181502728 1.0046976410405148 -0.5517265996224369
Ni 8.790976749589209 8.797311074658511 5.680829576015921 1.4465532892717217 -2.3800046332717395 -1.1499945373395226
Ni 0.8696541064376055 8.27909157464926 10.658509537267127 -1.7101785237006932 -0.12876290319972664 -1.8902873854725637
Ni 5.619364558431267 8.978092160526058 2.3342282072540885 -0.5487315215498549 1.1090085818454642 1.317666458899621
Ni 6.236460206655806 0.9829511868788842 8.844327579501636 -1.0284669755459708 1.1654175567628122 2.502109150614684
Ni 6.299362169100158 1.9712897677934875 0.18595794863463475 -0.532170274757064 -0.6182243262343546 -0.19093860539752278
Ni 8.480558047172726 3.7638394078694786 10.192365728001782 -0.5816280151675596 1.0914394626134494 -1.746097606194806
Ni 1.7365611935273053 2.7868180318319578 1.218729659436669 0.7191349831085033 0.06322908316297497 1.0180712341339435
Ni 1.3816275390272859 0.8111843328407274 4.320856419090569 2.4469404758623408 -0.947389037127033 -0.3914897941841451
Ni 4.62489390956133 5.90233145437905 4.557069744443387 0.80877623771642 1.1224508233932993 -2.129628036322558
Ni 1.8322563889501744 1.237537732334748 9.15948553383862 0.4254219281552157 -0.3942794411141403 -1.171773323777511
Ni 2.305823034298181 5.02623637821205 0.9174686075303907 0.8034203727211453 -0.20791508535086126 -0.41637344479970223
Ni 8.539129868677108 1.4676051994744634 4.349758960676736 -1.2517839972741989 -0.34840556140016127 -0.5577864326632715
P 7.342264203260485 7.912537329601206 7.198866667508032 0.31284051981135796 -0.28921002487661157 -0.5077944170158609
Ni 7.83020029720547 4.321590980154483 4.085908120050575 -0.3550256378198402 -0.18494536392856536 1.770013493580455
P 4.088958525069434 0.8821379671220819 4.212161607342603 -0.003305924444781403 1.2608358230638221 -0.2327851091196636
Ni 1.3254092548490897 7.811592642720324 2.8707979436034323 -2.421786345194216 1.3382553387945662 1.2804217156155497
P 7.989128421259187 0.04088351753727528 9.733569368076619 0.44718400242265566 0.34260952354367447 1.5316521759245945
P 8.926608531515772 6.5858685645424 4.45385150373139 0.7503741436284432 1.1000475159974346 0.014008398463950068
P 0.8718044672993032 0.8682070487222093 1.3304831503581571 -0.8252166426606303 -1.5588832437264057 -0.010087723253305208
Ni 3.020893867230331 5.602908184158336 8.51719508466717 -1.1193842686528335 -0.29184669116851025 -0.5961259516734184
Ni 6.800031267720009 5.976918361907702 0.5366340908856072 0.9492703133101458 0.24443632020534678 -0.45201433393176343
Ni 1.9196866232158563 3.6299084244012922 10.165078485275814 -0.4770064851007268 0.12650367485190472 -1.005555875275752
Ni 2.8856574060265263 0.6939524321822343 2.3761423167220874 -0.6725447940537901 -0.39317592363731635 0.20246588931083195
Ni 4.260389816168506 0.1602032632222392 0.5123797855186543 0.28307614406473186 0.9474653988909231 -1.732628368063777
Ni 2.8476514556107193 2.9602902810810803 6.139303243909252 0.11171494657850436 -1.2600734909765008 -1.0555244938843948
Ni 3.260816771923444 6.670595908285042 12.569746409871671 1.4105971828920867 1.2613785829411694 0.5395485694990063
Ni 4.586777637083358 2.360211810945476 2.296404288240853 0.5898308626933261 -0.2045060596693123 -0.351288282264595
Ni 8.342444018847454 3.161352239376608 6.528628881938661 -0.36526145661523546 -3.1822677524599903 -1.668136616138295
Ni 7.561244303152629 1.879474231556751 11.536905747780784 -0.7031128966486343 -2.345320194515677 -2.1486691121144093
Ni 0.7215669636926264 6.432557672153913 8.331426522239253 -0.29196599035519394 -0.9335140789171535 0.2413124298643844
Ni 5.976008204894841 6.187688661673741 11.864604562534362 -0.07991220024561077 0.11102074872495718 -1.552743449377255
Ni 6.6674333425029815 8.801935407764256 5.008115979501467 -1.1883962770461727 0.19690999248960925 -0.9336562609219726
Ni 7.583106458471639 7.003272086743293 9.24953040097761 1.1276081992245224 -0.7227386412993617 -0.25926464346743094
Ni 2.9478330815616274 4.507520428923059 12.034562134753015 -0.8655240840304255 -3.027422293240599 2.552732372088191
Ni 8.602666182978908 6.103191155560609 11.516803229353304 0.5768493628319936 -0.8104415412339848 0.12800031400208922
Ni 6.053307196451714 6.456718203768025 6.137406623790534 1.7951889644048178 0.20147935702784656 -0.2192027424495386
Ni 5.586672454009735 0.6373967463639171 11.499673890501166 -0.6794656895433394 -0.130043312574047 1.104765233188078
Ni 5.237641029835537 4.910278697371562 2.2915464401035255 1.2493730738398612 -0.6043115728080044 0.6172221102220854
Ni 3.30937686628636 0.3987305938289661 6.760347502608777 -1.2215203132936512 2.1712961054853057 0.11876105479200838
Ni 4.433549486241494 4.579762992630706 6.5049602028516995 0.32435263421601557 0.3135429451950213 2.206411718241516
Ni 5.348165349114404 6.226531221060965 8.246211922722049 0.26211625398361305 -0.761884715371204 1.964583525082978
Ni 3.6305519697639204 1.9615446523022548 10.721347145175217 -0.47203088626300643 -0.16667844729857745 -0.22812627019141357
Ni 0.636313751453665 3.1413655591144 4.923951278275865 2.1078543920908923 1.2344761021233706 -0.6291810823561744
Ni 3.4526668380282026 3.0772500539862335 8.494763851377494 1.255525209484186 -0.18580771192886064 -0.5668534279615463
P 7.0461138208839955 3.74044193718534 1.3706302681304814 -0.04186990076090854 0.43875746892185724 0.18613398492002783
Ni 4.906950648496254 4.718391857246082 13.398962883773251 -0.5579612676782391 -0.8558238260235261 -0.22264005026586173
P 6.085447690562421 7.293538625804322 3.44324073716673 -0.16057439128336862 -1.2230969137521517 0.698437602660152
Ni 9.018984871568513 3.18932807564059 2.462123654571337 0.5187018079569842 -0.13668344359838394 0.4654899998206951
P 3.807692427580026 0.16277836402327156 9.501958311417114 1.0610577649977986 2.0936665306262845 -1.3628512829663755
P 1.1686507980179495 6.083241249319123 12.989131132438942 -0.6437656650385688 0.8030820155451202 -2.040559880609292
P 6.237204880575419 5.016445295194916 10.031504209808627 1.2776639503647544 -0.4763002030623216 -0.9459109099196098
Ni 8.381608350915993 8.760325603317728 2.759075710599558 0.5537811681586206 0.26389082938553265 1.7427996521698244
Ni 0.5781326539194517 1.7395398892057574 11.059971521485194 0.23761698329066816 -0.9755189625940296 -0.12058216716114718
Ni 8.566931028342662 2.255258755805936 13.430677718594104 2.30662534904864 -0.10010153070929212 2.0014431171134888
Ni 2.3031385307855023 8.109866724793488 8.182109288501135 0.831576009219755 -0.48542530529204136 0.3972876318128448
Ni 4.695683899450474 3.6091035221780285 4.432767118950642 0.7592277373643312 -0.999431764655885 0.1097475384394884
Ni 7.286229789185898 0.9993156261000108 6.922864771084925 0.8931166489367134 0.16780767580701422 -1.103697711155512
Ni 0.4191530462367249 8.914804070864127 12.86615972649632 -0.17760255041024894 1.0122091189262117 1.1550200155785721
Ni 5.130435565926797 1.9621881976648836 6.667597906245711 -0.5420988467246858 0.1984318284507744 -0.2547377021313548
Ni 1.784395000980969 7.536375871639623 5.506323976784521 -0.0971938701441939 0.4164562343214957 0.25226018712513976
Ni 0.8253358953649299 5.467377530788758 2.954895532241217 0.7384321407752186 -1.2391719649371433 0.2882833992972842
Ni 2.5195904167530325 0.08695768809940901 11.786844057017435 1.1016315726551027 -0.12716650524688422 0.8384673370229495
Ni 6.351921438216553 3.399822570251216 8.149950407380068 -0.5597026758493779 0.006319257349808472 0.7751845178039036
Ni 2.5400091917587195 5.200821041588003 5.072824465713769 -1.1356176997925602 0.22153087636208296 0.5078003305531319
Ni 5.320024029757175 8.561111539563463 7.532579873350634 -0.6587356560848396 -0.40979861979566196 -0.030192978643612516
Ni 0.08110602205207919 8.748153402458868 7.960292992260836 -0.49250020986095183 0.06739915538026456 1.1254764975935003
Ni 0.9141975583872014 1.3114167399645085 6.514553625507455 0.12236419876223442 0.42745721341768955 1.1910761378711807
Ni 8.89548851648009 4.806309347286326 0.6675440885515118 0.08253164014632883 -1.323588737921327 -0.13399792634642083
Ni 4.717095573015645 6.876300586696675 1.1405508494340317 -1.852287252079707 0.49195539310107533 1.5789131657940871
Ni 2.3178573325793352 8.033762888910069 0.7799696247016876 -0.0393497054422161 0.4285738435206361 -0.011336765169057895
Ni 1.261541974360794 3.427724858473755 7.625356130878722 -0.420641733157753 1.1913371048420514 1.085720300741485
Ni 6.572115080792509 2.3157887939137436 4.6826778476717505 -1.3787926367869803 -0.30060875363185646 0.3443684152163102
Ni 7.211606107636523 3.989025123758397 12.048394682647455 -1.0577446414641654 1.8586728438910762 1.6516728141553167
Ni 7.700755744265322 6.000462928674727 2.586076926867227 -0.5221900236159006 1.329642657424891 0.7557454352426856
Ni 4.140405380058999 5.28455548677116 10.508882482404431 1.6423032000149587 0.21515351208082947 -1.7648165227605477
Ni 5.623630344834976 2.8827798389050585 10.38525282149089 0.8855162108816363 1.0088579430657918 -0.12197004864760928
P 5.708302527546535 7.88041522250086 13.117457755149154 0.22440125593134258 1.860371057529106 -1.001307127301727
Ni 5.711299610235348 8.018906184538528 10.05914172508197 -0.33638308301798836 0.23929334255182663 -0.0767019208384292
P 4.349171495695708 2.6517194732058598 13.396392379724809 -2.341995501017818 -0.5802419334533103 -0.32585055891778075
Ni 3.2908887273685594 7.410443237678392 3.3184802751160003 2.5769249101739944 -0.25021898832539485 -0.6151821969739212
P 3.5757954529094094 6.758540978840827 6.72495986246835 -0.35711388780743664 -0.49287224848838995 0.21426750993145033
P 6.532849620166986 4.089215943214486 6.0854945774388405 -1.1632328904066678 0.8532216125139885 -0.9227573546212817
P 3.1375410609593506 5.179988558849198 2.814364531404015 0.3607746244884754 0.7901419104446844 1.6142699480268266
Ni 3.4120775126567002 7.615155017530542 10.341400721130862 0.16097908292095503 -1.4249750488803137 0.25442325621472955
