# total energy = -340896.89185591263 ev
CRYSTAL
PRIMVEC
9.03198959098136 0.00000000000000 0.00000000000000
0.00000000000000 9.03198959098136 0.00000000000000
0.00000000000000 0.00000000000000 13.21922973390644
PRIMCOORD
 96 1
Ni 6.521530108201632 2.193798045339521 11.61864589236216 -0.38384976114038416 -0.7716142839541421 -0.7750891298766199
Ni 4.577033042916874 0.2881367294221808 6.130563272699403 -0.16505968074823185 -0.17171009618521396 -1.0271688255598375
Ni 2.872443688385488 1.8294837082810143 4.673460371489464 -0.3613798621726422 -0.844976598896377 0.4707281082911829
Ni 3.398656441047271 4.375402904566662 4.6819865697784175 -0.18164046792504848 -0.39174767583122205 0.49781493720564585
Ni 5.025281660377123 4.452292232992363 2.5604191525706965 -0.05207949430405869 0.08015851192846193 0.5384746197085372
Ni 7.102214790821761 6.014275501947171 2.740386063594578 0.1532809429457489 -0.15954672134980263 -1.0390231537952621
Ni 5.148198008379632 4.687376861239061 11.391592509368149 -0.07965637548106282 -0.523090166832667 -0.3634082054565806
Ni 5.658677034961589 7.8344562608239245 12.328227003373694 -0.2042072974819709 0.44481858751427267 0.5052356551497492
Ni 2.0370027039240193 6.3393277797238134 0.44808423524747587 -1.5789347630606418 0.5218706926032689 -0.5400648470137924
Ni 2.659993226359253 1.5327105902953826 0.31325830560957 0.693404925332251 -0.4771751494681073 0.8233816463344207
Ni 0.24536212934097829 8.916280892662899 4.86754518563354 0.40299085284520914 1.0799450888206048 -0.2291377421750634
Ni 8.72330340045762 2.51648394181139 1.41686358064114 0.03266586566413729 -0.16619636545583635 -0.03198632309860943
Ni 6.691873434186445 0.8217277144804112 4.723032447028576 0.6593432077618515 -0.5679713436160735 0.7280775370137719
Ni 0.7122654183541995 7.349339061355721 2.702393902066343 -0.048367849780426374 -0.4384903313033997 -0.612002770804675
Ni 7.442007275809814 3.808771997939765 3.897663937494905 0.24681124819542655 -0.7010364737355798 -0.20985626823763215
Ni 7.610490011913775 4.0941377129180365 12.580992654682316 0.6405379021298904 -0.53228211774458 0.10149763972587035
Ni 7.948385779062124 8.825536492017648 7.1487873425772275 -0.2816599804434956 0.518747573593255 -0.34278847232369997
Ni 6.9256755198939155 0.7122879983284818 0.3498216063652287 -0.3274317873619716 -0.0596706763877553 0.7141478143065572
Ni 1.8644555724492642 6.547894486173512 9.157873069497722 0.18834616207999821 -0.20097002149159585 0.06071685826408253
Ni -0.0649616828108788 5.066250765714722 1.2991659162947296 0.1641939903138269 -0.333307015195826 0.2529199321963257
Ni 6.445029155333584 1.9190991102121553 6.898362783002182 -0.18036340098483777 0.3823250969657416 0.8323532537054117
Ni 3.5515318989273856 4.423389865911164 0.4262457873207166 -0.3031328056052908 -0.7215438496603122 -0.6187061509667796
Ni 5.775415502000492 5.5662526842297435 4.847557392398949 0.8316480001082709 0.1742832562290289 -0.44261180967094094
Ni 5.074334396507745 2.8588234478984735 9.375791498096131 0.46856941007696723 0.10241552355444943 -0.060008005122516014
P 0.22197017918360454 5.655091335045577 12.388414376422345 0.48965682687488576 -0.3042556063558243 0.7825584416704716
P 4.009806024968927 6.19607139088791 12.512542817444325 -0.028233798034712664 -0.25345780697766673 -0.35367220911573927
P 2.271129941261153 8.346335245811376 1.4368242779065927 1.096423288981286 -0.01882201780250952 0.30359663261558684
P 6.508054379550022 7.82444881622206 5.775587109805037 -0.9575333246498864 0.30914841567175144 -0.055944376576103655
P 4.896205495390434 1.015313059593365 12.678669107432196 -0.8762473839852006 -0.7942988700358514 -0.2896219156030496
P 4.093640953483828 6.216438527690443 8.177548131654092 -0.10982081487958506 0.8345399769440853 -0.11498821801313745
P 4.670125760887471 1.006470741664461 3.768604030089698 0.6873461207326808 -0.15900216170024228 -0.20328247167485639
P 0.0561500736469984 5.21386057359223 3.599754595203394 1.3582608353822156 1.7981565316735741 -0.440602492550396
Ni 1.3950901630403132 0.9692228160885663 2.613799114972757 0.26513575753622726 0.11188823893157504 0.24208710324687988
Ni 1.803281906123965 6.566491352992321 4.7507796226254975 0.24539996967019673 -0.6087582957254483 -0.103038501850429
Ni 6.040278600330538 5.7505323703415225 9.204100599246157 0.4866445224111232 -0.9081630017468746 -0.094926671376572
Ni 8.74108738820227 2.32434642464941 10.365885436013208 0.38927787413449083 0.31625828724365534 -0.6293975692423547
Ni 2.359959560087274 5.324926951091449 7.045135325433308 -0.3334293997063032 -0.33833866408246244 -0.7591431480703248
Ni 0.7117361437570252 -0.15749261102133583 8.897176428022226 -0.33761566987350883 0.2698884417298642 0.4460079798366835
Ni 1.559174320154105 0.8139195593736313 11.589206121893046 -0.42382038799605076 0.568334383382447 -1.2602526968668424
Ni 4.184195682345108 6.673737198842993 1.5481968398570773 0.21105260253857847 1.46456515246811 0.3541468347593127
Ni 5.7258298784768105 8.00923429375776 8.077649809434842 -0.5125663844832076 -0.2373732427109783 -0.047296728203434675
Ni 5.205135671529594 2.7969543183652825 4.797522878986538 0.04310403027832576 0.8830746913196791 0.38559939684163913
Ni 0.6952346985516034 7.35810009137721 6.812358370558249 0.6285946137250851 -0.2685686944771762 0.19803330746077508
Ni 5.022201751885033 4.6047251233765465 7.01906719672401 -0.37672060629477055 -0.44254701787127654 0.4767524601083918
Ni 8.252041273208967 6.973716673176695 9.097751629973974 -0.33983556034296314 0.659808063213412 0.11000439164530088
Ni 4.570087442827672 0.3679424873261689 10.46539989866966 -0.11126911729033742 0.08819243797653198 -0.05279940318921874
Ni 8.26477637870412 6.873380299456372 4.755922437568009 -0.5559527218886425 -0.23891307639427242 -0.0008808599430565476
Ni 7.173982981080263 6.14252975586999 6.947168042614671 0.34112085481328996 -0.4961455199230229 0.18095321205003675
Ni 2.3219168194166464 5.089372659379681 2.4590142944673405 -0.4152221048040784 0.49972063886879103 1.2416710772099133
Ni 2.247222264491174 5.28867254438397 11.304014724316232 0.5596962480914747 -0.1906519273950394 0.7497866465560894
Ni 1.0729552179409303 3.246295806580791 3.6606554954393644 -0.294853339205318 0.06428812055510863 0.004099366880354231
Ni 3.613699084121101 2.52921001531683 2.3827662373112535 -0.1912831332211351 0.012148205326759722 0.7860605412864592
Ni 1.2019229990510658 3.338494357569814 8.340328972652316 -0.6380346760920624 0.33897424078393235 -0.3521832832750386
Ni 3.5529770172814454 2.647899392133714 7.216007022816324 0.5161600153717368 0.5078427537552931 -0.15013005602159304
Ni 4.072244169854028 6.772655550178395 5.981847046082067 -0.09782301908776057 1.1357326281038698 -0.009063395753848907
Ni 0.6333980841813792 7.342935380649293 11.164577963929904 0.6435736036324207 0.4980208825688649 0.2123957468300342
P 0.31010072200594907 5.498016001948977 7.941055416211155 -0.4783938523665568 -0.44760463489984204 0.24398277760769596
P 8.715481697366272 1.637996494378361 8.091199600402097 -0.7611246972767278 0.4590100485233063 -0.09468498767941112
P 2.107939951128936 3.173488937505309 10.440005556392942 -1.4578807984693989 -0.3069382953943101 0.9084648492580096
P 4.009417649411273 6.138555680396325 3.678131492334805 -0.44225365500057384 0.854598181146541 0.09524265995509404
P 6.895833825882578 3.8753829220722147 10.301494574952184 0.4942513882241036 0.796007625196842 -0.5242091109284585
P 6.5093369220892505 7.934593930770565 10.234089738923972 -1.1639993362590468 -0.5609015812534857 -0.9706287243812638
P 2.3039250959086006 8.646937927435268 5.6054560355784755 0.06356692611836794 -0.2717833447597319 1.0438866525351507
P 6.907485092612186 3.9356443574365136 1.6361702260584179 0.25924973106909543 0.25736254134871156 -0.9016581107488215
Ni 5.243864843418399 2.851498504241332 0.5212767702836973 0.8505234968565353 0.004908235934894773 -0.0002740795969930764
Ni 1.5309403203116594 1.388000051115707 6.761292403920628 -0.0958746371121381 -1.2353633898243304 0.6535523121116873
Ni 6.804854593504793 0.922301629530183 9.30714386028343 0.39308567791635524 0.15460506107381117 -0.26833215298633784
Ni 2.532506691562029 1.4535993924003145 9.172334188227005 0.963416780013857 -0.33591514224263436 0.5670210638876623
Ni 6.448650983208447 1.92904333088603 2.547372443430449 -0.10582069258125647 0.2942427022045126 -0.2143595554246244
Ni 4.270613759917891 6.885510261640762 10.337133903160215 -0.6982913068902747 0.5578016021719232 0.20647603891148958
Ni 8.126406296302882 7.381601328610109 0.32400637336789073 -0.6691005442589316 -1.5948879439557888 0.056310758776586894
Ni 7.70062023725855 3.877035776189671 8.111769053774196 0.03982021732073142 -0.3108803107611936 0.2091265891604592
Ni 3.158197778921412 8.19147275019443 12.558915762227135 0.34628362996115203 0.9976463906206883 -0.3257826817943228
Ni 0.04194907622144577 4.897659645734206 10.311184093516156 -0.3748578420544189 -0.9097614565822462 -0.9193917805831586
Ni 8.652311961314426 2.315025411265723 5.677685760511304 -0.5351843789930396 -0.30550619093347386 -0.03724551461501973
Ni 3.843048398900124 2.657193309548262 11.637668165896445 -0.3891387774534653 0.03791580120916696 -0.3190818727353795
Ni 1.0207232214313768 3.275604613199069 12.524558976558332 0.6831341395338623 0.6423484729760679 -0.5840785335905812
Ni 3.0356156145382793 8.33173955043537 7.924941443364416 0.5818144201467528 -0.08574886153204588 -0.5459328757587953
Ni 5.778441218554304 7.854949845482438 3.6075672663050304 -1.5340219617083517 -0.30528456184097097 0.5497751323230209
Ni 3.191254861270533 8.310505342620404 3.639228003044541 0.2007648474593252 -0.13809832166803956 -0.39635714957877544
Ni 3.239368270471016 4.431184473033375 9.189387488003884 1.220474131417324 0.3059774741429376 -0.3680279636167791
Ni 7.3261358797833465 6.262700378999786 11.433695129414714 -0.3539023228486744 -0.19382723979922747 -0.47157065879713617
Ni 0.47219513178599454 9.072994946170985 0.5093834462297842 0.49203406885781065 0.836686848083759 -0.13100336249447117
Ni 4.634521657439319 0.2762813397250617 1.7288637300837066 -0.42756005754414106 -0.2952264062740206 -1.290174424126939
Ni 5.969332321135909 5.535634239103099 0.29666473410907696 0.22361526969493747 0.7875070439249986 0.7977541755743035
Ni 7.9554126670587415 8.916163476796632 11.426067614102193 0.3473439529048663 0.20661359293061834 -0.010269243136491992
Ni 0.02256371670070316 4.664950430781993 5.834214658230276 -0.043189648013596586 0.638619602061255 0.3309493135969268
Ni 7.743540252374131 8.737257824564011 2.6041357891789523 1.1473892385061917 -0.049750074839933676 -0.08610804464367751
P 8.491786408147508 1.5568982587464606 3.518773775437761 -0.21825246272112736 0.40567045655990136 0.5338623177475064
P 1.824019354504725 3.3150653762546174 1.3875430324362354 -0.3592077942219878 -0.7163821029537147 0.1873593726866967
P 4.748866647204311 1.0435560914255237 8.185188291752212 -0.0991589642903647 -0.07624375025508805 0.40064806364464545
P 8.651905521777348 1.6357836568987068 12.475528820401994 -0.7306920918184835 0.3672923710023352 0.35367786554269415
P 6.247616956179286 7.765560243294118 1.351216369811054 0.04715763152240911 -1.0625885998200282 0.2009399395846088
P 1.8841001500747665 3.444602172716664 5.945494190686718 -0.3452685584330763 -0.8028547300256625 -0.38381710813023573
P 6.764382247601402 3.9381100906281286 5.976638297614652 1.0475255348393187 -0.3414874941240893 0.5535515686463176
P 2.4582095441839233 8.37689046701003 10.229000212720768 0.1865078233196788 0.3977000367599151 0.16038027299469154
