# total energy = -381160.8752327241 ev
CRYSTAL
PRIMVEC
9.30391398055869 0.00000000000000 0.00000000000000

0.00000000000000 9.30391398055869 0.00000000000000

0.00000000000000 0.00000000000000 13.61721856459573

PRIMCOORD
 96 1
Ni 0.2753595623730907 0.6654996481625892 8.015966475383248 -0.2326796938900509 1.7635204296569433 0.5424739706759174
Ni 3.9536609415495763 2.055169424730932 11.434377909614538 -0.46471018423187704 -0.11829697067139627 0.9624418176950972
Ni 5.074605776655295 8.04334510243868 2.3966035219265573 -1.0213283076186603 0.9470026003218915 3.2947473451186613
Ni 8.232977472929669 8.12178639944631 13.207163317074887 -0.9481462270080316 0.6790982789015917 1.9457414526758106
Ni 4.982022530714963 0.9341036387461841 7.621638698005191 1.084184837933565 1.0036326901111103 0.1629259222346807
Ni 7.094801789519107 1.9795286057685273 7.559748133205706 1.115400087194105 -0.394416738022953 -0.806382540673263
Ni 2.554733770778578 7.587490543289605 3.140253254595728 1.1698966755800884 -2.172781688891897 -0.32301026125550825
Ni 4.582093797246456 1.061967325708094 2.820548448013473 -2.324197810714765 -0.1829735849141752 2.3758111640156825
Ni 3.9239442409633627 5.888735447317813 7.918998294882402 -0.09662745611776262 -0.2391871559912655 -1.1842904824079152
Ni 7.194297843391673 8.978397740389559 8.308301028432465 0.2972958872085396 0.1970917694831122 0.6045560847186426
Ni 8.812964849618277 2.085286193609321 5.571947417702925 -0.5841505244790972 -1.0052663690597914 -1.0238752424102302
Ni 8.873189083461284 3.61410530454442 7.2551994021572455 1.8889460409533207 -0.08032871895773908 1.325048353185989
Ni 0.6491722098849603 4.497577044546027 5.017318788389955 0.003946900462889977 -0.7373221955404915 -0.5166598378262909
Ni 8.969382247944962 0.4464715621105042 1.4724429758279898 0.6179067949939357 -0.2231311309696673 0.40074807955761954
Ni 6.57383844179698 6.472844457807201 7.637816343271098 -1.7364058328283387 1.4239126690540702 -0.32302877319826945
Ni 5.479986603593909 3.98312643646396 6.977926024721355 -1.9002763783644756 0.3558172804832001 -3.656883368731038
Ni 1.1635660640930217 6.586938352387271 0.08445534686953665 -2.5405985649391343 0.5868897777871311 -0.3478818276862073
Ni 3.7007433495847533 0.8569369779252511 14.06944632385325 1.2005758498315002 -0.45047655713099843 -0.5321543339174641
Ni 1.4377710107670676 8.954998397254203 6.166693592807286 1.068403149619276 -0.8938211312029057 -0.9122209738663322
Ni 3.3945980669331015 3.91095597733833 9.718799476761095 -0.6451262928315212 0.3815650788712654 1.8374748696572225
Ni 3.2195821449771613 7.1973960466775875 0.7711716399966853 -0.2610556739295827 1.0056715749180098 -0.36285207584279444
Ni 3.094872484783794 4.717707644380037 5.771807580602939 -0.6264382295037146 1.2012191398424539 -0.40136540142664423
Ni 6.115648600291255 2.252207710584045 13.415138353566414 -0.50426532081668 1.6098551067885825 -0.6023912158568399
Ni 2.316348892124859 9.649647207262944 3.8196845832397823 -1.1951024854217547 0.5982545679806471 -0.5268280366085444
P 4.13164481199863 8.58128809279382 4.3747905033292325 1.7166492190267018 -0.37616267690877153 0.37488406730666407
Ni 5.389273444321653 6.906248673025615 0.7208821252789005 2.4798048306905294 -1.365887755799854 -3.2476833017513225
P 5.362236270901635 3.6036942250340958 11.799523961448243 -0.12555133824096443 0.6747903955548572 -0.6368946489503483
Ni 4.721866493835903 5.839508439552734 12.146680896004725 -2.356166907422194 0.10743791646970528 0.5837854278301946
P 2.3307606545569333 6.993835717270643 6.630074087806139 -0.2550218090306769 -0.9324820381082134 0.3770731045381828
P 7.88806278159212 6.109675487649943 12.785914665198955 0.04599575000382401 -0.29165411554172993 -2.1384178667000464
P 9.441146499643326 8.653170130592533 9.570725828304704 0.1042327792688463 -0.5147842180701327 0.4474148874865392
Ni 2.067580845702131 4.584819843981509 13.290881793973718 0.5748554723304165 0.5023683609042833 0.2882836564076003
Ni 5.300467587372556 2.959342372874157 1.9248346182713079 1.008514957904076 1.3096538730077896 0.02964070568456831
Ni 2.489038835637921 1.227753765202693 7.422990835069606 -0.8295700345333197 2.1292529123713266 -1.9980227785780296
Ni 5.978387960420116 8.783127198153034 6.131629002585207 0.08909078142108529 -0.7353337043555529 -0.6375070857233667
Ni 2.4411608953697126 8.742980810228953 10.365780614952865 -2.765807918594069 1.5413197809213455 -1.2145114860759856
Ni 8.034003973012082 2.6231919683093743 10.012168625021705 -0.04408953412004665 -0.761081245633302 -1.141327348582828
Ni 5.8744446357647675 0.18392069782665604 12.538952508439278 0.1018020583401666 0.3667460115805619 1.8205526399805871
Ni 7.047770505404107 4.456128108693934 8.165115656271626 3.829031838005251 0.9328957286068644 2.3503351312317653
Ni -0.4230033700132385 6.5273095690256415 7.331796663455362 1.1993725735520182 0.6899010259440506 -0.8135253223656311
Ni 3.8721493529973467 7.106906181335847 9.840428611104713 1.4088565460518963 -0.49945941478760436 1.4674195911977694
Ni 1.466222379080356 5.476944223790625 10.881069505665744 0.540145836763373 -0.6660368177319432 -0.12328722479713607
Ni 3.632294455967729 1.474614509302261 9.299810745540263 -0.5017996328850067 0.1627721702656358 1.1317571883958895
Ni 6.057722433149811 0.5254645812047852 1.36479948466571 2.641149267370703 -0.033765012265587015 -1.022888967237561
Ni 3.4898608400396283 3.38093992151652 7.602425185675639 -0.8896243195127388 -1.0284224954612804 -0.6151924813865662
Ni 7.55549438382937 4.473386868740092 5.6437243212760215 -1.0771392439406935 1.1934646927080155 -0.46775899836052987
Ni 0.4922914766524539 6.8426750302248625 4.936323567052044 0.9336272074562502 1.5747988865153977 0.21468505708484317
Ni 9.028955207823962 5.303658829796186 9.201426509363396 0.8328813582947399 -1.6017268212544933 1.1217226869780228
Ni 6.8021378779223785 0.9093217340243807 4.28706762194314 0.45528734825608036 0.0990473784131649 -0.5995686588063803
Ni 4.483695605198929 3.496848079282035 4.288933987045706 1.016490777020701 -0.5841962901153681 -0.45155307802462885
Ni 0.5203474286304528 7.633665867337626 2.1897030874756402 -0.4470418204178365 -0.9932744868052376 -0.504417273013512
Ni 0.5785415484885155 4.771474962065613 1.6029508350837638 0.46211722669372024 0.5880735136825872 1.4594016059892996
Ni 0.7156058757790752 2.575072126283106 0.9189103475573026 2.887788765874956 -1.4380015430469686 0.6278394807266156
Ni 7.7743317396491385 9.203775747590702 10.971406786821632 -2.14304456683878 -1.3004930324441282 -0.9590605599276901
Ni 5.2551296155639715 6.5629807744256246 5.136986657710538 1.5577308752895174 0.7244075443613525 1.4897511648154345
Ni 0.24196874623850595 1.0239236222963755 11.129652404204418 2.502610001510503 1.5881609096446 -0.18946896283053175
P 1.406779673994156 2.8413594423375943 6.264805224310651 -0.011932232661211708 0.7538417904620694 3.175470784142815
Ni 0.11261643307315373 2.5837619817457 3.218443345931528 0.6282835102425696 -0.28500781386980595 0.25613458247888143
P 2.5603626386103433 6.982624501175969 12.144747542723005 0.04164235813113474 -0.6986245218599775 -0.707045398933821
Ni 0.24241533409953858 7.581796548061438 11.443964662364705 0.7072809119833949 -1.379573995037695 -1.2794238704786547
P 7.775345866250234 2.220648835071071 1.8213304383459745 -1.0644894163871668 0.31835733586452913 -0.31796215730863947
P 5.9517136396371875 2.288920954326437 5.661371984917828 2.4067356215086813 1.7341748866152908 0.23278819444345714
P 0.6536911208037843 3.2275742069068913 10.989476848148664 0.5024277533873088 0.46060721780709707 -0.6712677271135794
Ni 2.2614464969591577 2.3699394354487766 4.5515416052035595 0.8203531439207421 1.731504281761663 -1.2905158666267582
Ni 7.583499164281625 8.324862925337136 2.725200078900248 -0.9269917044176035 -1.0478608066915502 0.1888963781565134
Ni 5.303826300244073 5.061515169978775 10.04871718949034 0.35518838864994956 0.7139470111496607 -0.08715911161601118
Ni 8.196013023515444 4.468158069200501 11.398387579972193 0.19829350310069724 0.053362731891856495 1.088523831628551
Ni 8.024402333999879 1.1467724997354398 13.108873980818487 0.974178132295419 -0.4091453024823792 -0.9282798271014077
Ni 3.8563420034995453 5.0097202820127595 1.4057190278242035 1.1874089734322388 0.8247654140558247 -0.7409420516812658
Ni 8.341842567970149 3.3377976733580117 13.59548541811343 -1.5573238696590856 2.1096618776132763 -0.5851537689326308
Ni 1.4076170262335923 4.99121479752122 7.943263832389887 2.819379681172938 -0.13703671317274463 -2.1735010835564244
Ni 3.8770897312100203 3.0058619417317245 13.612125467893783 0.9943458654925454 2.312282290224102 0.20758546992558444
Ni 5.716473483838239 1.0552592038788329 10.531311196818747 0.979834816360564 -0.08435738050115794 -2.2064873086744576
Ni 4.014257331943444 5.741017208367492 3.6319576542892 -1.0932734304983946 -0.7086541381818376 -1.1189574655280599
Ni 8.004352399822267 6.239651163037987 1.2055034554181188 0.10189513227460516 0.019953046083159186 0.4789777498944848
Ni 8.507638311378518 9.027745699033666 6.316360071301361 -1.8348765128024271 -1.1343321482119175 -2.243635121369349
Ni 1.6650842320326853 7.162320291758981 8.732572521892761 -1.177757309275088 0.046866068423919285 0.4867378534558779
Ni 1.0728342969932219 -0.20144182824117027 12.999922359379932 1.6611139049635586 0.7706681179907889 1.213490243900323
Ni 2.8803707527815505 3.180989510652923 2.1767669257677276 -1.3929655858532526 -0.9338773757938433 0.9263252744781983
Ni 4.267016757374151 1.2852240405693323 5.401896064135465 -2.3941346449152183 -1.8712421959156544 -0.5658679241198254
Ni 6.2178800048126455 5.934296713056913 2.6783846455847464 -1.3318378653039966 -0.8997372395770246 0.30631197466422083
Ni 7.192883648498403 3.54857783985165 3.5005100997425025 -0.686531081030553 -0.3850147279827627 -0.047825089903078925
Ni 3.358508185413401 8.696451937457613 8.005630757574473 0.677035482835292 -2.707303237489957 0.17852891887926028
Ni 2.007226357066323 2.535186247944628 12.536311127319546 -1.8981503331604086 -2.1304042523669504 -1.2540180288110403
Ni 3.760576819049357 8.725368501459478 12.028347207918976 1.4334571182093958 0.11388444342599742 1.6303506556387726
Ni 6.358852906278617 4.739543930001779 13.413804172331579 -0.4895164446422795 -0.24604737344620853 1.000884952162644
Ni 7.342295199755139 6.118439774422709 10.101552255016012 -0.9830142425298101 1.759342387019854 0.7660663575527193
Ni 1.4867840285154006 2.8426526863518347 8.823208458680714 -1.2695014691586202 -0.6786465360761538 1.1601087429553893
P 1.9308691367435116 5.316786652127791 3.384777785947269 -0.784536648442765 -0.2558625597644174 -0.18729715199019356
Ni 5.749865230364202 3.096733267538097 9.057261435082415 -2.3594278375616526 -2.8985362341994465 2.1195323426494532
P 6.00483898727253 7.609205878032317 9.4124522991806 -1.542154875228131 0.4468284188554498 0.9520550751441345
Ni 6.264250711049868 7.501866624850366 11.841069658003558 -0.1633835785973896 -1.6950771492828804 -0.9466061362144214
P 2.2299527488425848 -0.17383897686384403 1.3688978586820615 -1.7328350847579446 -0.9004453213876427 1.1435377259705855
P 0.09256649889554214 9.09409190813833 3.747526219202055 -0.32663423116134066 0.7335295612672786 1.3691402012988807
P 7.538747339040646 6.832887312937231 5.683010097176236 -0.49305865346758304 0.3276503311306808 -1.1049459817403164
Ni 8.242774494131073 5.757140890933525 3.5528957862330097 0.7068484524316665 -0.062298858039221736 0.6198402645712228
