# total energy = -340898.26347809786 ev
CRYSTAL
PRIMVEC
9.01363891274783 0.00000000000000 0.00000000000000
0.00000000000000 9.01363891274783 0.00000000000000
0.00000000000000 0.00000000000000 13.19237166139408
PRIMCOORD
 96 1
Ni 6.472387634419626 1.8780727887409217 11.478326525274559 -0.3405876080176392 -0.04824932192469109 -0.21224585151573125
Ni 4.695087328643795 0.43241490467598587 6.031182629082856 -0.4109432749230665 -0.367090025183542 0.06900506641480374
Ni 2.7242101137303707 1.4644909811943871 4.88074215054722 -0.10640793254329416 0.42171876827201565 -0.15589652619172506
Ni 3.5235486255217197 4.374003483546971 4.770863188195757 -0.3998679909455113 0.20611197070385145 -0.5645983133787825
Ni 5.03663213405643 4.657482427129452 2.5091095362499907 0.22257705823841026 0.05274695268472852 0.2691862734565171
Ni 7.317217981767756 6.100674179589803 2.542684439809621 -0.6961814596361235 -0.19589646362343036 -0.22082125188956808
Ni 4.948469731920333 4.423263020166312 11.548562602355112 1.2499310032258601 0.7884390688209647 -0.37161336697519226
Ni 5.570735307410319 7.796797653381411 12.36117279607113 0.01837541718339416 0.5703552704672178 0.7465802238036496
Ni 1.741831636682124 6.592494372837322 0.4055497539177162 0.47366687920453254 -0.6406111785699871 -1.0300888274201099
Ni 2.7982661709791357 1.6005067922805436 0.3670056312294045 0.03301502147343991 -1.1372061273256027 0.23208576905979386
Ni 0.3150915779523522 -0.0910864265970873 4.804134332124268 0.8041845045806796 -0.023482399392656332 0.03822459069883739
Ni 8.674861287374648 2.3998092495162697 1.5152630064220942 0.17975430664592915 -0.011481261166722162 -0.32270918507532165
Ni 6.8601093119458705 0.8684154349086366 4.791126749819534 -0.26856972291844067 -0.18124168982473304 -0.18138490027081663
Ni 0.7694312579024246 7.308754174835357 2.524255153703143 -0.15677892879667837 0.03072571121863096 0.41759471880131305
Ni 7.746420425537771 3.8064146416586158 3.6878483341298938 -0.026851830085521496 -0.04944591333595355 0.9377450862793656
Ni 7.607718550057732 3.782384280336171 12.548121976521406 0.6061329422874593 -0.007654688331780367 0.4090720260422826
Ni 7.8657159364539595 8.835709673645852 6.852527038898443 -0.47957990225485797 0.24679659290740721 0.4154920706360134
Ni 6.9872557023488735 0.866240443840705 0.5074318158320924 -0.604132624027979 -0.943706188958807 -0.37217129636119134
Ni 1.8633264754912895 6.467772651299937 9.131575159812467 0.2229627237126031 0.513629021419767 -0.2391179933162269
Ni 0.154566781317861 4.798753189697598 1.4513851502255817 0.2701653495403347 -0.06419376106908944 -0.7145939007050404
Ni 6.3176054271319195 2.160388972904574 7.007207392066515 0.1869197140461168 -0.7420144588098382 0.7662175384186031
Ni 3.3047785956428526 4.273952091694332 0.261153962740983 0.6641473140187142 0.19037064870919473 -0.006044920642499266
Ni 5.962882681639235 5.51754582422812 4.717921580083461 -0.07310443329515798 0.3392228664596287 -0.07529861273299936
Ni 5.263180934310867 2.7312948339102063 9.535894552019563 -0.47058695472762824 0.6943243518227269 -0.5232480325667698
P 0.13977179441813817 5.545533173030141 12.347809175029623 0.6099857403746463 -0.5645805727669696 0.5217902170743206
P 4.0150353141297295 6.23290426233559 12.541842174295844 -0.47705070807510097 -0.7874355672571148 0.06200986604389321
P 2.3103038151832322 8.430952218587942 1.4122966037473692 1.1004542645175501 0.6117353760759013 -0.22467559263865175
P 6.1990760755227114 7.7799782031834805 5.845064506139682 0.9149214035166309 -0.5552045308687082 -0.9276182822580088
P 4.722993554695667 0.9724364333353219 12.604334634192558 0.24384676625046395 0.13763115222363392 -0.5024645201625153
P 3.9350843370366735 6.1490864341520135 8.083744143850891 0.14191281031812333 -0.14758106434749424 0.5635408186485457
P 4.671516662905538 1.1055588663327671 3.812899053487336 0.29743678366177806 -0.06979208109247335 0.36038253125637937
P 0.24674295685864056 5.4691155423880975 3.5503578917187744 0.5584037545322963 0.027371964255049633 0.6286568344215884
Ni 1.2767549100676494 0.9414385291388148 2.6571549498196187 1.2712603608312558 0.1380929223514009 -0.46149296284616
Ni 1.7846283942061183 6.5411977538253065 4.7727100828075235 0.4559249818400793 0.34494845608949626 -0.16981082227997205
Ni 5.911676199016275 5.554727084713898 9.145823018830619 -0.36323928397888405 0.45511945521964847 0.42692370951172276
Ni 8.682063184860256 2.390317887748628 10.1529682714999 -0.36376558879599935 0.2538547853057692 0.2726428645465498
Ni 2.358031033188613 5.204015408534224 6.7841504755241235 -0.3595024426442712 -0.47466189612795034 1.2346797334937445
Ni 0.3679980328729158 9.115402888887962 9.26260192176435 0.19096277376723886 -0.05204966950738778 -0.1691071113447281
Ni 1.6207243843459014 1.2349586664621817 11.31968828326302 -0.9936236426145404 -0.7885390847339386 0.03906199899846821
Ni 4.133573679377844 6.847724572089517 1.4835088579214037 0.16496969213758686 1.0692233315277264 0.026046560575406753
Ni 5.712853352035597 7.968408324505953 7.923483446836336 -0.9056698030113757 -0.4576432500827667 0.8879340762945095
Ni 5.307491983171009 2.923790106379123 4.978088549364276 0.04761837320891154 -0.2567022820568934 -0.8216119560285075
Ni 0.6191766014370235 7.383242886751593 6.9430528171556 0.6765166342173445 -0.7072384887812335 0.20413299260060974
Ni 5.113761842172019 4.488260370314905 7.049410150786627 0.44722154052881047 1.299403913145007 -0.010725871057936367
Ni 8.045186500704222 7.097032810580703 9.250280277380336 0.7437669227245707 -0.04023082249558878 -0.6322761763417305
Ni 4.609800277318599 0.2218247521039898 10.371367840819744 -0.459671336256389 0.3440387997910333 0.11278683948644447
Ni 8.010772427362475 6.965145246113331 4.661195144994686 -0.0718978145815665 0.5043774209145121 0.7395168891989651
Ni 7.243071788129934 6.174261527615475 7.058340864214339 -0.045944070830282166 -0.5875523510717946 -0.707451376122988
Ni 2.5013839463439638 5.240358400601778 2.430998242857577 -1.0910687095375917 -0.5550741759384311 0.5103624348533533
Ni 2.534409919294241 5.179372119766196 11.267090094793028 -1.4445719971756348 -0.3135329178926923 0.5183595941262169
Ni 1.2028160301246578 3.2570423639985657 3.653943531386317 -0.020346939087468187 0.6295173826496706 0.1704919075073967
Ni 3.7119517059274747 2.6877048761625155 2.6789355068712153 -0.30632277329749824 -0.013059147176803317 0.0271315661094694
Ni 0.9923926298724162 3.2074673500175277 8.093111117401637 0.20533446910787864 0.5490439105839512 -0.7476060939650028
Ni 3.7514674988898147 2.767628812338854 7.125332031288861 -1.5041992219199645 -1.3870561623473532 -0.5660381311491026
Ni 4.165599138409594 6.655580831537919 5.926540590935573 -0.030574016132115085 1.3910241458561659 0.03840225392728225
Ni 0.6826154934188312 7.379195762882959 11.269029829885522 0.6842366285694216 -0.24929904761428678 0.09724272110425833
P 0.1738649822148432 5.5057740118173495 8.057504539632674 0.4118585876484842 0.38340573162443 -0.7828186373103938
P 8.306879479051762 1.6496311243162993 7.968469617250511 0.6286105545646852 0.11138147449848558 1.0489481262184581
P 1.8361233132740582 3.258024850639281 10.16290220293781 -0.637085939025548 -0.7774954253252674 1.2121692110960542
P 3.878812189348743 6.32706073434394 3.6990883418452314 0.5257584576934494 -0.4697981402777457 0.24325875495747787
P 6.876604271143197 3.9324974226707536 10.447935999231513 0.043619536462163586 0.26351699098588166 -0.32936988492494884
P 6.267534663011072 7.738515464217522 10.206924815352972 -1.357657654580578 -1.0912841679825076 -0.4676787799418978
P 2.268588694327916 8.519655439058377 5.882927197726727 0.9387742988748283 -1.4889957747066485 -1.172079027943388
P 6.995809645670329 3.9373557740408955 1.607939438922137 -0.5799917651157173 0.42455983726523655 -0.5951844136957557
Ni 5.383720327396034 2.8142563663977467 0.4164616651768879 -0.5903887920793252 0.5994606724736062 0.11090556330333158
Ni 1.3081584280149106 0.9071776876584648 7.01398835261523 -0.39092980791561704 1.3194073528501276 0.738480991735283
Ni 6.802277804727264 0.7208540537482415 9.263775497549865 0.24572984220578972 0.1663424041153974 -0.29933760022891676
Ni 2.686731403160706 1.4835187729241999 9.049570875776705 0.4311074085757672 -0.08726041308056585 0.23889173623803373
Ni 6.290528455859367 2.0765170628875635 2.609081608080261 0.6126540312354288 -0.022194019598535973 0.47615750683687036
Ni 4.072127702958073 6.739578932499608 10.337858736824126 0.5105313563310498 1.0271744819867923 -0.39048346440681786
Ni 8.124876082269013 7.129130378723699 0.33135849208536655 -0.03925637439746143 0.3175194133442661 0.028369809391944688
Ni 7.551130925008104 3.951975896345849 8.24656471431465 0.4956554676604818 -0.4859999468485888 0.21153751259479697
Ni 3.028150017628661 8.358662834564683 12.251412813753221 0.315887791278114 -0.2735391511085741 0.502228235781993
Ni 0.2545361490564597 4.865589322182943 10.145316593432899 -0.6071924939002252 -0.39331450609770974 0.7119829454447545
Ni 8.571691176460655 2.3030478358641897 5.931158278146933 0.6695525441946856 1.1707405116376224 -1.0102591942886923
Ni 3.574800176339207 2.6071589989016872 11.394673646682955 0.08385935781881687 -0.3204918657090287 0.05406901393026172
Ni 1.0866752928254446 3.267173694128509 12.53330715961609 -0.2868276406873641 0.7974199321633363 -0.0582092613508804
Ni 3.2058178540977953 8.289996933381493 7.904486301478802 -0.12563618464528686 -0.11237314898779358 0.30749442500809626
Ni 5.5602254044463395 8.052595711884662 3.7477412605662215 -0.16899398280563155 -0.8711527430711126 -0.5588778659552375
Ni 3.0037861516667075 8.46846698371323 3.651068180575417 0.5829899285120927 -0.984069680377518 -0.4387055326379993
Ni 3.3427981245468557 4.23644634020795 9.087406526447033 0.99249929920211 0.47309943673683685 -0.47606083335800586
Ni 7.199626048604735 6.019028638382487 11.359502427673135 -0.19313972681389963 -0.38334608203108816 0.17840807703067985
Ni 0.4893540616429343 9.14604926116715 0.39077369565969516 0.41772995882759667 -0.6649358713582806 0.026511158916651116
Ni 4.777949711103374 0.40002529463244746 1.645827368698118 -0.8988589507371294 -0.4791944938909812 -0.24358528505896115
Ni 6.041896240286103 5.555664503160084 0.4189899908899208 -0.22995869541446204 0.43055436428577465 -0.36304902234494896
Ni 7.761013506926007 8.690545019070466 11.32778793918363 0.6231898977697461 0.18767484704458648 0.8708863767836034
Ni 0.1666441560875324 4.901779082389101 5.8322948839020565 -0.7587741947666803 -0.86652064361574 -0.3182457499873293
Ni 7.9354544606669215 8.764096312540516 2.559504791371442 -0.36933048447828654 0.39291418533549755 0.3647084123252428
P 8.596163206089477 1.6411402764671834 3.6998797393411467 -1.2890639646715798 0.22180289907654707 -0.04083040375280065
P 1.9396810106609934 3.1726837174806506 1.5094050424973167 -1.2486598498229204 0.3918502628473574 0.385767032767755
P 4.80444079584706 1.062410576891453 8.260548473712866 -0.9099038956973813 -0.2544906191175553 -0.8700631095513596
P 8.549075956446396 1.4667173500040809 12.279261352516096 0.1402837593551326 1.7754788875704002 -0.18873131333355883
P 6.300028831265916 7.8065864652329395 1.4400793429462335 0.1649601790558901 -0.5132929782365869 -0.035488936935229205
P 1.890646815014294 3.2001843297817683 5.80059391587091 -0.3584197511030537 0.5857507790866815 1.4093612536024567
P 6.9692644790932095 4.042040176291036 6.02888775661748 0.5646929299751178 0.35805979666047366 -0.8535648547860203
P 2.296927575047258 8.492902958786427 10.133390647796842 0.42455958015492046 -0.2486822399658943 -0.4401008703236291
