# total energy = -381166.3715396047 ev
CRYSTAL
PRIMVEC
9.25231257440467 0.00000000000000 0.00000000000000

0.00000000000000 9.25231257440467 0.00000000000000

0.00000000000000 0.00000000000000 13.54169469072669

PRIMCOORD
 96 1
Ni 8.407271172897122 5.461075762429608 7.083741727703036 0.35462171751320215 -0.5991953346273616 1.2495738769967577
Ni 2.997286680885322 7.738458501143838 0.8576662512775648 1.2609960027907703 1.3071907561792777 0.1387164148680127
Ni 7.68166780613759 1.1732765140187893 6.417775067318916 1.0749527778123358 -1.425435790566816 1.2385890958504797
Ni 2.774120899922352 8.28108813306408 9.186374187055582 -1.0234638659044246 0.33902463440589353 -0.262072031009239
Ni 6.303683874879758 6.67390591299967 9.723221123573593 0.82431212856849 -2.6312191527411843 1.3785198427415677
Ni 3.266232904808688 2.2046040474598887 12.461311667599345 -0.24975336154288597 -0.4049333212835607 0.318920921677483
Ni 1.2452132448225657 4.7361015529298385 9.553462466883117 0.8964336291250884 -0.22485274164646438 -0.15676813016340096
Ni 6.362741386483681 9.295613466744452 12.221271518837028 -2.885495341855089 -1.160808083015259 -0.8463264280560521
Ni 6.926096198725526 1.9567993579270855 9.387333492442714 0.18052229516020524 -1.4483589750218926 -0.14172049180165916
Ni 4.698796228350955 7.403247214067204 8.480283022430081 -1.0553280616028728 -1.6942399980935658 -1.6474680320453499
Ni 4.925884989874798 4.166214607961632 5.603282882530054 -0.7627036117280735 -1.1750928750690472 1.1391794490018896
Ni 5.032702939344843 5.734934964366711 4.140305356865836 0.892271784437915 0.9767147826743436 -1.4553294928024547
Ni 7.634147928400202 1.5109119070080381 -0.16430256792456102 1.0932850004626204 1.2641633447751583 0.3721777241190945
Ni 5.576868455163918 2.5341159099480812 12.287476441958113 1.4046381370951744 -1.4848562986169782 -1.2539000151759372
Ni 4.464647952280064 1.0058929259839184 3.0286131610339297 1.5301743058274873 0.3208929578021893 0.929770038493689
Ni 2.1811216779705016 4.353425901991678 12.038675278353596 -1.2610438253095702 0.13830195303841344 -2.3997262800703836
Ni 7.415191949690057 4.802866240965858 5.048899112627416 -1.261053852611899 -0.8214417489992304 0.30440910121455317
Ni 4.77806079076844 7.090519046714453 6.003507394859278 0.5591313767269402 0.03279236393967256 0.34021531227988505
Ni 9.09209959783643 6.387352538115584 5.054992685734474 0.36776056888800535 -3.301014923294928 -0.2889277177495024
Ni 0.948223261276531 7.133884636074878 0.07491505024374244 -0.8507219860205864 -0.5568055568072411 -0.25363444176484706
Ni 0.8840427441618613 0.0184389338673757 7.278674076634145 -0.5039732434975579 0.017877394501053082 1.5244556581761552
Ni 8.73534892692556 6.177870927552459 9.813937273350028 -0.785540407116931 0.8125745284165876 -1.263312823849405
Ni 3.7100200807576442 8.956044340412696 12.26640522514364 0.4404801080399188 1.8789539627376155 1.964593809495623
Ni 2.293009894769224 2.777414723223464 6.006717022115332 1.0956568431289067 0.8294494497950554 0.6160617713653971
P 1.0376561152893031 6.133459826863311 3.1232291605896307 -0.40363722817995645 -0.31795187289599436 0.9606572149908488
Ni 1.2626538541557 7.8437498190276935 4.43671984656544 0.13283270239372608 0.324375517034151 1.7268708967547097
P 1.9251101871228495 3.500880805762331 0.2769781565292517 -0.9494232939482422 -1.4373052883108923 2.055613432508305
Ni 6.146727643194193 8.083005371677835 2.6147525903306086 -1.2936202165836947 0.3147318232967999 0.4837245205508508
P 5.328591897686293 8.121781813967049 0.5424954733869101 -0.8631350149729587 -1.5423749616587372 -0.446662839811863
P 3.946055828607823 2.9815762540165354 3.97317343173487 -0.053846099286178235 0.4808410283554687 -0.2506355070375232
P 4.189095577129187 8.38206787325603 4.199916156765845 0.06547854131878401 0.5530702581345249 0.7344988671590834
Ni 5.173467623904156 2.698890345817464 7.725185133425368 0.21633493398344036 0.5374960578453518 0.2296195669074884
Ni 1.0857866456611673 6.819990677329036 7.674308516660892 0.5332195419571849 -0.3864841134394376 -0.7991276588830625
Ni 5.919990469550806 4.197339387694609 0.19801706996647497 0.1776470304949392 -0.03267177920140825 1.109670126688863
Ni 0.38431793643239404 8.184780810757132 9.404097757721605 -0.30327653027200674 1.7118165735247488 1.0306842949122637
Ni 5.017057278664562 0.06949874642219507 7.553029202528944 0.3136110794287954 1.7720996866855223 -0.27343836386465165
Ni 3.8233331537034774 5.3910357557177635 9.573260565477835 -0.3443151933808715 0.4162394903249993 1.2108036982070953
Ni 0.03398652003363498 5.660472352211239 11.827492167495317 1.2376064202222363 -0.03966466557947363 0.7642431883010516
Ni 3.26424365759032 2.8853059409601634 10.015992977785421 0.005275646576642527 1.5850143935958187 -0.8748620736018998
Ni 0.845618814984369 1.4413530205536598 12.72370910463359 0.6950301196404998 -0.7415832848096906 -1.9381682683142427
Ni 2.905466730210508 8.47144521339294 6.375985146801692 0.1792475422128397 0.4704787112845381 -0.34100849760514174
Ni 0.7294134691061553 2.384080408119909 10.407781231446236 -3.0338317963113686 2.1292968782353845 0.3721617832794945
Ni 8.849605735761036 3.6149433160322935 12.952834300170284 0.34750644662465957 -0.0019290987019128067 0.19954588745055957
Ni 0.1000730135528805 3.8201781150920193 3.4599032382952126 -0.5677222037197448 0.2434528732461549 0.5464080156230009
Ni 3.8546337273766835 3.2895857419210652 1.2856310473747479 0.9243146718060727 -0.8268027562008278 -0.7143822989148664
Ni 6.40267436785334 2.6933482105439643 4.576266926780859 0.43897498424930204 -1.7885195228044424 -0.4968024367807315
Ni 0.7851521761648294 9.01414886381433 1.637705599475556 -0.5496974850075501 -1.2022159565380846 -0.5692697507125228
Ni 4.442692214376867 7.556419249881548 10.827789963901212 1.4386767147371222 0.32058931051884143 -1.7857828405995697
Ni 7.629642052142781 5.7750622443018855 -0.08284890833560588 0.21362319147923206 -0.867924465941802 1.415148549708195
Ni 0.8001955112920139 0.9069644235050479 5.266324758826314 -0.7321774181147583 -0.3993982503979444 0.04361388003520875
Ni 5.433753683193138 6.347151239679262 12.722232435535677 -0.5533227404649632 1.5521662367175462 1.1303165992946211
Ni 2.202688818742669 0.969522084982035 10.568710406180951 2.066404609586538 -1.917731854836762 -0.37683939126082194
Ni 8.295910337919082 0.32356725161469685 11.15770615245193 1.5410084203285137 1.1615935550310317 -2.225719417431193
Ni 5.219294328427771 6.002289790515383 1.862294386123107 -0.1802847252281024 0.7709776788114077 -1.7323661155413261
Ni 5.5887299199729785 3.8111015963886743 9.845867929514261 -1.030449296083322 -0.6526583395425082 -0.7051828918037855
Ni 4.451842751581359 4.425159081917296 11.822210947438366 -0.7468463329808428 0.5195728977080278 -0.1386832476372321
P 6.351916180690702 8.741464705582962 9.421986178986687 -0.6960529044780593 1.7358723289223719 0.6978573046766496
Ni 5.9471367548470475 -0.014973942782357787 5.3640680400555425 0.6960202514679109 -1.2605126353964484 -1.366585553197827
P 6.987439031552412 6.975651585244501 4.644706283405364 -1.1868757266365884 0.009846296666460462 0.10149866816713489
Ni 5.830465092411598 5.487389339587928 7.402432085323307 1.6442017025892524 -0.44588456688494177 0.843073211226077
P 1.4873185097669281 4.89476021014182 6.6434880099526605 -0.8199908754853168 -0.6455664656927333 0.12080739579807583
P 3.2646600116592808 1.513595077674674 7.929149589959132 -0.3351157862697906 -0.09448984094946952 -0.06469872572996599
P 1.9317533476009348 6.633464054434614 10.540204956157368 -2.1035573073774354 0.054201425743067945 -2.9800461179494806
Ni 3.0573156853168206 6.902493549171773 3.158262117183254 1.428928891321739 0.46109032809110273 -2.959872471215083
Ni 3.5689408175684507 5.008064030775009 7.359735438167013 -1.440299852162842 -0.04938343552913431 -0.45545678395440914
Ni 2.6463094530640414 5.778689150858165 4.936394691806632 -0.3973657933489479 -1.3576651107797457 2.8234718489644406
Ni 5.602210539494663 0.8850512462400107 0.6612609341736001 -2.2775058059748647 1.635893439833873 1.0764617582576945
Ni 3.033250420130888 6.513433802509548 12.148741714792799 0.5002873100055384 -0.06082870125159847 2.777668674587397
Ni 7.4953817433719 7.284206959595001 11.76063680679539 0.6967447883387613 0.46948318014048823 -0.41877382671107877
Ni 6.712673102976238 5.066418366618021 11.307504795076426 1.5825926715282035 -0.9491659265217975 0.8628321390205591
Ni 7.7943794787615905 4.245321881064177 9.157341355211317 0.24097201580583014 -0.8043719380011374 -0.38618020904577366
Ni 9.229681486846355 3.231064864450469 6.034341651975247 0.08094552660613157 0.4892613912086799 -0.7964477980580542
Ni 3.198968591889916 5.394375840582094 0.6706871902948719 -0.5764554698276847 0.2575216926343952 -0.2368099140083406
Ni 0.21921226777037092 5.238835212730995 1.4720632966802056 0.7642053930845806 -0.6844487445802276 -1.8775822792010695
Ni 8.368790804612503 8.353108134681648 5.689935416593432 -0.34462064043643226 0.7937188291626652 2.262426800154555
Ni 4.618254846788655 0.9293670481089301 9.945765149126913 0.5057730157104579 -0.5416121368962543 0.11260814781673509
Ni 5.5829009630075275 3.861508195670858 2.6157814474965737 0.6749585457016054 -0.52427210295591 1.017362380992377
Ni 4.383967786028111 1.603638584321922 5.707702632562884 -0.8503016106537161 0.09644825022742098 -0.29119337385522753
Ni 8.25568128254483 8.37435144451129 3.458643998544422 1.0548002141238608 1.1422542312724715 -0.5723044237737885
Ni 7.602967634791362 7.5324742647599825 8.142783638436693 1.103653745291454 0.7374049850622848 -1.8917025206525355
Ni 6.923033683240504 1.2176413531447194 2.5093983567207765 1.3627769780850145 0.35596589024592246 0.9575292108848283
Ni 8.138574761415132 7.519854110314149 1.319804464123783 -0.24040277356592146 0.28219554123199136 -0.8455080459198149
Ni 1.0710199546820256 2.7011294054772086 8.114657533231497 0.5889430607717342 -0.15776186153523797 -0.21119838408782338
Ni 2.467702809792517 4.447614444703246 2.8109441790125067 0.306058463892518 -0.25848817031272253 0.5678720990340478
Ni 1.8034792851104453 2.2122001961402615 3.772892320864513 1.8860720618396358 1.3351512459479458 -1.3196948021835595
Ni 7.650765081908058 5.695298057001647 2.8415758104815825 -0.9085262986235644 0.24817187598837906 0.09496163837956549
Ni 9.685135829038856 1.908650322929934 1.2073083703843777 -0.3326827513482658 2.6335220898427485 2.623547752238856
Ni 2.834945603241198 1.3299644286376902 1.5159248099983258 -1.0570638133470571 -0.7779006311834862 -2.250665288743253
P 9.129821276484275 1.3770124384302562 3.3842452273461916 -1.748813462464072 -0.19837834950501965 -1.3624720452500858
Ni 7.801910861253458 3.3752344000626158 1.7472714858007419 -0.6737318723833559 0.1847910977388882 -0.42867617342645525
P 8.825725516827976 1.1330104493939614 8.678506418968508 1.105149356000374 -0.3984199456450751 0.19644925080310682
Ni 2.262884364801752 9.234538950984229 3.2664734649374214 2.1590787374835076 1.0447960517232975 0.030702057069547123
P 7.703753076417797 3.018206159772439 11.147035460280096 -0.23304530475958576 0.10743148871180208 0.32819694766277024
P 7.188056926602995 3.0740901281396176 6.638274331778008 -1.9832067966111198 3.551211285912504 0.5815256852617404
P 8.551570240886278 8.80398258211558 13.12312126391271 1.1051658110606064 -0.5887373725188313 0.5221242033749718
Ni 1.5295090554216189 8.557140133097711 11.832285790675952 -1.539081121398814 -1.5266223268101708 0.2262444797876684
