# total energy = -340858.72956258885 ev
CRYSTAL
PRIMVEC
9.39078313675179 0.00000000000000 0.00000000000000

0.00000000000000 9.39078313675179 0.00000000000000

0.00000000000000 0.00000000000000 13.74436035553922

PRIMCOORD
 96 1
Ni 1.8775461936786864 5.855463079416072 12.6649883894296 -2.6174005016905375 0.042486194188668766 -0.5584232949163221
Ni 6.463178208721709 0.9960240052333819 11.298111095658426 -3.2503364231034535 -1.5156205763830286 -0.6009326290334425
Ni 0.004044610226410635 9.114384057619434 10.059950446861343 2.274314809841393 4.15897816425896 -1.6631892994353488
Ni 5.9151133328596766 1.6645538450712576 4.335328207527828 0.260422411220958 -0.6831966173406815 -0.5034747065945846
Ni 6.9852400065318925 2.203885292768531 2.1331520372603574 -0.9610428804650417 -0.48154088263597067 -0.17488283748624076
Ni 0.8463724877778911 6.290913685867572 6.587052965994997 0.08578742807946516 -0.21885152975770697 -1.3642710461320378
Ni 9.145880743710405 8.430462724489042 4.4691712809268065 -0.3229606389644954 0.32420942376993195 1.082796956447103
Ni 4.5445567303197345 4.042318875365257 4.212343696480366 0.6475701263863234 -1.714882614044582 -0.06108015514077222
Ni 0.6980544615045463 1.8228354920788064 5.9062268349324585 0.13222797893019164 0.5331964020287333 -1.5219413763947338
Ni 7.771098288832677 0.8203788005090156 6.390426873952669 -0.4218087568826607 -0.36086358465785595 -0.9907643187888744
Ni 1.7806145318328295 7.778254065457996 3.403337134151484 -0.22088578657891633 -0.24171660728133856 -1.3002744886754187
Ni 2.453435959489302 4.920159876885201 2.3437703959322476 0.7003078230996713 -0.6637979010990955 0.6249315630512011
Ni 4.549477500597513 8.277036112278461 11.375588811497705 1.759700284579905 0.481617501510177 -1.2004480660043841
Ni 9.318013795602923 3.410929582185041 3.1838951957982946 -0.2748905229301459 -0.23358549353377187 0.3556529869911939
Ni 1.3492489159745231 1.0322442551597013 3.736142726396439 0.24821249941832738 0.2434068504995679 0.2012412728751115
Ni 3.17940921877216 5.489504266963733 5.266893878435501 -0.4644242775603421 1.2963550990163544 0.4897481010371114
Ni 5.214645440131105 1.6416121622685615 6.5703129562675775 -0.3979900571965081 1.3494365522223661 2.031203893315689
Ni 0.8949904493849798 4.038891239580163 11.400520401212349 -0.8897050521520032 0.3744775758968648 0.07942446197591482
Ni 3.56576481184155 8.926605961294134 4.142124116800809 1.6891276165676652 -0.7113885063938652 -0.4365260084881772
Ni 7.902278136180553 5.964039312148275 3.268477978034842 -0.10666144331499694 -1.3897357660620453 -2.275264575349172
Ni 3.8476385535549045 1.3018818066594193 10.3621345739884 1.0025908791101572 -1.2653288258381692 2.0845347435283452
Ni 2.1146822453093375 0.33903731582574514 1.6067704792826578 0.910307044673071 -0.022835766947592928 -0.15028663620411536
Ni 7.976502884798035 8.05641844789707 8.733661056177166 -0.6891446073940003 -0.4750416480648722 -1.3239476639226424
Ni 4.465965267619873 7.858132065425139 1.974706990629081 -1.5406826615579787 0.41590756090687725 -0.3844948509235507
P 7.36248654011761 4.291681726426571 1.903580261314345 0.027531886871681618 1.1286626086309657 1.066343695987086
P 4.334240754859571 5.995310619447897 3.479123569977353 -2.289234150155387 1.0542862506019197 0.7620523512973199
P 5.216063448360006 3.799839468223049 12.006784654548682 -1.3831879376411984 -0.9202780398428537 0.4366561063081383
P 5.567607408949006 3.838557666420149 6.228889442488429 -0.05149688232771132 0.3069814899274197 -0.05451304344621579
P 5.271656883559336 7.048223987930863 -0.04682338298097531 0.0011577677535270384 -1.148135886864229 0.8754439142472987
P 7.679763533638645 7.9986275694820925 6.630128487491504 -0.271101745311675 -0.09582141527669949 -0.32938505443360044
P 8.169492865673273 7.955392404675047 2.591430698040582 -0.05209157848891673 0.6122046024028359 -1.3189635804444897
P 3.4606443872433594 0.4423509537799574 12.467632633550279 -0.3848188099218728 0.27820853155978537 0.6506086561023311
Ni 2.5348916109958863 4.98698468852007 8.183048460894597 0.563483483048049 0.234539372806609 0.23477540007681502
Ni 3.6073471988453725 2.505667494384347 13.215944687368976 0.13023588820082732 -0.9396597868035753 -0.43775396735800737
Ni 7.777540365952059 5.633418016022806 7.988867728738399 -0.49842994508182553 0.6765346319394736 0.41041414189247377
Ni 2.919481736866379 0.4831510885621406 6.131386821037823 0.08717839488972083 0.9042760079876426 0.6479838168849743
Ni 6.438048473486337 3.6319416594512917 13.777072142346256 0.6315740080683834 -0.2596364249845528 -0.29948723843290354
Ni 3.3090771500614053 7.511593392160674 13.189417603627243 -0.6889818565638908 1.3471181885018348 1.1546772875271727
Ni 5.436746848222208 5.734472231593749 1.802517594038727 0.5420299411599633 -1.6984159838481265 -0.7547141657646937
Ni 3.5747517911465767 7.1082874358252734 6.9474853026678085 -1.311993833994876 0.5975922518062997 -0.1835654528619032
Ni 7.1590070546616875 3.188499496689888 11.39357967351711 0.0561552070353291 2.357183521612166 -0.3453472341898117
Ni 6.253228473797487 9.212085763669066 2.722139128083221 1.0638191297930195 0.1389555274620123 0.07581540446841781
Ni 0.5967673545158771 5.9015248698979486 4.110567329698811 1.0278072304747845 -0.6203303168337639 0.37554509792943064
Ni 6.418337220026304 8.442069732243496 12.777733190723454 2.1626700543791917 0.14738540339692036 -0.1459504707226067
Ni 7.245223833135512 6.350366732868746 0.6591531430394755 2.1322220223019794 0.09536864400999703 -1.1838911900869677
Ni 0.843498908188196 7.037781437265043 10.85721946955245 0.8986267801216652 -2.959346423508284 -1.6008619021510364
Ni 1.5213068416032571 1.993494191044584 10.516290850035972 -0.2992797504077878 -0.5245803782249482 0.6374595203148828
Ni 1.1483143327042462 0.9867083485243051 13.099172179258062 0.7668330605154148 0.05683860625559888 0.05699261533495992
Ni 8.366689917320352 5.354258210588609 10.643838342529945 -0.7939679690589939 0.2716918134871901 -0.326838890972979
Ni 5.5990195779932215 6.535440283697863 6.161706842022294 0.009581987261480273 -0.8875219284577553 0.9749522914572822
Ni 3.572066027216339 1.8010113124498806 4.282123787516794 -0.2450212461745393 1.3973660289137932 -0.6868388420789591
Ni 4.6134944681234975 3.519468251785352 1.546721117562707 -0.5925084095254892 -1.5893880971834822 0.9968395784486768
Ni 1.7984664102642356 3.7188439650821343 4.701093569850927 1.3667331345192848 -0.9870056230773904 -1.2352047527592793
Ni 2.467540915514537 8.79218629382062 10.68879671601251 -1.5812004191663669 1.2037138812398496 1.639284467793293
Ni 5.500519655390898 8.610493424861733 7.59283775105037 1.2633375064397534 -0.357592627216068 -0.04748878960958273
Ni 8.957773969981055 0.7324998534489954 2.192211610454969 -0.06617402472391183 -0.9912546281617316 -0.8430914660585223
P 8.101710194175173 1.4269764266408822 4.017242667592829 0.5410912313957777 0.2727786187934657 0.9803822042236018
P 5.38621504504525 9.21495934325876 5.543622410158025 -0.6590413602507166 -0.9961890893488714 -1.7179162586645835
P 9.313881851094864 4.1747946507633875 5.333100776550756 -1.9797810587590228 0.26158352140859464 1.679110084430663
P 1.9180674222065754 8.083520247556743 5.871659362809363 -0.563207603678843 -0.9042251001450492 -1.9177732495976583
P 7.526318139862118 1.4612809568407383 -0.30667198230978443 -2.6782482291055296 0.58585182344092 4.212523701585583
P 0.43156845677052 8.583645176342328 12.0770868731184 -0.22754057289127266 1.7521008749660922 2.5790684388795584
P 2.7830993957515386 5.958367279232668 10.286980137856604 0.9848196711696652 -1.5931347087101078 1.26698975848036
P 2.0483363636060843 6.729153354862012 1.2047210097090246 -0.05852267882624115 1.0597506161506007 -0.37014835239389154
Ni 1.50486358061778 3.664396205405495 0.027332812920805187 0.9799140063379317 0.5153177219760996 -0.5559663487353974
Ni 3.615611087861489 4.839483660365364 13.415003931279573 2.290026307039379 0.08355185388072708 0.9447140613980312
Ni 8.93316072780919 3.046510858140251 0.9144847757583391 -1.103075504190481 -0.7789211020282004 -1.5113273483243133
Ni 5.326320631244351 5.87926871425227 11.654626536753256 -0.17142033285893704 1.0871038113525728 -0.295399184406459
Ni 0.9908966377302004 8.974780677944903 7.717004561674114 -1.1523656086748606 -0.9800338197452476 -0.995684381798311
Ni 7.754185488698557 6.242062832842756 5.458229203350921 1.6044563043705142 -0.9981744952100164 1.1406622041950034
Ni 9.616631303356884 4.17594971706905 7.806218878072874 1.3386458893647655 -0.006447812507872766 0.10927265568559891
Ni 8.469678634183703 1.4373062879110279 11.767439890762814 6.3156117826360845 -1.631894860197441 -1.9290997303540713
Ni 6.495313468054834 3.2812053061979585 9.052833109702123 -1.1966382053399907 4.0900854550523045 -0.025826731255116808
Ni 8.078505569449236 7.806820827261435 11.022729202214208 -3.4535055091288975 -1.6680530552855528 2.254687522528769
Ni 6.0588862201741565 7.051510761971364 3.9676255266774287 -0.6809337894484337 1.828878129127147 -0.1571597091748648
Ni 9.446564223718397 1.6720946437984638 7.957819922073531 -2.129977963462809 0.7514923163932865 1.3222566493734644
Ni 3.0306122625671996 2.8816462722687275 6.530110075282468 0.02332427654823725 0.5223514888944294 0.3817537978433038
Ni 0.19185557429211642 5.528823475271096 1.433481422006182 -0.3582022357756089 -0.4992182453110757 -0.5897688991071391
Ni 3.894733330163795 2.742888063061754 8.80882957848342 -0.11816764418238361 1.6718791138998625 -1.75768299703956
Ni 4.594111892067515 6.825183501542474 9.100924248384434 1.129822690377338 -0.3022241777480924 1.1953495684355542
Ni 5.382346042460432 0.6681542085189613 0.32456611926456846 -0.16752793978306635 0.8059855623451603 -0.5775409895823795
Ni 2.3569550552261425 7.494577293413853 8.920406166375452 -1.564590578523828 -2.93454890484863 -0.19421470504563326
Ni 7.011430900243199 3.7092371941008992 4.456951994122522 1.2768800210108784 1.0217741369068274 -0.3473647788404727
Ni 3.2811020075852566 3.79908820558522 11.0193757536146 -0.07761851911542761 0.45304200386532945 -0.3735856602102147
Ni 3.2620762812822433 9.235863226156347 8.343705975994277 3.3918823370004616 2.5947688803339504 0.04532623474062516
Ni 9.384951296633465 7.853267639845198 0.655280384141468 0.6155089841857205 0.6282392872681954 -0.09603687372161525
Ni 7.7011369556848726 3.359608953238363 6.902459315547838 -0.8218376988860684 -0.48789664965066937 -1.051835217958266
Ni 7.098089045516748 1.3575785404714498 8.851738883121307 1.390593228966334 -3.7131884710806693 -0.9811208821618393
P 6.283588875148742 5.447940661525856 9.655921400237032 0.5228132590221964 0.006980802193207332 -0.15651950448770463
P 4.524798522944838 1.069516272778981 2.214147540401272 -0.8500524707573877 0.5300953945059064 1.3748403370074516
P 1.9943769246440328 1.5077089878585563 8.515992097649253 2.382774482707393 0.6364863577683362 -1.0023682215763898
P 8.80164281227429 2.3886865108914352 9.842830849137345 -0.6397076929191111 1.5085284454229375 0.7570052757917157
P 8.787237351193923 5.062345721877268 12.870232403006122 0.5293315197566885 -0.2518817207397985 0.32993398495853504
P 0.5948084371877386 6.429624941159681 8.61646314559758 -2.6617214350950995 -1.2655918496915688 1.2216244429716832
P 5.552084444694869 9.444122620145453 9.567614233473451 -1.1320356388682569 -0.8834693556549366 0.4326842661445838
P 1.7799477862417563 2.6815568594660073 1.9027970700144086 -0.6458999377727521 -0.8451581187795637 0.7348727055587344
