# total energy = -340885.6337725164 ev
CRYSTAL
PRIMVEC
9.11755564258740 0.00000000000000 0.00000000000000
0.00000000000000 9.11755564258740 0.00000000000000
0.00000000000000 0.00000000000000 13.34446429957893
PRIMCOORD
 96 1
Ni 6.745705532227131 2.369762098308215 11.117539683859318 0.4854163064309769 -0.4328714424547255 0.784936712094661
Ni 4.710958895075911 0.6317408360230345 5.920098112528361 -0.15134670203751352 -0.8490829077552667 -0.8560932776348288
Ni 2.8122644218530795 1.7056758222133173 5.101308800870448 -0.08898922284621448 -0.7054243183906302 -1.3974845567695287
Ni 3.3548866229007994 4.520784921398232 5.053695102273288 1.2318936861081753 0.8030593898373009 -0.9065720031106709
Ni 3.5505128947978304 3.0363739372906733 3.141086327524446 0.4996445342152169 0.5444390648220881 -0.5948848801774658
Ni 5.474809464007187 4.68479151064524 2.1519819899339563 -0.3805194112155705 -0.2419798882450542 1.5817511494635146
Ni 6.079686334355473 3.2826755829388086 -0.03808585304661992 -0.9814263292174001 -0.19215190897933357 0.4229287294197168
Ni 6.141722182322819 8.333564301613572 12.407936379891222 0.4822335378276211 0.5123339567574273 -0.020922866195596225
Ni 2.0429524371469006 6.8218644737425995 0.03109724671696509 1.675668662849282 0.2951076213079692 0.1505056941934569
Ni 1.0887820136491344 0.5869900498688116 0.2562607515762266 -0.2878841069763365 -0.8816305026739849 1.7105071106847056
Ni 7.672860638628005 9.624218112712006 6.921773735712233 0.18020116437536063 -2.767818264155878 -1.4774970300384296
Ni 9.27738629956123 2.778420055648671 1.3937496587330573 0.37715769383218917 -0.2513286764498059 0.21622746187129857
Ni 7.232181826193293 0.9841124759264503 4.612473795283305 -0.4961331786278487 0.3665830036401364 -1.088167476730397
Ni 1.2613864577805052 7.8634540198610186 2.5277884828694814 0.8533411688109884 -0.8365356672178754 -0.3619938416075572
Ni 8.04439190976578 4.0985326887315985 3.860032935368246 -2.3481244967336914 -0.7053811238575207 -1.3420847398429856
Ni 8.159874868371661 4.184894174908364 12.5894340877068 0.9050712501954283 -0.12087218759774022 -0.8313299546472199
Ni 8.302528142518797 7.1782423675550175 8.966492243369315 -1.17796171197641 -0.2671211633973722 0.7332212859982404
Ni 7.781423372570862 0.8155015211263108 0.17699728239572518 -1.5285635096969419 0.10430219905420102 0.37734512725264685
Ni 1.8430500316965648 6.855043258391802 9.09437234225756 1.1577065612717996 -1.5269897374519186 -0.11471928062246693
Ni 0.4001986893004639 5.3954867307156045 1.0104704172681322 -0.16750171453082122 -1.4569945392097037 0.6922800676991884
Ni 6.235414183162392 2.229679974826393 6.601306246192025 0.6036986218143539 2.2836132044241833 0.5664171117550761
Ni 4.041347380317254 4.559953940044283 0.3582351398781072 -1.2804780227747818 0.14985443376270322 -0.748262239491763
Ni 6.247823176266972 5.71651586165774 4.613488579216104 0.6385308990021906 0.07568504953814063 -0.40029993627660737
Ni 5.222262292806783 3.2424945156266247 9.492103821025989 0.06254002751575036 -0.2941696828747321 -1.5864153877084033
P 0.5586207757726329 5.810198744941763 12.105150565850595 0.08436895046538374 0.6214932267936136 1.5829881071944092
P 4.387887431690406 6.426053152173159 12.460833701930046 -0.5574884418068785 0.14312225724519223 0.39861869191944255
P 2.9109528431344676 8.69667095142245 1.2530229240737962 -0.6150659831110311 0.31994730605946836 1.5041997361405965
P 6.559050934992044 8.231529737445058 5.565442524959481 0.6551733926548781 -1.2994990439619747 -0.20517943158725307
P 5.326211543640957 1.4199407488081601 12.459926505152746 -0.9789372442469592 -1.1414186227450536 0.15151048130888745
P 4.025537538992243 6.490951912583444 7.975719393113038 0.2875822594652015 0.5840363674987361 -0.5761585074125561
P 4.943538619620158 1.2961699322066413 3.5678289562998273 0.6386268011501066 0.6932480880394126 0.026478763016818913
P 0.5440627748247401 5.866372004689973 3.422094860132091 -1.5958891315267936 0.12100537074149484 -1.1139980646402556
Ni 0.700675026520084 0.044031411021268216 4.581487782744059 -1.8528582940918281 1.5595748704767916 -0.5244137707400969
Ni 1.7969972586096938 6.640406883171444 4.9668093566523535 1.5968291268425596 0.8580087494899868 -0.6537433450765708
Ni 5.91345506155408 5.855376232695762 9.116444120734831 1.3623913126108216 0.21126574699064907 -0.6299205316253602
Ni 9.290606755109827 2.3385709407690776 10.009709273153545 -0.15286031046856252 0.28289462418154504 1.4882339568399596
Ni 2.219130963054168 5.3687905280629895 6.971095152464051 0.6291443155809681 0.24650091604385935 0.15999615018239544
Ni 0.6791530366425232 -0.3180868957659062 9.145922089585982 0.205761015122336 3.11510873811499 -0.3309629404436817
Ni 1.7817618232843802 0.9688223352678317 11.468019430985953 1.7996997077909782 0.5869082897298925 -1.2331301296184374
Ni 4.438526335219308 7.056486530730216 1.3808720232731688 -0.6260862454809346 0.3597251001780385 0.663130956939058
Ni 5.636472841477649 8.202909730571232 7.586194626095844 0.9051962058090669 -0.5077967310087061 1.3350800263903781
Ni 5.553940728632202 3.317741701587018 4.49134615803595 0.06157946337469395 -0.39301111592467797 0.42978766132307916
Ni 0.36430652011935594 7.7267180392663235 6.782644396785465 0.37766111583116896 -0.1541414911738313 -0.1543878028566825
Ni 5.141052225516195 5.003796544255107 6.825346468207433 -0.10464415577465203 -0.24879125473993277 -0.2052246830028917
Ni 0.5184497377715549 7.961604505364912 11.462707543122082 0.9169980835400013 -1.123214441032201 -0.086250997979445
Ni 4.69551375597293 0.2560264303985721 10.36033490116899 0.6907754581292039 0.652092182626393 -0.3169586557447896
Ni 8.277236043420999 7.459363957851491 4.246422175031534 -0.5544347425822193 -0.1381937095953233 0.585995548107636
Ni 7.3383284079152 6.258417775816951 6.9677189216436055 -0.11282334915133473 0.03573550572839652 -0.4806427963017335
Ni 2.478115128473405 5.845483684923191 2.452699030620116 0.8779237432463589 -1.548842571660952 -0.25431321299942655
Ni 2.6743249239256848 5.387317400942127 11.264129006737717 -0.8170479908069089 -0.42692473795298735 1.0531505943355797
Ni 1.1078012345280126 3.848802842196379 4.105865026905517 3.344033335837983 -0.9825249615982176 -1.327738241313326
Ni 1.966182619409531 1.238410217792599 2.7294369002077867 -0.21023859127771535 0.41132791195599483 -0.7583898148440681
Ni 1.3380833350734687 3.305195945149177 8.212116638166385 0.0012341295174172293 0.56286976072345 -0.7812857456056351
Ni 3.897891761281652 2.9781492275435424 7.0692565790346045 -0.4747742533360985 0.1429196543160829 0.43240838677537796
Ni 4.654913281105411 7.174631815556918 5.5228334526041305 -1.5836877043645952 0.16988178472722357 1.075335615073051
Ni 8.893345742207817 7.565510539573398 0.3250654727844552 -1.6649301933858554 0.5168804384775292 0.5277497770918653
P 0.41703881440271107 5.716844093657567 7.967312095139685 -1.7584800390195585 -0.6047376046018295 -0.9161737878664931
P 8.784819478487162 1.6631333080134874 8.066942359909467 0.7682219704431414 1.0630244018058659 1.0191693522941287
P 2.191158302624447 3.3371529773545783 10.239367732899328 -0.5537400305080399 -0.2814645766032378 0.6303013120035467
P 4.302656522401935 6.1703695418632964 3.622728493537597 0.10385996931045983 -0.43825507536414204 -0.5981450389859763
P 7.217657560200938 4.317399609727508 10.452091244965139 0.7689321091362886 0.7827900980653034 -1.1183100617520483
P 6.767441784660134 8.06054821820172 10.191073864658081 -2.8237209888607695 -1.4000867702790663 -0.5235946172729111
P 2.2569597010342566 8.628444283236139 5.643134127563032 3.2011445347598357 -0.35488859802134365 2.1280131264269544
P 7.506510837604454 4.088047499848229 1.403303945194695 -0.0735435777151056 0.8987195969457876 -0.007992531287173331
Ni 3.2627172538382023 1.5984807216030734 0.2984358282873607 -0.05936368667029777 1.4549371424600428 -0.19801530973864606
Ni 1.469257606782202 1.0063775465813976 7.133696726400687 0.07776172956151124 -0.0032994966868781887 -1.157199539728394
Ni 6.704020068249072 1.3265222746351095 8.910112015110103 0.35470090749056976 -0.2355179346697944 0.8887704561528758
Ni 2.7366890038928586 1.3908010412679426 9.11418934924713 0.44375440791581644 0.7753323562356776 1.1211071648812112
Ni 6.5642479416559745 2.336081848103721 2.354710837605027 0.7183698228077048 -0.3788973022311152 0.3458681396902882
Ni 4.138084644710781 6.897950474813662 10.241382712676046 0.11132053935356312 1.157974984441838 0.20814802729727375
Ni 7.334726973472651 6.4252508072846926 11.605359905513664 1.7031817806678862 -0.7192907919600774 -1.6614576614562224
Ni 8.063648187088978 3.8324185948716694 8.421905209100407 -1.196150981290927 0.5547964967970123 -0.8980680794047179
Ni 3.8193257851007836 8.6129353212443 12.68361934830167 -0.835583073496619 -0.6222396180413349 -1.8525325353212936
Ni 0.2993731129979785 5.082335167769323 10.150880032768127 -0.39541509738048036 -0.8659421454044506 -0.18736888576839345
Ni 9.059130254787222 2.512789192232932 5.702730117664997 -0.899194222589361 -0.2760215512107956 1.468682002849961
Ni 3.8261001288749954 2.9927373164247526 11.490864378173928 0.7430894370415718 -0.8976011670706283 0.7295029566063888
Ni 1.558354359624194 3.4319573199713442 12.52151103412033 -0.32266779031442494 -0.1761874152302772 0.22236879888234606
Ni 3.2491959189564303 8.59290405169929 7.851215525045237 -0.08323843640536632 -0.7722010096955475 -0.5078928902669382
Ni 5.887697967123193 7.941792057153118 3.3644600562290936 1.6127208583721513 -0.13717786673629923 -0.2630271958336567
Ni 3.7598063824654453 8.628617516791603 3.6710086854455177 -2.584300633812775 0.1556972656967254 -0.2671733567915463
Ni 3.316538184254318 4.714970619518244 9.046105826682966 1.1566524089756725 -0.18518807606699075 -0.3570619515235786
Ni 5.367413777174827 4.861042976996913 11.226030389113326 -1.0519791997352979 0.13555858596532136 1.5649687877988532
Ni 8.725263605629621 9.317503543984559 2.4344301845630656 -2.0390709547685915 0.8287303122408437 -0.8740562898711527
Ni 5.157737352174079 0.5650057999248277 1.2186242104919023 1.0785361242882199 -0.8450149083334803 0.9223169246497536
Ni 6.231083344275783 6.066967344362166 13.587867508136824 0.6877305006552931 -0.5684840215864339 -0.16842294079350995
Ni 8.032858201994074 0.372793140826 10.814874221551962 0.7374116699305042 0.8602702918306538 0.18066190606186305
Ni 0.02002762252279166 5.303271773875254 5.587994798614277 -0.6751274671793018 0.057587054385849205 1.7651453668548762
Ni 7.487136032059095 6.061642691920524 2.361849883601269 0.7505060412206171 0.6111568778646119 0.37970565706502346
P 9.035415492799704 2.002543430945948 3.586711413845444 -0.24462143963295935 -0.25567975432964996 -0.6063784826393622
P 2.4467325022677016 3.3241057553614457 1.3374751941182332 -1.0872267100836823 0.6358718641127888 -0.1428954859463668
P 4.7400165446161715 1.311004195087722 8.075068837171855 -0.2620517192942648 -0.779482116737993 0.6436497082859948
P 9.068183987449123 1.7737383743997142 12.148986861183078 -0.7108460036268339 1.4692306762645793 0.8604279004544407
P 6.9363445012378975 8.069893712641246 1.3795372131405381 0.04837916263433604 0.00673706161351743 -0.4074427179689757
P 1.9673679016311294 3.291154909601012 6.154186792516258 -0.7464922920755337 0.6311081241755583 -0.24110262784642347
P 7.118267087142141 4.216477387336185 5.969405852946852 0.1120137087658458 -0.27758118238843166 0.27765548726979283
P 2.5334404555553958 8.428405114452541 10.338236681780621 0.42714096772885146 1.1609016711703297 0.30648963789266576
