# total energy = -381167.78850615973 ev
CRYSTAL
PRIMVEC
9.32070363035584 0.00000000000000 0.00000000000000

0.00000000000000 9.32070363035584 0.00000000000000

0.00000000000000 0.00000000000000 13.64179191418346

PRIMCOORD
 96 1
Ni 8.961185330347476 7.0526501183524655 2.8266608580777297 -0.05359078874226254 -0.3291086608437622 0.09041181422535396
Ni 1.822691532704935 8.416585945196562 7.696412468103502 1.1114318465749762 -1.4784583655104344 0.4839142679641537
Ni 5.4644488444509784 5.406520672161312 1.2686679842391246 0.23741000948618468 1.1295851204452352 0.8058240970666315
Ni 6.398392656453695 8.39625749085002 11.071568765397645 0.39651141576845256 0.36531082179593216 0.16928708856601812
Ni 1.10776561168574 1.7341634908051355 0.046261447711231245 1.420976983464514 1.5650117252216467 0.9263553563851852
Ni 5.155150619308533 8.224831111968035 4.934140893985783 -1.1518994676717196 -0.669677242698008 1.5052351193836464
Ni 3.279247190287958 4.904600788364282 2.4162479130210093 -0.18121546457248794 0.832473838443676 0.2420642204287444
Ni 8.529804530683704 2.456713747292222 9.125103882555397 -0.4342654945887747 0.9329918878650963 -0.2475715234002188
Ni 4.225913762576337 8.818942074142713 12.087923441589187 -1.0393890217751132 0.3081019766851081 -0.038152599810321396
Ni 8.24148720913322 3.964151125314391 6.765619053885807 -0.6318318897154602 0.23381972103176504 -0.09732011130941305
Ni 8.811028796866136 7.648010054796947 12.013111746968786 -0.03424349456390232 0.17845564243916362 -0.894853429122162
Ni -0.13127931267067852 5.104296860979905 12.781485378102323 0.3179313040707041 0.6143141925466711 -1.113211049962586
Ni 0.20111561575958534 4.078814419844958 1.0712601443342182 0.24567456348782202 -0.43814348948694215 0.9467547459771437
Ni 7.342151169248209 2.803798104447911 1.1722266650627482 -0.3755939488894951 -2.1028037170408624 2.108164981352776
Ni 1.2393832658936856 0.5024679411631824 5.736783023629408 -2.0891010227427893 -3.090829039632019 1.0278681656197073
Ni 7.324581643139435 5.6961615336096445 11.114103795847184 -0.26567337520725215 0.08443554203726103 0.2790192003865388
Ni 5.9802845385824375 9.109645495790728 7.095695923354133 -0.20445078095134467 0.596206941422999 0.23386522955771982
Ni 7.594760875667282 4.82713642152608 2.373453767014003 -0.2213737819589284 1.7352048705417018 0.3236167844912555
Ni 8.958109498190504 1.8509891885490906 5.022607419242444 -1.6941245555616242 0.6329395209573422 -0.32549600379183946
Ni 4.578245675805892 3.478356058582706 0.6231449535958085 -0.8181898177208361 -0.2705669558541276 -0.30910033604263537
Ni 6.295650541707277 8.70440926946123 13.401190992104425 0.49285785031068674 0.659870026799599 -0.05863169360027967
Ni 8.22801879256708 4.923288798893771 8.929726091874093 -0.9527364174818753 0.4249308474514101 -0.4938366692841882
Ni 1.06735104128381 2.558244170582864 11.298118716884348 -0.18746684479883843 -0.3826860798495861 0.2727955880743302
Ni 4.901096203846032 5.648672549246676 4.408645222740727 -0.29765969830586153 1.6252215619423236 -0.7642771268627806
P 5.805223085333119 1.3562835292656885 10.811160426355118 -0.35821072041604113 -0.4137288080880036 -0.24775150062150883
Ni 7.183680568239534 0.5337622031845106 9.065652707312854 -0.86624502135685 -1.2691618264310143 1.5330336296531535
P 2.139138737436467 6.15418090389351 4.311037883555753 0.2976550703201713 -1.2141062802177671 -0.48748450181391517
Ni 3.0084900741427405 3.2671582378407016 7.358423253428948 -0.1848062672475398 -0.06090943389086284 0.2931499833609661
P 8.386535997093283 6.3893608947564 7.115108152546038 -2.6036209314079417 -1.0235337999104115 -0.34951190709046254
P 4.487443382250634 1.6895825659360324 3.8784025172000742 -1.562601316007941 0.249361525421106 -0.10153234961854773
P 0.9996920545339003 0.17873287836032462 3.551681100993901 -0.3369530965888455 -0.18913651919177749 -0.241883471876506
Ni 5.33684841345411 3.5516074674362037 2.980076841575111 0.2848916000069158 -0.14682593134902452 0.6888234766091557
Ni 2.5307667366472346 4.628596116145197 11.397922013815332 0.7173444668669838 -1.0860154633844004 -0.5679232639869574
Ni 0.7690857328813937 8.448285657820401 1.2867771790808935 0.7473582396202548 0.8201582543011167 -0.20596567493397433
Ni 2.482634623742353 1.9364041154778926 4.8540909639950245 1.3418615680885857 0.19292298281740322 -1.4050245739003158
Ni 8.88099931808553 8.667667056240656 7.1914475104710665 -1.8440190985336435 0.3479777298341233 0.5657324269832257
Ni 8.586903160361338 0.6971224452524222 11.076697948536985 -1.209772942949736 0.0993008891848677 1.0316754551809395
Ni 4.881336312413355 1.5262931612147665 8.481866288411746 1.1117887156937627 -0.33581898298440227 1.492731844710313
Ni 4.463927247305046 0.8478093267632526 0.6666008695517397 -0.8431732271390511 -0.7372908280819238 0.8336362341828933
Ni 1.9950965854550495 5.785575042342512 6.585097532522684 0.9068735935114898 -0.41629014105727663 -0.5505837442672453
Ni 2.632558139636044 8.00669868781758 5.245118709900007 0.8685183907720592 0.14599700768982599 0.058670003037382824
Ni 3.116200123857847 2.600895709826229 2.2312925330000923 -0.3464762055879323 0.4224011390510209 0.3100346749314467
Ni 5.790393846055104 2.0900279506634574 13.04036605384022 1.8279034239187035 -0.2445803019823788 -2.4197659723300777
Ni 0.39895127595541624 0.5355881290013321 9.15613902901926 2.2761531486017126 -0.30894632696327434 -0.1732645851565274
Ni 5.195984621368233 4.475978916938279 11.651590552152685 -0.5448951785229004 -0.7474741963728289 0.3872240769292557
Ni 4.273160408648151 6.540440177884832 10.891742568516067 -0.6284151507244274 0.20104406926264087 -0.616145589328455
Ni 2.829663056677006 5.75402446097477 9.040443000540229 0.6922250460915368 -1.3853898303885237 -0.22570171991032098
Ni 4.296508770930631 5.179841162895874 6.91966232072914 -0.2216838570001795 -1.0514408107333246 -0.6037279323903925
Ni 5.211596799740749 5.059865067366898 9.118746230693967 -1.1551300587938753 2.5569572088028156 -0.32423539191186096
Ni 5.500231025210436 8.640609053962796 2.8406027663819744 -0.6323545949881497 1.7185253530034919 -1.9040016497348629
Ni 2.8531885123260996 0.7936569714638586 9.398703813269938 -1.8684070404597048 0.6664682488424071 0.6464244428176545
Ni 3.6009046682793326 5.519897709608055 13.294866931000659 -0.14526192929601434 -0.7721261905935541 0.24931498845388675
Ni 2.910333745521264 0.401330851560493 2.4953023918773307 -0.26459016944540237 -0.5566456341906091 0.5668703972424108
Ni 5.764780552820671 6.8665249900415475 6.921886240585667 1.0047331222641405 -1.3053261921667132 -0.900597787805107
Ni 3.233156311450886 3.9545974042207614 4.762554199003494 0.38372094887200364 1.9660791357918976 0.2392267509799493
Ni 0.6906995484664513 6.45059791679069 8.40442149505091 -0.40855446297591574 0.7203439158149401 0.5409559913694942
P 8.58944771241847 3.805466148125079 10.801925473321392 0.04078360967526525 0.280243302601627 1.2224495099761397
Ni 7.130608482476482 4.615752186713957 13.557458178804286 -1.0394252743296872 0.7543434126888363 -1.3308639314265016
P 8.787661793176644 8.039917675112894 9.714347573359253 -0.722345005405369 -0.7576092279243016 0.9108220366362765
Ni 1.4210437772252387 3.427893769801329 9.165469985299096 0.41401959985554504 0.7386825662231279 -0.5914295746390138
P 6.2981950937644084 3.847064447872268 7.665677448292532 -1.0347569223197406 -0.6345058370031976 -0.3031706008217618
P 6.1998337096658 6.733276212720056 2.76913347603882 1.1758436371921428 -1.5145849360296624 1.0439959244195054
P 6.655513583369664 0.6292919575580024 1.4202328760202183 -0.6980275117059269 1.4995257277036949 -0.9758244096495904
Ni 1.8192149102972042 6.3076369664159655 1.1060328929039782 -1.4922723885753912 -0.9426558933174216 -0.3700516789150272
Ni 3.0444307068618 0.8015767732328899 7.006765227062875 2.044499067762698 1.5033561571933787 -0.2158114573798025
Ni 8.698993940724256 0.4202127327229076 13.42280011111269 -1.9322709289932014 -1.1659754861488112 0.9386873955879769
Ni 0.9544213976053547 3.68466050998407 6.119598297675271 1.8573898634135948 -0.9045472593711582 -0.5972973462737003
Ni 7.410182984138356 1.5209803602163576 7.073732617612641 0.5401494363077989 1.7170886205569653 -1.436563010828229
Ni 8.221596827851458 2.6350188053616224 12.733480026765124 0.9582223802971108 0.33687184972894885 -1.4312284859891933
Ni 4.408291968077851 7.50069633588493 0.7448686810321561 -0.11799897981500324 1.043357519504558 0.8711499148576352
Ni 1.680979556600013 6.582122363963576 12.37700692496786 0.5329966273131014 1.8266140156833188 -0.012936505556009977
Ni 3.3117857662273344 2.273319585108557 12.468856865597191 -0.17561663032847175 0.2907426594710541 0.04683932895104191
Ni 0.6659316430400103 2.2781756716351724 2.8281885213823594 -0.20048176900126763 -0.07876625956662564 -0.3800008197079391
Ni 5.040571211109519 2.249216245842092 6.428052999150425 0.06701606100923296 0.5134379884548835 -2.1196626975797304
Ni 0.5260968566211925 4.792621856443436 3.595498660245864 0.33779076199879243 0.12990910098902786 0.05113667077481516
Ni 1.4117044323122465 0.14375134603203055 11.891672300989372 1.2254083354941478 -0.7647226990406313 0.2013068360057243
Ni 7.327778644441986 8.84072455823619 5.152613523814206 1.7046843333553414 -0.2073738681354106 0.10947294462186308
Ni 0.5904982574957625 5.619144560539731 10.600381105200531 -0.5164271529901945 -0.1421786623850003 -0.8244607383312123
Ni 7.787280006583301 6.949917324309551 0.3717534631249662 0.3687165050433715 -0.47552578679014224 0.7869977083887478
Ni 6.519272860222751 1.3100808019865449 3.890175497798478 1.0018313752363133 1.1301420213899698 0.008945125008429755
Ni 5.588488766708562 6.613234872266537 12.745170985172674 2.0022887529432354 -0.6079820796810561 -0.9019388752140337
Ni 6.388512710737356 3.4492475015335295 9.845172035698841 1.438996045749754 -3.067954449026691 1.1687286234139163
Ni 0.21149049083209184 7.14408621974613 5.608467694673631 1.2375228593694945 0.28821320818098106 -2.147183528707818
Ni 3.0603038649324845 7.450681440871841 2.605909316242096 0.3563739243176185 -0.6289409413209104 2.3199248943710242
Ni 6.24657703774829 4.150005953223634 5.45745365646974 0.4613412677596441 -0.5278446507985167 -0.651876209960845
Ni 1.975196883469782 7.65964229277241 10.079756433607699 -0.013523745518047678 1.0336536619532328 0.6824795366689987
Ni 8.270157693117616 0.09551577331823272 2.5821042394878226 0.8835174352840527 -0.14972459305305827 0.9944980747996935
Ni 4.430577770160649 8.602841563356565 9.574355267051185 0.9455545550214555 -1.024700823635319 -0.6296251118721286
P 2.2472588981058363 3.895615992434919 0.40715535918137996 0.6067579774659679 -0.5140699656119275 -0.21453361910864346
Ni 3.8148893793696246 2.93206962609721 9.90455423773544 -0.3245002155374734 1.2259582944603467 1.0802276530580301
P 8.073994167130756 3.3700867666572405 3.7625564253945982 -0.3826475133021668 -0.7339735907832328 0.6659650839537433
Ni 7.484357142638947 6.33315705261534 4.65773077116419 -1.0721073379437407 -0.3746881492457741 0.13769594402329835
P 4.076866392812208 8.169121267112791 7.109446757236505 -1.2460591789752797 -0.3396884932421375 -0.11899219696620797
P 0.3119686066969084 1.7114489363610619 7.315943215130093 0.14184184787087184 1.117280077825637 -0.7173321255718097
P 2.564172138012667 8.259951522778568 0.025715820972999216 -0.5652668002007168 0.5652256625501362 -0.48613724375740147
Ni 6.662084679341379 7.307729811200623 9.025504709031194 1.164337436324756 -0.4360223293788813 0.030468600902502366
