# total energy = -340887.62942370784 ev
CRYSTAL
PRIMVEC
9.09822951844200 0.00000000000000 0.00000000000000

0.00000000000000 9.09822951844200 0.00000000000000

0.00000000000000 0.00000000000000 13.31617856337421

PRIMCOORD
 96 1
Ni 6.390004994763419 2.095231264630223 11.523128710642704 0.19972560756153343 0.06907731441363588 0.7072143204115175
Ni 4.714347680368497 0.33796101224413283 6.081232012481769 -0.754964591212603 -0.9291568303897225 0.19844339841500014
Ni 2.9240435764229837 1.6249255868705919 4.758669705231261 -0.18384441755490274 -0.41242782988839294 0.388024461343364
Ni 3.1783026971896526 4.040332644777128 5.01615141887618 -0.2396219295358389 0.7959888561437646 -0.509821731858535
Ni 5.133739666014399 4.191153994700161 2.6063752551885835 0.1916978521610505 3.2503932444833183 0.24289365830857526
Ni 7.189593793498764 6.0028116432116 2.4779673935647235 0.61232852957521 -1.616430703123571 -0.9916827168380856
Ni 4.878707195742785 4.542036312437489 11.649126451279978 0.8807573560404123 1.035550107644997 -1.0318058101112166
Ni 5.675866767209659 7.869504481786647 12.46820456736286 -1.3739815885515823 0.1733319480593531 -0.14809785608291268
Ni 1.74768799710836 6.549906377697443 0.388891990993855 0.7881307935519265 0.7035571832749045 0.4817146892096736
Ni 2.852549689248272 1.3944310414793806 0.2483225260375396 0.5138359952242505 0.1378520099851884 1.1796244443908135
Ni 0.8017259728378313 0.07211802571634864 4.867715624720163 -2.038082622713393 0.47047768284327357 -0.4942238774202779
Ni 8.712974041255464 2.305973553842216 1.4663907580029523 -0.02865237362937001 0.34743908372183385 -0.21373066359137385
Ni 7.055704248619271 0.7455735201953161 5.06207837141744 -0.4542676487423144 -1.1085856353754326 -2.8207189688096515
Ni 0.445717712617145 7.555115162453209 2.3210502298968376 0.8462215270470717 -0.04033675194583376 0.4290479549435772
Ni 7.728017915299763 3.795217244627739 3.713363203555618 0.19766358282618218 -0.22501446403530925 0.2888816950029154
Ni 7.9438097218675665 4.029460260560562 12.643032505565252 -2.0893195665114983 -1.5363711786668186 -0.16210239789212083
Ni 8.062341455401818 9.042102492330189 6.9993034143122275 0.11678207668876663 -1.7443770239592733 0.4705856691760476
Ni 7.0885579552351885 0.38387067814940057 0.0946952821459804 -1.0076500388006195 1.7490296922399362 -0.29141680271994325
Ni 1.9950051687894723 6.5808494561246755 9.159386858604114 -0.9271734814111064 0.09397896275132202 1.0382883325117667
Ni -0.08886240723280815 4.844825389196766 1.2768418845182148 0.7926122263620479 0.24529301177868723 1.3709744262941423
Ni 6.248236383162967 1.950851461171901 6.8276971591651385 0.32683272032539196 1.9652520119049122 1.7820516556919115
Ni 3.5257367859578768 4.58759114739343 0.5929643681814422 0.24716348932852272 0.29301114379025667 -0.7611365243512699
Ni 6.33769017531132 5.854073787837181 4.791933741996273 -0.5371944674445329 -1.1000950814059183 0.31913098080576
Ni 5.7540933441921185 2.895302269527474 9.322975753942297 -1.8738266688133793 0.955727124679083 -0.32211114648000655
P 0.1754966580684304 5.656787780011215 12.552243093330711 0.8979441522323439 1.3135704344533763 -1.1130066472612639
P 3.839325461097961 6.385537764093684 12.643564751989242 1.0763113487227594 -0.2761485637069631 2.345970426505166
P 2.5931955599784424 8.39157908523018 1.8085633406687158 -0.8815371716292302 0.09628627072825997 -1.502631363212212
P 6.454556932852574 7.805753187890846 5.916031820704458 0.3544826208321766 -0.13108255247183875 0.09111115428522373
P 4.8547606557779295 1.0917784381621527 12.66637583291625 -0.06095648507871437 -1.0286644362687574 1.1539108416747934
P 3.826205814202321 6.046810680928183 8.225177017339893 1.5396639904854774 0.4258746994219182 -0.6558557634338834
P 5.030620333202211 1.0555401901834207 4.066095191344183 -0.6213698138418717 -0.29045263903446106 -0.5818964383375979
P 0.17985743945336793 5.657806781711848 3.4510339532491208 0.3657473951127185 0.1658523518528563 0.2098894354684127
Ni 1.5619931336270847 1.1843802177071021 2.6668448177145803 0.6801431752263383 -0.1080179573428914 -0.5108419455929332
Ni 2.1181497046649773 6.382216910337158 4.781613620308532 -0.7825800389370263 0.39754268524644437 0.14989274319980636
Ni 5.915368559776102 5.489735188713826 9.258352849663277 -1.433213634740022 1.0307285178866379 1.014671207313459
Ni 8.708070095571173 2.3400828161249843 10.522231576832736 -0.1949441270124901 0.37995942494704243 -0.8100520191050501
Ni 2.1256830386660797 5.175746191477066 7.133503208816645 0.38262051671897335 -0.7523418088777752 -0.06972317552775088
Ni 0.38048704660953353 8.777999087277056 9.037956429160742 0.44954067558029026 0.6975210043831536 0.9057232819571305
Ni 1.4709653477804332 0.9968293154139612 11.480742789011138 -0.5549805877833603 0.9765597451537181 -0.016792646077306565
Ni 4.432957639322496 6.708106391720588 1.8481260816957603 -0.4697737147977135 0.11343244349024337 0.04680693305120971
Ni 5.446500402272719 7.723787238596246 8.029176589338029 1.9873784114903064 -0.2140957602402764 0.7657490834226168
Ni 5.269521642623636 3.1433291031072415 4.740346780901769 0.9931042797759605 -0.28805739932940716 0.4678196763951363
Ni 1.010449364930447 7.325657815221569 7.037001018297936 -1.145302788290808 0.6308319876960361 -0.5553233158347597
Ni 5.11916430240357 4.666345421685145 6.916436740300103 -0.31161153250026336 -0.45855522037407476 -0.21220034298977647
Ni 7.9410802530265885 6.979515675038075 9.278459936791824 0.926202632857405 0.5748161344520488 -1.0418128007252572
Ni 4.422230826777448 0.5417795488295089 10.664967330225842 -0.3368553946687166 -0.8304966601126471 -1.0551696816481375
Ni 8.298950010996823 7.309226412798876 4.508058974482035 0.3359673356368085 0.4186964365059241 0.8595478118423324
Ni 7.129809327651853 5.9430726685120385 7.154143452192128 0.2960303902325547 1.198318164145575 -1.2979792648833388
Ni 2.290915984069482 5.445363123588978 2.498621284284412 0.33419970221342443 0.31851854403274177 0.32329205416198514
Ni 2.3118328136208515 5.517712244333862 11.51102442615591 -0.5393264261858711 -0.6883673629083435 -0.568222283284615
Ni 1.1066813380338982 3.6715996008197975 3.5184008835362723 0.15589755463298957 -1.5387520201941693 0.24458158753395945
Ni 3.9490319120463786 2.316300044290587 2.4927219922961092 -2.7757550025044515 -0.639739317487995 0.13672895212433875
Ni 0.791483186100584 3.38329490537665 8.496241477760469 0.4208525636169784 -0.4753206127578717 -1.169317920258483
Ni 3.49276480235885 3.0230596077442335 7.552163696813164 -0.04522699015859953 -0.5844757690289999 -1.1251196284747138
Ni 4.23041285486291 6.980398203296659 6.036609746046497 0.21403739619851525 -0.54038777757085 -0.43841654064267077
Ni 0.6131633474276342 7.53300646484128 11.270187923326226 -0.20675114694974714 -0.2966849930974181 -0.1280843890754633
P -0.04605523757678661 5.531714419488084 7.997150821603873 2.058039268340978 0.436207448806494 0.49349779788753073
P 8.181737520735712 1.7021877515292392 8.177412222445707 0.5137254377883153 0.4069297828882992 1.467484382997434
P 1.7842901742658892 3.4468642346830523 10.55656010644573 1.758314974196604 -1.8425232307144075 -0.1029963357585839
P 4.235225818252503 5.814751240068143 4.16910898469452 -0.647583239012446 -0.27524224984260987 -1.6331958383970517
P 6.926454800769443 4.080191988084893 10.764745793176674 -0.4434697867958621 1.1026291606816816 -0.9677303197875463
P 6.219394995743289 7.809401577908288 10.292233794770585 -0.8603155432462927 0.4791109330382394 -0.6809430454198143
P 2.4300552073531243 8.465738753639583 5.764733723557201 2.399943795397828 -0.348759088084838 1.0384590537616762
P 6.990779283121849 3.8371327877957073 1.4303708675314988 -0.1824681060326664 1.1730254510170572 -0.06928737354191293
Ni 5.195079929100668 2.8729297232609157 0.5181641844173581 0.31414329778318156 -0.16489050216021925 -1.0850937229010795
Ni 1.2978624338855413 1.0548123318258265 7.294416314867724 0.47220392150576096 0.2303147932023001 -1.146012155653007
Ni 6.409120374879742 0.7753283698537758 9.2726279717016 1.158822677154114 -1.658143509481325 -0.5543072158654196
Ni 2.3887765402480508 1.6217866977034658 9.302069842266294 1.0647588679984696 -0.5289977905663534 0.5604179567488478
Ni 6.232678410769386 2.1107892370238037 2.5793971851643462 2.6527284875678703 -0.4227040150034205 0.37420118230702654
Ni 4.151103588573529 6.927173560897568 10.663995639318454 0.6076128692670956 0.46044600963888443 -2.3428964155655327
Ni 8.218194126221722 7.319552903247247 0.11443662044983492 0.5039200216621192 0.43055282162387787 1.0192277163358898
Ni 7.5359451929600665 4.087934581363803 8.526482172872624 0.9036432594996501 -1.8495562263017888 -0.16173010215436665
Ni 2.726985024333766 8.317892524753217 12.268221844322008 1.444880786665305 -0.2634748248940365 1.0024746652472671
Ni 9.404293909298639 4.851030381695257 10.347336311732269 -2.1851579510690624 1.507167817629985 0.07357314540146039
Ni 8.641325484179765 2.2065662986537586 6.090700539891126 0.5924299908790701 1.8227871857380606 -1.04942815117867
Ni 3.700122550208029 2.717850401945956 11.617925892958748 -1.6255015550765877 -0.7321123692047778 -0.4407999532731827
Ni 1.148551390054517 3.6639934809829358 12.765567460066272 1.342520541828823 -1.3271147487967143 -0.21230318711622792
Ni 3.25941341291408 8.292162731812255 7.851631919815916 -1.6658287939407246 1.4275422953868575 0.9076521235487272
Ni 6.222115366354798 7.769269287716426 3.423962171461344 -1.4475490775260877 1.4211785579523588 1.9043798590098882
Ni 3.5106701179556725 8.204665058999936 3.6975695870187666 0.3272268704400171 0.4187468301278853 1.2211377331432518
Ni 3.6562599859334957 4.313916404937929 9.46601811766854 -0.7863215082573296 0.00782720935390265 1.0052326876083784
Ni 7.411344940369372 6.355222463499876 11.447452367380667 -0.34921391623406955 -1.7013007615950893 -0.0327666529080597
Ni 0.8206157168633004 0.1157958959326425 0.44356598134750647 -0.5864586037869836 -0.5212626267056248 -0.11260686226515446
Ni 5.119737490860176 0.16518199531837055 1.9713406739381838 -1.534512528191525 0.21401502760101207 -1.3410424146214002
Ni 5.895452535466425 5.55059324563819 0.10037348715816384 0.7681744050346577 0.38843146697379555 1.6577755846189448
Ni 7.785755279515939 9.134076494041715 11.174310781172103 0.9984804564862095 -0.7574030254507665 -0.400767105721013
Ni 0.16245434612328546 5.130409714028405 5.72897950138627 -0.7771989771307711 -0.9672790911827406 -0.38625682791997995
Ni 7.697256801461929 0.12476311089820569 2.2289015421794907 1.3458084685514757 0.040583577849317196 1.6614275795492355
P 8.736156329944846 1.5186491684323373 3.626208533994316 -0.5019215031748517 0.9790791691414623 0.37721220121920845
P 2.0756063836635836 3.2638897418132857 1.436429378535525 -0.5301568438714612 -0.6642259897754497 1.4253884822686484
P 4.5523900975742695 1.2637076804554235 8.199889398351168 -0.6114247868140179 -0.8218554394978814 0.14405813879590026
P 8.660841186392766 1.6534940274061727 12.61136611789516 0.5683642081791179 -0.10037303920312392 -0.22582898951680463
P 6.415188893936186 7.676467347123139 1.247483717664644 -0.17883565148640168 -1.2956963823864331 -0.21823806454342415
P 1.7174909734976616 3.090695845623695 6.2412261973563865 -0.8354915422240773 -0.31731963862863416 -0.08575683195184586
P 7.07023412108275 3.9472213643818628 5.87648272702162 -0.3246699083461183 0.09158783681132614 0.3866355514156373
P 2.4420921649418417 8.534566859579604 10.135409433043291 -0.97677546070895 0.3520382730567421 -0.48352551716616726
