# total energy = -340862.62569642207 ev
CRYSTAL
PRIMVEC
9.39760525111382 0.00000000000000 0.00000000000000

0.00000000000000 9.39760525111382 0.00000000000000

0.00000000000000 0.00000000000000 13.75434520950024

PRIMCOORD
 96 1
Ni 7.9279324550740045 9.039678539017464 6.518789759331196 0.5031605177882754 -0.14768905068026822 -0.4681801450583485
Ni 4.641439581029229 6.378351948336775 13.253274291261768 1.4216971494599902 0.7932439464087757 1.422968559973246
Ni 1.417562949935193 5.2755805772881 11.515632669796489 0.6509889222598852 2.318336209727665 0.4074365473213887
Ni 7.525442425156975 3.253103183034123 11.290707569442915 -0.6029866833489937 0.27246725820063394 0.6406808554656579
Ni 8.356077946983456 3.9581021219387336 2.3801483658068068 0.2100683842484382 0.8657313149452251 1.817331561940128
Ni 4.665563233386207 1.1446658946978396 1.785974444385876 0.760507118297387 -0.6289658810215749 0.0309005462335984
Ni 7.321984274191421 1.50530838899133 7.95563659498377 1.2439035660848576 -0.5544843648732322 -2.302977724993724
Ni 0.45079747930378766 8.235863782218958 4.705773706196896 0.35752397876166164 0.058366355754034975 1.8770721723338704
Ni 6.027088263958463 3.3386589800960347 4.1232086463874085 0.8436673931666503 -0.22125422566192865 1.0893332149037238
Ni 3.408896680803496 5.897128782678895 4.762950615301035 0.5397683988192962 0.10688075841465464 0.6392518363286152
Ni 1.8754048740410025 7.394026315082966 10.190291238238675 -0.5140013171575213 0.36866611142141026 -0.9348078580279127
Ni 6.088727155976156 5.64812983727551 3.27233726144434 -0.1680807269627428 -0.39670630538807805 1.0972200738509685
Ni 3.9579799530721034 8.063774837162091 9.443457920357702 0.7031890013022083 -0.599703898832664 0.4900265515094786
Ni 7.242311377938028 8.670070729434313 11.535453158766533 0.4647397519182319 1.2264961692416876 0.9758856019048291
Ni 9.00900475588806 0.7597023983397373 4.142079977239784 -1.7137878383185068 -0.7745900787530143 -2.760682167331729
Ni 3.0353606722779163 2.6645969572643384 0.4105757293669486 0.7067191259426538 0.8504535628505483 -0.16381655236975012
Ni 8.86124621050093 9.271056974810667 0.23357183682948005 0.6852067057921747 1.8880155587192518 -0.7208149419140877
Ni 0.02779435691897089 9.408882251580222 9.927679861811104 1.2659592603333165 1.0338832614655356 -0.159267499546487
Ni 2.5868411724565332 1.8567694230772755 2.3818812841919366 -0.7635957845250398 -0.06648152866200165 2.0144850378991115
Ni 4.127804075293744 7.160796551080052 2.591827541736086 1.0188024558730129 -0.255643758885392 0.425504460566693
Ni 0.35650566851727616 7.103198629266292 13.617104453213804 1.044346880001021 0.720275781581166 -0.2533976431636927
Ni 5.514157578607384 1.577933081400651 5.651495119670926 -0.7764865244447788 -0.776204988648618 0.8385200446377559
Ni 6.763766529740897 6.973680835427621 7.299114262358176 0.14795850229157098 -0.4809155903471459 -0.2744644911363209
Ni 7.847883654615593 4.77715039664556 5.760416182356194 -0.571341545639887 -1.5259852074468043 -0.3632639665692325
P 0.49659294884051913 8.27622649623268 11.843178678359239 -0.7688464914010178 0.9105600412241415 -0.6642591570062301
P 3.197807674476094 1.2551253453421405 6.101014524677655 2.9448477156714765 -0.49649570417359007 0.7875803203650953
P 3.507364787307749 0.4908200000119677 10.876330508802731 1.8140114964279597 -2.253360576187229 2.3259970687070326
P 8.65699866070484 6.623798599002748 6.036039482840435 0.3199110535048942 2.961703610886551 0.7750755030298652
P 6.121440219417778 9.09680658057495 7.8762747594600295 -1.2883653959426586 -0.562607765311315 -1.8469280446503225
P 4.30631158465128 3.7519750511175585 2.9930827263396336 1.85955190406192 -1.3069223330092397 0.5568610926355249
P 0.8683556292789305 2.2242721691123295 13.677307391168332 0.6951527612612931 -0.8502447892738519 -1.1724626365350517
P 2.1153539257085994 6.813780584218434 7.6858454482403715 0.7060766072626485 -0.33261795954860135 0.9985244223502676
Ni 8.92698245835331 6.935639329879881 10.249998922403092 0.5280801638480905 -0.34443500678818745 -0.6468782425256214
Ni 4.500033816706889 0.898110326627066 8.825585118331462 1.2626839320161545 -1.005641750121339 0.1911880024041675
Ni 5.9226526781995625 3.0462337014080387 8.795064516165604 -1.7375422604256268 0.4301594428402011 1.5096759287638193
Ni 1.978026722010695 0.22600206590094643 0.5000089783036129 -0.9083224101428743 0.21792336151648276 1.1065830031231072
Ni 7.997972806073831 2.0664299934256123 5.44879723496002 -0.9497205134736869 2.0487372742137615 1.192357832797082
Ni 8.273792516505193 2.8222135904280456 0.3488776324369649 -2.5233387494174218 -2.0475766782467573 0.18371663372778682
Ni 4.418528387454036 8.04214155016335 7.075276464917616 -0.7419843769028511 -0.48819284073484953 -0.9820775896481538
Ni 5.495183813859142 1.3336329385599803 11.214165015456803 1.191896062669315 -0.34924991167832753 -0.5603480227428608
Ni 2.462275916518962 4.141317831464112 3.454320944937773 -3.528628001295349 0.9545356754741431 -0.38671808382711464
Ni 2.553686421574017 7.929962337781097 12.527360982150512 0.28121723647912217 0.17923854335177516 0.17145221453813697
Ni 8.01578126778652 6.479573553142778 12.215866083141993 -1.5912809433308208 -1.2506732807085235 -0.021354554416376126
Ni 4.419778268935719 4.639419095927262 1.1611633904955316 0.3185468261675159 1.0246144345691 -0.7943639189458319
Ni 2.4924234337613407 6.20208106899909 0.6158354012350464 -0.4962483640494744 -0.0400888976010858 1.1976923576361178
Ni 4.130707935277501 0.6459359304517979 13.204817419953514 0.45659963930960074 -0.10014421102176947 -0.6265073921787533
Ni 5.202946487273654 3.861381969987811 10.984288316962642 -0.33888913726929376 1.22693299966879 0.559120578093663
Ni 2.8229560012329546 8.766321001128965 5.090400768291508 0.9079778823192621 -0.688098425517673 -1.150726787519857
Ni 1.8075823578507764 8.94513863145564 7.343376042738437 1.3123992969634108 0.4896218598718922 -0.10975242353549486
Ni 9.177851527176657 4.597111077652577 13.161298990138674 1.492935476080687 1.2569033207786353 -0.7778278689640217
Ni 1.1324584056399065 3.9243553219333154 1.262849236994731 0.9499349434773383 0.1918361775111277 0.43531527600952774
Ni 4.897721670404823 8.170324884074212 11.811543520225506 -0.0870143585080308 1.2309907146779313 -0.3159728947927526
Ni 7.414503696651277 8.504541312754995 9.345774513881421 -0.5418887875964088 -1.0256626733279561 -1.461516595449773
Ni 8.855504273769292 2.9272976109406 9.365856256273952 0.8869570570932209 -1.714188416191035 -1.0045310335556634
Ni 9.422602755063348 7.57387768197344 8.02611393462193 -0.6487057826526633 0.030519765855411954 -0.6791268181466821
Ni 0.19836370922705765 5.224391822169885 8.28656668115219 2.052840497748858 0.6208036569257567 0.3657893040942475
P 0.4429683344737922 5.925735092680703 1.6398896124715838 2.0162213038639276 -0.06835586286657905 2.1672648728387256
P 6.423676597856722 0.6154350632567033 13.551922664063822 -0.4343446845661423 0.39728377515810287 -1.3851291205279694
P 3.7404629848389073 8.347629499975694 0.8467975231211947 -0.47992417296815415 -0.09204575028435115 -0.8127889584202389
P 6.471172094160644 3.271033813613443 6.767137450699389 0.052140429448981174 0.7780189019289053 -0.7568075579586128
P 9.441303989262954 3.7484509491955222 4.501494204543381 -0.3058160088644088 -1.0931417900165366 -0.4908714160082771
P 7.425263954519894 1.213625521108243 9.982793996590212 0.21555203307082876 0.6173779190736594 2.9475538017487297
P 0.79595647939262 1.3037861446816155 7.967245456595214 -1.0858244304195173 1.2498412717255316 -0.18445171212159844
P 4.9391275185874655 7.4984525032367415 4.876864625589444 0.11395129210819085 -0.7160118640984895 0.07036209466333045
Ni 0.1595873109585096 1.8425320513122494 2.1313044808879913 0.24108205902113322 -1.1000225762967701 -0.15706303569600047
Ni 8.910057371522411 1.4079679951021293 12.031985023173736 -0.3782648108534389 -1.5899234008616618 -0.06790052049671531
Ni 1.0765802455641014 5.127577694167709 5.824442066075747 -0.001685872342855161 1.80084384869775 -2.0044441087233413
Ni 7.181048390125353 7.949321404339481 4.361048875464858 -0.5200994596354591 0.27885953488022297 0.0781561367864525
Ni 2.3108804979482898 1.394294479644629 9.613077174787607 -2.5096777069905616 1.9999436497498266 -1.261633379264453
Ni 7.112530451155845 0.9626342834182663 1.765975400918449 1.611414480855902 -0.615323864758108 0.2951335894498982
Ni 5.388041717824118 5.104910670605171 6.077151185982652 -0.22539061642780536 0.09802639334781828 0.12456506306829514
Ni 7.076293285792188 7.9552700883838785 0.01924159649431732 -1.529621775758127 0.15286905221931094 0.4780446965572541
Ni 0.3308417486802402 3.327090528186631 6.931061756423285 -0.14660121693272818 -2.6328939693404463 0.5619374787171677
Ni 8.681357253189955 8.348700826959993 2.392582337148263 0.6936047000478829 -0.38572718066875505 0.14020174116428757
Ni 3.0004579668420703 3.351543096722999 5.508656220566958 0.2894044002756048 0.18330679988387788 0.22831061828807778
Ni 2.9116412008016344 2.5136432261345614 11.963928506615886 1.324282678664558 0.17255753178717378 -2.000712666705367
Ni 2.4434901038732284 4.664604677663413 7.499102817511421 0.8422180623146334 0.3625581987514595 1.3554855866299236
Ni 1.8912304410722263 6.9904743557867635 3.268954123599185 0.2883569328476969 0.42638814872322695 -1.2511707891702322
Ni 6.124221910534905 3.0362252519494564 1.804817582422875 -0.15302871772562676 0.9091155954681311 -0.31606648294782336
Ni 7.941558982505876 6.021816207483097 0.8784890668856813 -0.918896586114295 -1.2682747958403704 0.5143674422476883
Ni 4.509863711668088 5.676679761646566 8.392997378479219 0.2456007728270931 0.04653233923358437 0.9599915563823919
Ni 5.627624262891823 2.7557067389553795 13.100366798026412 0.4130639208104951 0.21325835194064563 1.0618254964017584
Ni 0.7919596779327748 3.213821193609826 11.46923951257378 -0.5092697160098067 -1.7691966541061144 -0.21420580345557946
Ni 3.609206634052031 2.62252387911779 7.715225181144002 0.24288054568245268 0.9908229399409517 0.2064212744141542
Ni 3.6320052240863228 6.050732638454043 11.22166148506536 -0.567970315174809 -0.7940222193356972 -1.5330259163436695
Ni 1.3494679031963293 1.3768525245318315 5.391634422263569 -1.8273696629024205 0.7121210136845155 0.20074453574435105
Ni 9.254470201764285 6.26049658245876 3.8809393260143428 -2.159542050273171 -2.2429872033727047 -0.6765405454767446
Ni 7.52860002047912 4.724598988784157 8.42859362717332 -2.2735285664946714 0.441390278559014 -0.324991296241279
P 3.4987565810128554 3.656673937540576 9.77463516354092 -0.5134367029033029 -0.07452805311556196 -1.3914491492087264
P 5.5841603391867105 6.532322310711814 10.645752748966213 1.1876455149230771 -0.19661791517048718 -1.173964932112191
P 1.6440828238785503 9.33263948119761 2.9251775112243035 -0.8789766099909057 -0.2963803173728057 0.5664939877395986
P 6.298519292796249 0.8378040150161585 3.6991896428885327 0.2694721801280521 0.12070172345814695 0.9121502685293968
P 3.2346462865677785 4.701189554416711 12.956043077312627 -0.4385299262920835 -1.140191435206172 -0.12414314503952814
P 6.109918755534 6.710228373341325 1.518067517470126 -2.173542221207005 0.6136374781946207 -0.6937908479167599
P 7.057714220459213 4.503351171316165 13.183388060985996 -1.41805775293519 -0.29208014733555504 -0.4279585785341404
P 8.89229589783535 4.775872322348501 10.440936644060036 0.11373814765612024 0.8091994412967676 -0.14042054204331303
