# total energy = -340872.38972259633 ev
CRYSTAL
PRIMVEC
9.21406518243061 0.00000000000000 0.00000000000000

0.00000000000000 9.21406518243061 0.00000000000000

0.00000000000000 0.00000000000000 13.48571576646974

PRIMCOORD
 96 1
Ni 1.2107742510729576 3.176115951962267 5.710242825380466 -0.23418764589414506 -1.1443609932028294 -0.2692212404595105
Ni 8.498629988007663 0.3509536118997967 10.957225482515275 0.13325976262881567 -1.0605900813327604 0.8788547397010605
Ni 4.713519603942993 3.224204158775933 3.490872108321254 1.5570593031437894 -1.306485245471821 0.40294585853988674
Ni 6.581938551915469 8.66162680320861 6.8807221260726 1.42450376567085 0.35475181533316325 -0.7253100015709638
Ni 3.869584934757845 7.683443202566266 1.5641677474648523 -0.10366225147735696 -0.4244824470600818 -2.380571047298171
Ni 8.808185725909926 8.661470164098468 3.2402937596071313 1.050709331883939 -0.3440213162895365 2.4916167357237926
Ni 5.8042161559939744 3.156499206933278 9.1422904979976 -1.5139784127939153 0.2591479153839085 -1.1008016205546396
Ni 0.9550562967331091 5.09084479214503 0.7348161794339464 0.24312325782087804 0.6394037885254472 0.9257562893486057
Ni 4.9079732380866234 4.396574185668136 12.375611974390342 -0.1886079003818171 0.32648793539146354 0.17733387012989457
Ni 7.031667865264429 7.157458284773945 8.545898143009406 0.50644098831176 0.4307471970228711 1.2189216993285394
Ni 6.855752930509397 4.908406299155839 3.003013149937554 -1.0784373939268266 0.26903432125968507 -0.16584309588147567
Ni 7.805207075538596 2.36878876422389 9.853770214239944 0.11781771704213258 0.5389320189609299 0.4683989459373739
Ni 3.574780915404858 2.005183319257252 5.559648142076662 -0.6308510138594297 0.0915397571822101 2.179090918939376
Ni 0.10009239138088763 4.630906294440918 3.2802523966044155 -0.3909850866335847 -2.1461923684391424 0.07234158698720444
Ni 4.03869067525434 1.2644001111334169 12.912519245192227 -0.34011581058754325 -0.39990244372787254 -1.761921974821572
Ni 5.379862378488058 6.98249239874507 13.051097865935061 -0.03685213583134298 0.10057692768381388 0.05399856570364248
Ni 0.7079737643947489 7.902295681630874 12.228982103386196 0.4365380926730353 0.4759613316656642 -0.06799745108589579
Ni 1.6352938817543197 6.28567871024469 2.952023433960136 1.8707763120228298 1.4980594275708137 -1.0671469086146719
Ni 0.08004811372186316 6.520950653678326 4.6337460693671435 0.25514830730621224 1.0873593790068046 3.2544509594924595
Ni 2.57065972093602 4.102203227384366 4.05856633551833 -1.5021222847862774 0.41865966973071767 -0.7465401145943337
Ni 5.6561369125177485 2.3022171424134403 0.49521546812120354 1.0638358419635678 0.8644982138690726 2.244580516001754
Ni 1.099247204651687 5.471616040770197 11.87202829216142 0.5231122783198539 0.4929630084299833 -0.2615763223197431
Ni 5.094880552747519 6.354028646658519 9.713235447433393 -1.2544142358081944 -1.5676517339476548 1.0562649715948456
Ni 7.25016099578224 2.6152281548041367 12.428759624461602 1.7716291748070068 0.31503701324204453 -0.942294653323261
P 6.485015798998637 7.195392591624273 11.06093070890127 0.675219769782792 1.3569295181653018 -0.09856195413631412
P 6.973416544422123 2.6596768058233216 2.827360816043643 -1.2113690837922622 -1.0887811990549958 0.5034091434639717
P 1.832686802729442 1.7652582728458617 7.430373370594351 -0.12195102248421577 0.1498012119272646 0.14239952014655477
P 1.9083527069934436 7.362406739297104 0.4748735761529088 -0.24024645049371526 0.06997617207882142 1.1268258125325432
P 8.52595890569483 0.43428653990199545 8.925493676901976 -0.3061975605735436 0.1441517269509711 -2.025769095453363
P 8.179298126819461 2.6450080138617658 5.714477609793488 1.62215552142249 -0.3817486556369813 -1.2648053492345313
P 7.824215692257622 6.663160537556869 6.331395216649496 -0.21751661299636732 -1.1018976818322959 0.6381529468374816
P 4.662105119555131 4.7748299944657235 8.055220602049676 1.7458032148828386 -0.7672117840110723 -0.33821705090293364
Ni 4.675926217508857 7.954484147504146 8.310424411545647 -0.3159541257396752 1.9629809564825484 -1.6878842310788673
Ni 3.2249320699348294 6.348306712105677 7.803428760935216 -0.27643935547450454 -2.0499397791622953 -1.3160417788120045
Ni 4.133724544784164 8.743309492115134 10.425105840044562 0.8645372946371239 1.3159859858734047 0.22673504627084176
Ni 3.375720248609986 3.304956227086906 10.356220566436658 0.8448824965206739 -0.5916190649420004 0.3974321278105091
Ni 3.967493592662044 5.310858243437751 2.6611768556545656 -0.07567836466992127 0.8755752976188405 -2.0147647739230594
Ni 5.705257094645293 6.206695742471793 6.5185227474711205 -1.0674940075414454 -0.11336713746994669 0.12296172313691725
Ni 3.872376796544498 0.8049241595074894 1.7309589147573636 0.6894832216803416 0.5074817708714485 -0.1025376509546105
Ni 2.095029670021777 8.860475546501524 2.6773595185453187 -1.0341848518663543 -1.1547515924085339 -0.040831689304381295
Ni 2.6131181338498677 8.852247386186407 6.851027036415753 -1.2947255338327317 0.8990322430902 0.2587216264797673
Ni 0.45187711197096836 5.851668592301769 7.9005800226715515 -0.7323057161625065 2.484305803884676 0.9284214948855946
Ni 3.6746982395449987 1.3778528972029067 8.797783967589952 -0.6656647791045052 0.41821898264887325 0.0004476290603798743
Ni 3.434653410284676 3.121771394808215 1.253156187244795 0.6791260468157336 0.7906826134395027 1.1302620919076019
Ni 7.461789647649701 7.915342798099192 12.843566708907614 0.7456875367860513 0.6599175922080828 -0.20034370076150657
Ni 7.321192225199093 5.6595829729408775 0.5683419759878404 0.3497559047804686 -0.25989456374194597 -0.1734085669335594
Ni 6.003009614895075 0.4553913564773359 9.0311006863664 1.5789298779646357 0.8156277134206147 1.37632874862752
Ni 4.455111142534819 7.7898472286793545 3.6232072784151255 0.05517690228245981 0.9691539396079503 0.8005931876849953
Ni 0.15794935022824744 3.6048371964215624 7.827150372056463 -0.26888262617316916 -1.745620666558387 -2.1263568217704543
Ni 6.783007884946283 0.42490570001753614 4.644332108993169 -0.15111016054667523 1.8070265804696943 -0.695166645218364
Ni 6.184581985745831 0.3846651126219962 11.664564397810684 -1.0004648339060898 0.5767786574950583 0.020193958449371673
Ni 9.036980181435915 8.136802857644403 1.0461235111502134 1.192204080828037 -0.6474485132067946 -0.18771881290864445
Ni 2.4195859062364864 3.2696387147824835 12.768545789214787 0.44674691488523705 0.9871807152026741 -0.8315991491482065
Ni 6.96769460986928 5.119482107105152 10.948918081238556 1.1469410952251797 -1.2950188967034342 -0.010620455828323643
Ni 4.170368882492145 4.3409396593717355 5.732791485988706 0.4960850989987327 0.9522106268853923 0.9148542977241213
Ni 8.184236865821592 3.4149998089944766 1.26589647533854 0.5036932503632938 0.021542502057466124 -0.44051481793259617
P 1.4675426088572894 3.415377585671879 2.0445015787160132 0.2868147851715577 0.3256065612277747 0.895974687210799
P 8.731755054225818 4.423313403175945 12.771957757596297 -1.5550697835175864 -1.0992602442094488 -0.5050775323053301
P 8.645843109345455 0.7524758569926879 13.116760059500153 0.09099674019454651 -0.18475150275020438 1.1665151607023652
P 3.2911351291331794 5.450617185945835 11.133145945709488 0.5959727139250058 -0.7524549374168719 1.2365175580334316
P 8.509557869456408 6.503932275064637 2.705760953433697 -1.662010705746215 1.1182660958879902 -2.1647421064168717
P 5.076931553538278 5.805929972140237 4.3029279543728665 1.2222409935097596 0.001184250116088283 1.5446928111586364
P 5.714747581906852 9.186165112748439 0.47987404939256706 -0.9888318776528517 -0.9738096932124068 -0.05229495274897445
P 1.4209194384267183 5.262309333358962 6.190604298827536 1.469102121106515 -0.6193111315406301 -1.380943364581396
Ni 3.31591175073156 8.112588294029475 12.472925403676001 -0.4628913858555834 -0.21894846034688747 0.5884998025867284
Ni 6.767952102242024 7.402939412562734 4.478390478521546 0.2013186630802662 -1.4408680659614863 -0.23120927999211147
Ni 0.9958838200884174 2.3737459313566265 9.570434941968958 1.370728628831923 -0.7982725099716188 0.539707977895006
Ni 9.175237231299693 0.6129721440934839 5.462659047889652 0.3782301009607615 -0.061272473657236405 0.5268709740313378
Ni 2.7759306677447664 3.755782014206861 7.713668100978005 -0.15943873501702863 -0.30074913586446267 -0.04068719330671702
Ni 1.7093288964597817 0.035668568192447216 9.679952400747757 -1.0573342933996244 2.2389171470683893 0.6083065529000105
Ni 1.7153180389063964 0.7178291286422862 0.08711161618274765 1.5081144978139704 -1.3289286620770016 -1.6952553267319577
Ni 7.2600200456558985 0.4368065867622249 1.9946719135601778 -0.5275173493660851 2.1550809291780237 -0.9452593923785398
Ni 3.436864785957272 5.78617501613171 0.14967972661926773 -0.9509021924866138 -0.9729931108483825 -0.3574345043716489
Ni 1.6781761416720817 4.7918023027529 9.678752729445375 -0.06859060458520445 0.5113739068370032 -0.16611511859593972
Ni 7.446494299247578 1.8277664918579155 7.36160972264844 -0.019024620731618848 -1.4740602364427386 2.5357525497007427
Ni 2.1758646649204723 1.7160643781958975 3.7031236310031628 -1.5668328375907854 0.8784438774158871 -0.7453185834824068
Ni 0.5185703594434107 2.2885250413739486 12.018915235587507 -1.1813116022852495 0.3491740641350696 -0.24922834227735138
Ni 8.943908907815521 2.1939426610439465 3.7187000083970125 -0.9923082662372265 0.30269443251629163 -0.07476922259209058
Ni 2.4423262194030175 7.215423969591875 10.282022462775343 0.18680015774911699 -2.2747356994288954 2.550035284872002
Ni 4.5924191436724415 8.314754100831284 5.854041214117159 0.20993211578089005 0.7062190463777838 -0.48234100993976287
Ni 7.231778935503784 4.4091145285448174 5.507579459052323 -0.19946926857635325 2.507464758499643 -0.6906906117248814
Ni 7.3523081237255825 4.9390246381559955 7.940511017472928 -0.9312556219002801 -0.8752611088125314 0.33150827142419037
Ni 3.083708091043652 6.490682449159664 5.304255444241991 -1.2040740927927456 0.4164050693685861 -0.7049296381423988
Ni 8.844010011805985 7.0075546563678275 10.325662118860969 -0.45588641529266005 -0.4856469343845443 -0.28333119749833136
Ni 0.5762227660410554 1.5798159945680614 1.6446913069563234 -1.5195019137153056 -0.733638318931001 0.9384004604751773
Ni 6.374502299760639 7.423975123648306 2.0161821490088276 0.2021627562481163 0.02565626711552356 -0.31106208775469657
Ni 8.997783547639148 8.187240651110203 7.170247407413794 1.2582230680313233 0.5444884300027848 1.235844443225807
Ni 5.756607080576037 2.683882155372948 5.978932340853152 0.3204712968837384 -0.8427500235587035 -0.19356652993867307
P 8.795313676682357 4.373843086566907 9.678239506008026 -0.9547855867014201 0.7597900376257044 0.9325092918017229
P 5.437938632089616 2.762551844925559 11.202287370332801 0.6176350293897879 -2.166551648821785 -0.43768968977897527
P 5.000298172417516 0.9203192705427431 7.169748005074399 0.059023272611743505 0.3326603827507626 -1.0316757122912557
P 4.139639974708359 1.038683153418457 3.8342858505840276 1.897319609728997 -1.5991863142208267 -0.5893837478535785
P 1.7802127008317936 7.60709545746988 8.439644306160748 -2.791249755705941 0.09465850531684987 -2.130345374104557
P 5.354376273861385 4.5756034744954075 1.04473863713525 -0.3626967812118528 0.2019398416040329 -0.050260438817448926
P 1.659877007981348 8.495911838743428 4.800847750660349 -0.4271692498636256 -0.5703583557910114 -0.36246486770670483
P 2.4735987570396496 1.4048132522779757 11.411396896746563 -0.17291671489880542 -0.03294945834282712 -0.7229877811956903
