# total energy = -340873.85955488373 ev
CRYSTAL
PRIMVEC
9.22182959699084 0.00000000000000 0.00000000000000

0.00000000000000 9.22182959699084 0.00000000000000

0.00000000000000 0.00000000000000 13.49707977201500

PRIMCOORD
 96 1
Ni 8.211734751857298 1.4038298662841908 9.388069464541728 -1.0631539854051948 -0.3429010866421643 -0.5029072641268887
Ni 1.1132776876781696 0.8255575328779664 2.3869451208474164 -0.7923538304943386 0.08041202270016473 0.8137394952589664
Ni 7.280542085494261 1.4131900231155334 13.04322638429098 -1.856088628103668 0.7508911924741778 -0.02520452429008562
Ni 4.329363022121757 1.1599954753703685 6.854464979982728 0.7268848022572514 0.5125468440991817 -0.9614653127144409
Ni 3.9871409334408456 7.538578093669431 13.390817422043032 -0.23210145278907768 0.6147155417501479 -2.7059665209564043
Ni 7.367522380305319 0.6435831735155196 3.5237366291054455 -0.5830927726385442 -1.4936098764398922 -0.6567700477180367
Ni 1.6628065010571904 8.129457590035388 10.086597219748699 0.2805412934580201 0.11906290230314334 -0.00894229679495234
Ni 8.247257238669446 2.501190676434383 5.0342215632052945 -1.0538252518051012 -0.8652415197930002 -1.0079881388663288
Ni 6.612568095423847 5.061225846209452 2.398228951289614 0.4596116866630472 -0.10188767607543743 0.009990278443492472
Ni 3.2187873304549988 2.0783882425394116 2.2396512952737675 1.2260973911413722 -0.9672626361225084 -0.3829424188347663
Ni 4.732984050884518 6.2895089682163645 6.441210828238666 0.6182418097358513 0.7676452720040651 0.891877891433606
Ni 0.3977974435026703 1.9274268954171667 0.24349963850694792 -0.5325101745949862 -1.1770865084603084 -0.6440914238091037
Ni 5.2433754203303184 0.6751218300309794 1.6114160124128327 0.15578339765262847 0.6567885596607979 0.3614729361070807
Ni 8.261477299589576 3.313477074636502 10.863151795611504 -0.13821967773725227 0.7313158414454114 0.4802756427703018
Ni 2.61419497378539 8.682702800658774 1.296432441202599 0.7857481522523628 0.5184318421250491 1.5221766323339914
Ni 3.3500324063403855 7.561420565069663 4.483986357694962 -0.6659730543735434 0.2823428654431331 0.03884962587734599
Ni 8.69897932953298 3.3489073431547465 7.097344911554636 -0.7916645177367979 0.5784347050412426 1.713022935128024
Ni 0.820266047173706 7.475574555273635 0.452002434477004 0.8900817187651315 0.38206490132581944 0.9281147622784531
Ni 5.290471303027528 6.441410941936439 4.043184757195642 0.562953578686508 -0.9742868899591414 1.3302800338985734
Ni 8.595538069259906 2.6005005571405198 2.692910665096695 -0.007869375445747737 0.6111764182486378 0.3934808564722449
Ni 0.7471553837659384 1.6139861362639611 6.213285937389308 1.6550113916102465 0.14952918921280053 0.4587064012399584
Ni 3.4901212166112483 4.698927834945455 5.4838097227478695 -0.2965482104092377 0.32647276588281193 -0.574918721468184
Ni 1.1779134898760815 4.203964586069937 12.435277281723234 -0.6341163148742628 0.1254883462135129 0.09498092165327514
Ni 2.438749669631407 5.675519567397852 0.6859335028083844 -0.2593530894161792 -0.365740453134183 -0.10934696056696008
P 6.525956673788408 1.8204628963169274 10.74104370828621 -0.07852894674483894 0.5998072571797476 0.6080718111813851
P 3.029444729409554 2.81104414395469 6.676235605535758 -1.276303322571802 1.101931877504341 0.05830156395437056
P 8.647161870187844 4.571399156304434 4.299103433342756 0.60220326821575 -0.5209139851169545 -0.24453325079452726
P 3.661010937046332 0.11397166725406911 9.041477150912666 -0.8420236869156402 0.8749566901982352 -1.2812274993462966
P 6.699714383163933 7.328080616002214 6.3888289929348305 0.10899317677196711 -1.8059672859672444 -0.4789970331681945
P 7.647285018524472 4.883198429826134 12.389320294955752 1.3174774828172664 1.0055270789203457 0.25089030336080664
P 4.851290900135054 4.208741493694208 3.7125738739002916 -0.3371143047570581 0.14610010892659353 0.10334857689168007
P 8.834779989137267 8.536103378838229 9.710838104123411 -0.1327033759047134 -0.09769086438527046 0.9116931263873201
Ni 6.6069335576662604 4.053740985298931 5.330590871790833 -0.6128347797876671 1.3232794342110241 -0.013373593093428582
Ni 7.661717181520582 6.427255433822045 4.632724321751161 0.43388214310742695 0.651795991542213 -0.23089226297232493
Ni 7.317521621350107 7.989516329034773 8.286734045924236 0.8644555335565951 -0.5669495872197785 1.424065906802483
Ni 2.808157711355468 1.1922903218958478 10.766633362661867 -0.18158544631739695 -0.800002605288848 -0.028358239427718902
Ni 3.1397746962373203 2.497225289796474 4.5722300431325165 1.9803446445719763 -0.8421779531053173 -0.3001636956746379
Ni 7.713857404894386 5.798566436955097 10.37512428462057 0.39183303645617684 -0.035341098503455265 -0.36956625463817644
Ni 0.8745623342590056 2.664878148115497 8.871886786238703 0.889548471969481 1.07033481942435 -0.48701553259729674
Ni 0.6145316443866736 6.98713113977719 8.297383414504369 -0.39931648931741553 0.6495120806040426 1.0545855270098934
Ni 9.015500179702608 8.133127878132802 3.100103308382392 -0.15024626988448317 -0.6394508397132987 -0.23761569773908756
Ni 5.708976364426532 1.0722313250611195 8.788258626411086 0.3934006380536128 0.5140272852994502 0.06289612530358846
Ni 6.292607502891568 3.411256131663818 9.041126721395829 1.0956928385731646 -0.6207949151750083 -1.447929600793958
Ni 2.9279953842848245 3.5206823592113166 10.9840177025179 1.0812630363010798 0.39934991365851225 -1.6875085929070033
Ni 8.913469859326279 4.04479581079016 0.7810944824717415 -1.211380396646172 1.2655591966814206 0.08036574284326159
Ni 0.4347244149309907 8.075251676878114 5.898614986195412 0.04550492641033454 -0.5510257169006704 -0.7036086053381302
Ni 4.380700946338588 6.565103339551019 1.9058007833135397 -0.5482011029676817 0.9235297140109321 1.5723589096153372
Ni 3.709951185621638 5.844979904277411 10.941380574330992 0.835375071250871 0.4789777498944848 2.4068801175063452
Ni 6.657552179190634 8.84566174781804 10.59217018333797 0.47564302909429695 -0.8949580730208264 0.4263696367804657
Ni 5.527269438116409 8.812832035187911 5.375347176371676 -1.125205503320301 0.3424092346074103 -1.4553482618555325
Ni 9.115049827972898 0.6091654618643503 11.609161828167144 0.2964790477341991 0.304432755363637 -0.7534278428531024
Ni 2.5773814308585723 2.162740315974181 13.18890085662366 0.6539438911231512 0.6720439431579716 -0.020894841171138205
Ni 2.515982490776721 8.877301844456795 6.90906005434028 0.9128609214431761 -1.482406551524905 2.760235566712614
Ni 1.498916149129485 5.455329947041233 10.32675025636984 -1.641554237664076 0.1255114861419645 -1.2266298666060744
Ni 5.415805186273614 5.7780294229024864 0.06275362681931361 1.013195908319513 0.5805522656048775 -1.608936708739371
Ni 4.058047579624287 8.152613603634896 10.716586494559703 0.2509286127979098 0.7767320647966816 0.8985607027704202
P 1.405692675821069 2.975939675285958 1.8541068964822351 -0.6520315045917867 0.8439918663856044 -0.6467489160366088
P 1.9408169916921516 6.884805720860364 2.671422880433925 0.9620481818011044 0.7022770310109001 -1.1108353506415578
P 8.971539718998166 4.946967380061339 8.721070221837888 0.13655951642600997 -0.7501730833612307 0.22402176110473676
P 2.099958101483757 6.6367938412326515 6.573213016317012 0.18168083424468065 -0.18789081971013447 -1.120117290164116
P 0.06638610541622578 0.6539568093968765 4.442199482177856 0.8102924172506303 -0.7536759543081665 -0.7420491687025156
P 3.8860789051505167 4.2104014229844955 12.704935561479234 0.46672747177222196 0.011391272556077156 1.482672403591782
P 3.9480864859721403 0.5471541923109707 13.306123218737875 0.11233458244037428 -0.57388693776956 -0.1677976485046852
P 1.0338131838203575 2.4953624802595957 10.954202605915523 -0.11796915501833233 -0.6130507524532153 1.6579002831222671
Ni 4.33323619046576 4.165546444829175 1.5093644818289051 0.11938223331577504 -0.47335346172917186 0.09648141745820159
Ni 2.29497212760435 0.4365687808090878 4.988142848289856 -0.10676608721366128 0.1212694230361589 -3.707773213602369
Ni 2.48271013033585 4.341277625694263 3.2285421815842543 0.5442372332239273 0.14709846828412088 -1.8469606976604707
Ni 2.023619797789319 8.789104268166193 12.282220734963472 0.4527201017495365 0.9640880950492687 1.494246995803259
Ni 6.21531935076991 3.704003105664775 -0.09126199019705995 0.6164425517435835 -1.487320958107387 1.4217511426263771
Ni 0.016401023570978154 5.844528034637276 2.4260051014137556 0.7901100287654844 -1.3489889231619865 1.8396101708326704
Ni 2.222534657742088 4.660666464804332 7.8556919074688665 0.22369985898894376 0.23577658764781972 -0.07964249152399186
Ni 8.60452013108624 7.414138727874223 12.050705785932399 -0.00017252102212228352 0.5308541270488019 -1.0854637046459887
Ni 5.802550267251787 4.069768524779595 11.040367691008461 -0.5992015052749486 1.5824011243426876 1.5379454651324738
Ni 1.4696921717910372 5.913479652989936 4.537758844870883 -1.1564248663458987 1.439973836281991 1.0579950669120746
Ni 5.58637214268003 6.583187346985761 9.43317619863941 0.056296874819515945 -0.04139887466176096 0.3062140156337758
Ni 3.3646674495830857 2.4447991897115653 8.78322442974682 0.5678577008563446 0.20075919103237036 -0.19143919918302513
Ni 1.3012001269974798 3.6818614932982197 5.256937042631967 -1.3501826863597712 0.38448816605533137 0.7775558462495576
Ni 5.779311257187764 2.1166403908511446 4.030606181907021 -0.26775056945125497 1.571924907401712 -0.16146193609464451
Ni 6.357270970577651 8.193669188081337 0.49553315793185093 1.0693590857746422 -0.7731988548324426 -0.23058553036518353
Ni 5.045493405269284 3.8101832492668226 7.1351903771902485 -0.6031175524999032 -0.5288435243766763 0.30887125075096483
Ni 8.163550693292011 6.389372158685931 0.6147880112437292 -3.467614180616138 -1.1838935040798126 -1.14980144749211
Ni 4.834968262113895 2.174903908940231 12.06321704186647 -0.3740428023522913 -1.0516362145735823 0.44758278052297107
Ni 0.5362650561666856 9.60112323331599 7.953545661314246 -0.47179820142691004 -1.7507975827736364 1.564328583111693
Ni 3.090078257651995 7.023751024286806 8.413121062086717 0.8720703697893755 -0.7622397847177776 0.9902146169329915
Ni 9.114459630891908 5.64355670673043 6.637674525939443 0.6615019059760673 -0.17837336713800248 -2.500648249798442
Ni 7.660315463453228 0.07381428899026171 6.41055931171057 0.5817239173154756 1.6469090742180863 -0.8677231485642732
Ni 5.06992203132468 8.299498902166548 7.747390743107007 -0.307172008671671 -0.6404795380881292 -0.19623353524787493
Ni 6.999903373483011 5.249720038950972 7.580364969186537 -0.6081905961474365 1.2250622650086387 0.37706487700806673
P 4.267788867281485 4.9186471420031594 9.23304129065828 -0.05352496850133363 -2.3237478676615395 -2.4695723543292436
P 6.921895918668897 2.063937635884521 6.876020084000049 -1.4074650650210083 1.069200962930223 0.4900324650467496
P 6.582486487952084 7.464554469152006 2.66074676854856 0.8910358551482847 0.1304613739480721 -0.7932634867928016
P 1.9821953401672592 6.710485479892021 12.04685843871069 -0.7701019610746737 -0.5904309581711702 1.0234193858197342
P 4.388096853509757 0.6197613438340178 3.6266789884084942 -2.0918078801509905 -1.392092182109364 1.0031164125963241
P 8.603939155834638 9.139137246340846 0.2503625239393471 0.4211965772199585 -1.0562703709114842 0.0028459540892273568
P 5.696259461697053 7.158555726316921 11.777132839600139 0.39326874046143884 -0.13894164350494137 0.11548135559947208
P 6.710448592574458 2.4151971173681073 1.6922499579351318 -0.0853256579516982 -0.07523793469839299 -0.6502556436382866
