# total energy = -340895.42034468276 ev
CRYSTAL
PRIMVEC
9.03390439387496 0.00000000000000 0.00000000000000

0.00000000000000 9.03390439387496 0.00000000000000

0.00000000000000 0.00000000000000 13.22203224149307

PRIMCOORD
 96 1
Ni 6.356507997923431 1.9565810559077417 11.50827168601571 0.3471164102750925 0.0037633236971741637 -1.1232298676511687
Ni 4.781383550070395 0.4021767709021728 6.163344153303264 -1.1738402336088687 -0.17602312173827106 -0.7343867670612514
Ni 3.0595213950620583 2.0314450206430728 4.814578631332609 -1.0613421290074365 -1.0399639204419766 0.2721085893096346
Ni 3.5906065596403907 4.494638394445423 4.935982560726684 -1.254755421197697 0.1351955461989478 -0.4305422801009165
Ni 4.951293221693673 4.534947675324999 2.663525621465535 1.0155199284669996 0.6437198994022978 -0.3601794141066378
Ni 7.450351195471802 6.184466324891013 2.7125661708278788 -2.0537876921534757 0.5804527639125359 -0.6755095331090689
Ni 5.299721875715271 4.490401493339973 11.606167589702741 -0.4583670156226686 -0.2847098230134129 -0.5940485003190995
Ni 5.690402100035787 7.658266502384271 12.187394536574663 -0.7471458664991326 0.8947665258353106 0.3658867489040602
Ni 1.63594972534344 6.555678485496719 0.5396610499075525 1.0107605594051432 0.0629640024270464 -0.28161447191754085
Ni 2.794873169296218 1.5518711782465744 0.4586603539975249 -0.03657934178593055 -0.408572974918677 -0.6692933769960281
Ni 0.5339254240827109 0.14240504666452472 4.795525223824068 0.3806798480528347 0.06180417779099034 0.026955959763553576
Ni 8.629185364448915 2.4186110562002203 1.1933480395869582 0.16789226510102054 -0.24810451308555337 1.0993777436239196
Ni 6.791092997025378 0.5767940100436818 4.646949117148598 0.7994120228927007 0.4210911619903458 1.0019761283442936
Ni 0.7914766146493147 7.236852935716754 2.748530143750692 0.04401291524584033 1.2253677120641995 -0.5205995392003292
Ni 7.419789497306045 3.875201646047671 3.750839113003202 0.6182112136082321 -0.6369630402944385 -0.1820780696830993
Ni 7.522694700914124 3.7901113016718915 12.583831164699857 0.5905782823823119 0.14662564241276038 0.285629763724521
Ni 7.970442098546223 8.792292506152354 6.975891446285955 -1.3039159420827477 0.890236499175441 -0.0805799157365967
Ni 6.753132531257565 0.4122315063613768 0.2535103251839425 0.47148478395154936 0.34479059035539333 0.012295272427585276
Ni 1.964332145776562 6.448446041740429 9.333498353691105 -0.15778474435337342 0.14781426340422285 0.13798827845273656
Ni 8.935064329330485 5.01107056628806 1.5240503666381606 0.608289840729462 -1.9114120832663208 -0.7125347041831663
Ni 6.475096059354671 1.8828372953026364 6.904095395442758 0.2258999519640561 0.7535399429509345 0.9725799345703637
Ni 3.3386961389037304 4.117698738528724 0.44379867807305373 -0.521359043074173 0.9898824304045533 -0.1810894805175849
Ni 6.014918009438775 5.678721261806901 4.5976836235697816 -0.44867858469031113 0.5299411283162292 1.436732703636874
Ni 5.442809885543062 2.974132931845171 9.11764856865301 0.3177662392477495 0.008456101187153179 0.17268428717302517
P 0.11977873001481916 5.436359677889988 12.543226475150453 0.716352792377676 -0.042258651558894966 -0.8337151670499449
P 3.986192193982783 6.065562076810112 12.692277765190843 -1.2216172438828317 -0.23698886278836606 0.18020527814041867
P 2.4163796818440444 8.54369752828499 1.4873203186327413 0.9782245344506507 -1.4730773037041793 -1.0026096481632347
P 6.187908242420175 7.664328252153477 5.928970347547202 1.0592567072333177 0.3535148576022686 -1.0902778382051805
P 4.776920801358044 0.8018845757657109 12.4372913000482 -0.5815485680798759 0.10630200309304919 0.08637569648276737
P 3.807375092743355 6.29986541811282 8.156328229881632 0.6500880077121707 -0.34631114076497777 0.08078251866570604
P 4.792675930415413 1.0952795883282567 3.819726246669522 0.3719113578315853 0.23438176418282217 -0.541199731949184
P 0.09429679622346547 5.499768652003333 3.832260788852492 1.4804957076554375 -0.7823668944849559 -0.1314378789287285
Ni 1.309319882339865 0.8942128842474328 2.4930404901398746 -0.8657984207377347 1.8004242446618282 1.1065693762763522
Ni 1.8569641934561312 6.637164302066369 4.88732595229607 0.06164014140930029 -0.047307783947028205 -1.0362617890000412
Ni 5.837302417468058 5.556537706473807 9.056788058935929 0.8260720486823901 0.10672520667339683 0.6073367327875734
Ni 8.66308057329252 2.250842419890357 10.334670857785692 -0.05878338868679554 0.5681783174205569 -0.9686327769971576
Ni 2.3028686746159237 5.390593918827699 6.875971948041097 0.021706024218523908 -0.6759908436208616 0.5107105622213914
Ni 0.5695894713835604 -0.0077637373348067385 8.975181188048982 -0.22045666946129772 0.4053446977893664 0.7520170785485049
Ni 1.6369434548138015 1.155869984307485 11.482132083993063 -0.3342002164340567 -0.5827407886157641 -0.6178360896570004
Ni 3.9567778016600803 6.75624922823279 1.6020608402328274 0.2191826878448806 0.9477546479965676 -0.5257669423338817
Ni 5.416087596694612 7.799854884102245 8.004472815953969 0.4717205541114392 0.4686321449941026 0.1383595457492262
Ni 5.253305675545109 2.904400224738616 5.0545715255483525 0.7539939997692175 -0.25016370960742723 -0.6013434913186159
Ni 0.7597531563936627 7.532650063426292 6.887025833313229 0.8477433630082368 -0.817869972487572 0.5188031094215387
Ni 4.929051749366126 4.879139428241147 6.876475136509272 0.7579542699685463 -0.24327161047328422 -0.06204457593657057
Ni 8.270268347562864 6.948328100949407 9.18767307086768 -0.3685884641059394 0.9493996397991584 0.7193594404144836
Ni 4.583685588894097 -0.0035178023250799907 10.031013329965594 -1.0052193178719397 0.005987327931686463 1.5311058165028213
Ni 8.162629378114152 7.188295700233176 4.804899706291288 -0.3116999784490116 0.6753717219796239 0.9228411725843396
Ni 7.271452789093889 6.175152369582442 7.096423603917393 0.03540100520711322 -0.26456111597967985 -0.7313834614585533
Ni 2.171858994805164 5.114671380525393 2.677210179662841 0.35539870488854275 -0.2500750065483629 0.11165272588200127
Ni 2.179004813087491 5.2273964380815 11.567982179718454 0.7533013445775671 0.08044904658568726 0.2145181924896757
Ni 1.0083011579587906 3.125586337032552 3.7031870747280813 -0.5359323129026577 0.5530761716717959 0.5635847845126035
Ni 3.831965380182666 2.659102621931998 2.4299449925049075 -0.8242447656656644 -1.1417191847046078 0.6027185172892717
Ni 1.2566070508893212 3.3231216879318817 8.066245750002928 -1.1736404588932368 0.7269318534451029 1.4859963257586923
Ni 3.6291722969946956 2.9607356518038417 7.332423512443137 -0.35517887556825284 -0.4588802078136614 -1.2027983114041156
Ni 4.018985266504715 7.043906808189639 5.927820331532866 0.4304957431336973 -0.09880235228189435 -0.32732740057362336
Ni 0.7809223042836472 7.454434520204559 11.484366168520522 -0.13253342598575238 -0.5754743368613379 -0.35032231880689985
P 0.44050762674530175 5.609440249914147 8.023419623392055 -0.9118610194237521 -0.3306891179570047 -0.12352299495702597
P 8.418641191392124 1.7504363942333698 7.947062354279898 0.6076270103344826 -0.7500283302532502 0.9647982337424158
P 1.9645941290005664 3.2771752507840723 10.316887617218358 -1.1866003614880145 1.101234594327 1.1542103751930832
P 3.938339603032735 6.220050873834234 3.691075319265229 -0.5154830439093703 0.30015983901989596 0.845128551093209
P 6.974336711360052 3.9418447578918285 10.311347123725879 0.7144848859310018 0.13504487955369646 0.3135591431449374
P 6.272709501859121 7.538386592641561 10.078256132377012 0.7099402039831129 0.45055831821152725 -0.091461595646107
P 2.4881088817955987 8.666612829864441 5.882270482782774 -0.6176543126634976 -0.006625218626001492 -1.0571717996798309
P 6.782935381464137 3.831811803809974 1.5297363059894842 -0.20583557711401326 0.20548050776743965 -0.07323401689448678
Ni 5.1888578024400225 2.731653907172669 0.2689826930374723 0.8204575307090901 -0.16473932129433563 0.8825784684095509
Ni 1.590608559782124 1.2228744523226835 7.032428329416535 -0.5296937881921135 0.19976237433673985 -0.6441104499724971
Ni 6.738244657010693 0.7228279760558816 9.388739774948505 0.7820614474293951 0.050779030325080285 -1.672124140031133
Ni 2.8108180103433833 1.7025838032833218 9.310068922951261 -0.06580430008931892 -1.756007151999034 -0.6769259538406214
Ni 6.48697564347763 1.7137677767770279 2.372137942433119 0.11439095074877074 1.3884589562321508 0.5975927660269321
Ni 4.14771840243792 6.45474267302081 10.610535579100633 -0.09250494930895681 1.2163644801243245 -0.5560910472387197
Ni 8.16343339559472 7.1385459893851655 0.2177188998328012 -0.9241984579431826 0.22900815857573462 0.6655948450985182
Ni 7.804299565006044 4.006482342986711 8.235501366956623 -0.141048405435299 -0.5527154458982674 -0.5915265052281942
Ni 3.0233225406280693 8.344572210233082 12.358025113759167 0.998283767094371 -0.4825495264061431 0.7288897485024222
Ni 0.2415322715043751 4.828079801273113 10.18825024067048 -0.6823262989205862 -0.8366822200980688 -0.0005129350806765359
Ni 8.571666495923532 2.4023951980247737 5.720591601345372 0.06427655059088284 -0.13872592794970945 -0.1886834908147589
Ni 3.807835821861432 2.7151760657732193 11.384539719489707 -0.3160623691827653 -0.6646713048429843 0.413517720518462
Ni 0.9920401302619646 3.2773017254439365 12.442593298467793 0.13709533432482196 0.6362685853305753 0.5568376955967571
Ni 2.944393318968532 8.393409496749216 8.071547748422521 0.5386299143394788 0.35825520050073145 -0.115879105258523
Ni 5.539698508903316 7.896969355069399 3.6025412505794336 -0.23833714928614436 -0.509842043573509 -0.35934817645459405
Ni 3.1501043532376545 8.586346590372054 3.612324968910357 -0.2871749967244538 -0.38681989951230156 0.771356145196749
Ni 3.6475472582921094 4.443018665412277 9.311959719116231 -1.1460131840942713 -0.2855472313130437 0.3812354634459886
Ni 7.2877228506949905 6.026987305551531 11.41499030063287 0.4735126130148554 -0.4418502489145681 -0.8461675338806847
Ni 0.5602258296014716 -0.10303167826794375 0.36873777422450565 0.10422249485620115 0.7642215910344967 -0.5589017772146375
Ni 4.6960763919919914 0.37805263292350405 1.6452302552061897 -0.9490666819397718 -1.2173278724788583 -0.4381409183837809
Ni 5.935663567225302 5.661385199501229 0.3183855019612844 0.7552019040343897 -0.388876267820698 1.6848228185447243
Ni 7.910529245387696 8.872829762773021 11.268331188444769 0.03170838684687442 -0.46221390017258457 0.09040615779839914
Ni 0.05726140225351701 4.84769240745634 5.955983528113341 -0.7554592714608344 0.024991122727698895 -0.36937059368760256
Ni 7.930900699530109 -0.29353232790754136 2.3585861826286703 0.38808128272322845 -0.0698599582159313 0.6128887729540542
P 8.409896372052943 1.6558514164634999 3.5176288741178916 -0.24914143899049995 -0.7750809023465038 0.07930901944397309
P 1.732224043212925 3.1186754002614006 1.654855880212283 0.3884106410381892 0.2694896636295488 -0.7340334974868907
P 4.638331675859708 1.2079956119800879 8.206108656004183 0.8276378505076134 -0.7819945987472017 -0.40528427686507623
P 8.592787764120853 1.5693517830206622 12.419137669405549 -0.4806535949350109 -0.5879493293998972 -0.004353906093321534
P 6.261733308163764 7.555939468649856 1.4421670582803663 -0.27344556295350325 0.7784832431598334 -0.27672706191825247
P 1.640295033300203 3.315506106627202 5.951950793244528 1.7501532643214184 -0.3013957683095261 -0.7597825814265367
P 6.826776918915634 4.069033096193835 6.0058570034499335 0.5652248912191878 0.07875006161670954 0.507718569472603
P 2.3737577214698087 8.402976401377515 10.253513875331688 -0.3846015517047441 0.8756043510845629 -0.055598563200910694
