# total energy = -381166.90450312966 ev
CRYSTAL
PRIMVEC
9.33773574676756 0.00000000000000 0.00000000000000
0.00000000000000 9.33773574676756 0.00000000000000
0.00000000000000 0.00000000000000 13.66672013818521
PRIMCOORD
 96 1
Ni 6.188341490165646 8.173572092699562 5.240326015462203 0.26440479290747365 1.5365971786346955 -0.0008494924844888596
Ni 4.078330726760714 2.0674120135812717 2.429505122176629 0.45985979811811123 0.5342916919754411 1.027675847103243
Ni 5.232334781332635 0.16842380330872092 3.3208900317648706 0.14896354651731766 -0.2660374434148902 0.5830218101912926
Ni 6.877373000355896 0.5501140176153704 11.433537134745132 0.15047098430077957 -0.2761259379991438 -0.094354858033502
Ni 7.22920954016425 3.7072491138733237 7.216766073698882 -0.3305435935180759 -0.8257401192642682 0.025948344434645637
Ni 8.436737495216054 8.695775618595748 5.509081920284573 -1.5544720020325873 1.0976353070115161 1.064710017038405
Ni 1.66853196180194 9.197043941268644 1.5232517361867621 -1.2494422365148998 0.9718476843900293 0.3843089601649897
Ni 5.23108352476175 5.254745346781294 7.7702407423579904 -0.6363572883896396 -1.6354188141902997 1.5453049908213385
Ni 1.1420424152636983 6.5022948366301625 1.3732316759791925 1.5350809991004852 -0.3150529540816445 -0.21698439464198116
Ni 2.221830147258141 4.46024411294829 12.709434122339433 0.25315724501811243 -0.3944352499657142 0.6231868124459525
Ni 6.194551084342046 4.055938836783262 9.742293932408094 -0.008851793963675077 -0.710952190187395 0.4354600291175081
Ni 4.465053046784148 4.086454556735854 11.762740870997458 0.3416654144628503 0.14558485985307185 -0.4499047437879284
Ni 3.035352348515695 3.7276614039028115 8.297256937184276 0.790535032118045 -1.274939609455056 -0.7795296821464768
Ni 3.3869834581407696 5.556625001110344 5.784384511538634 1.9692115107732924 1.8805331342992775 -1.612901349814074
Ni 0.16027196012677095 3.227756390628042 12.211624496934114 0.29383543946376495 -1.0169162945938937 -1.3739265669439304
Ni 8.001533651938685 6.647001725279279 5.278551903702693 0.3781737938015294 -2.9345391346566174 0.39830013223775923
Ni 8.508563357479007 1.2745075325364845 6.891935199029724 -1.4559851241085828 -0.5186120764566552 0.8187508324306286
Ni 7.644514668870329 4.829402152301337 11.629449364123754 -1.1721517901628522 0.6471582356598855 0.24593270224521518
Ni 0.6923211944434009 7.881973285270086 3.0495783887077925 -2.202565605022549 0.6338574047859212 0.8245291296753026
Ni 1.3331671875983513 2.814010663767766 3.2033970397589098 0.4226726475448527 -0.44458076047185374 0.480167913547844
Ni 2.4632479635538274 1.7719100326694865 6.0719456820931095 -0.9305393125595457 -1.8292704794695591 0.8167926802629933
Ni 1.7147817662466116 3.347680928985183 10.406360072688539 0.4082168771308389 -0.8130316705586643 -0.8230083221554019
Ni 1.148728233955882 5.088197494555339 3.933158818878538 -0.41937340796829065 -0.1224269336793698 -0.29752085873515216
Ni 3.6698794959876837 8.544084103715132 5.42548304097259 -1.1757315370943107 -0.0057479582273707456 -1.878871173215822
P 1.2282483903562094 1.202065379723692 10.918165096216544 -0.002053025874286787 0.4358156126847139 0.5862981669497193
Ni 2.8882643372876586 8.191967431838671 13.46581871943851 0.09489813213148172 0.47046379888620266 -0.15182364167393206
P 8.721183597173166 0.6645218217778989 1.782482216919892 -0.13400178300116278 0.4769038980845916 0.08612732791738716
Ni 0.5127705453894205 5.23887119625516 10.988275616449116 1.0860136636121878 1.4561990398916018 -0.2254003866198183
P 4.8483764310478685 6.925481014185687 4.360941029898158 -1.59179105019802 -1.3206646222959966 -0.8114193317662219
P 5.156633758794182 7.892889098190704 11.515564473155028 -0.04617598433543015 1.2646248577926091 0.025437466236498122
P 3.183822344613066 6.134397391583602 0.15379437293854795 -0.3973629651354705 -1.3247907286492282 0.809252148911574
Ni 5.0787196929176766 2.4994783776958274 8.412754455091745 0.46366143125238857 -0.3676962913089732 -1.49088579264051
Ni 7.7088329917079825 1.9087171969979504 9.302156963411342 -1.3209415301064669 -2.1789297107711634 -0.017280898567634755
Ni -0.09520008202590641 0.8734648611913569 3.971220362972405 0.42586004413389883 0.9632383454544637 -0.892351745746231
Ni 0.7367594781809723 2.764380599034588 8.015038818942184 0.4725695323752958 -0.7201073743241018 -0.13975102678011414
Ni 8.057942912720083 2.8530330608552448 2.772512832971771 -2.297793352579307 -3.3480015764571114 0.07745165452026016
Ni 6.873740621206093 7.001406142378625 8.099021479187476 0.9416557341876813 0.030767877310476047 -0.1823331231166989
Ni 9.099221823085244 8.289303987770683 0.4888323263960105 -1.0401737224599374 -1.7847456575843068 0.3709821611490966
Ni 7.308823073920614 7.6050347227382735 12.579532213489838 0.955339145212045 0.7123953503918247 -1.18463218201805
Ni 1.2905684377746907 2.686989446351884 0.6575577385647279 1.0404375176442855 -0.47472128861097596 -0.026014421785890682
Ni 2.989410689345943 2.0153167866487416 12.179015256659191 -0.14942583086571684 0.6788920764280566 0.1840663037577217
Ni 5.409415599319461 8.655586004557819 9.427658931244517 0.273858996341838 0.6309494871105069 0.30043417572720515
Ni 3.0236708412755813 1.3035665657349131 9.32976397872341 -0.4930897638158346 1.0176511158773893 -1.504148828298003
Ni -0.006093806254914717 4.211766968536276 1.8918840610253258 1.147623723114501 3.235334807488299 -0.638197941142804
Ni 8.258358731980326 2.7547067049492506 0.29887103591756725 -0.8603353407406344 -1.3709415161736778 1.13205800746576
Ni 4.460029345029406 1.5708965983306125 4.979879761553483 0.5621102568496061 -1.3015667251242808 -0.1490530209073304
Ni 4.293649572044315 0.3573430024938015 7.271993177152862 0.7116520444678969 1.0402441706865568 0.5190928727478157
Ni 2.272814183653842 0.7093578930521841 3.8166771036384484 1.455301981998629 -0.17645789528284447 -0.8084270819071174
Ni 4.222178543734299 3.437762064353191 6.212768072731126 1.2287649106712064 -0.7334372586637885 2.2505123081051566
Ni 6.03990884501069 3.107168873043046 4.297896374196837 0.4070717077828022 -0.07392332965202753 -1.6069137647720713
Ni 5.487432380287608 6.199612137039202 10.20898555391439 -0.019974386239397856 0.22000775484933724 -0.09333747251258119
Ni 3.7390627790748168 8.232315787381863 2.3842553892151037 -0.7549807891625191 -0.2266777106703451 -0.836454934578611
Ni 4.727751562520458 6.050096314554227 1.6379424737380799 0.24629831311475003 -0.39109795806236514 0.8389059672222648
Ni 1.2036994834543233 6.44615637018127 6.036344631330794 -0.4675553669901561 -1.3945064479778113 0.5177106476883084
Ni 6.219744295000581 3.837183704797532 13.642502683662181 1.4449669186212082 1.2755060234814872 -0.3950518005037906
Ni -0.021558030188050272 0.6479249305160457 12.751145787280752 0.4390377191664374 1.36849074064034 -1.2621527421030325
P 6.240436717098177 1.5812708225862213 6.662854399013525 -0.7460544332071668 0.36895124676199686 -0.12802525370275372
Ni 1.965117120043744 3.9315135098651823 5.897682058937892 -1.6980454878825852 0.5095473951512257 0.3705121634912135
P 7.2324684098899095 2.7226035699440456 11.716902860692906 -0.4396450137331331 -0.6269393375098492 0.03252805453469237
Ni 0.0816370210616655 7.772591050409419 7.761289589008372 -0.6145882721436641 -0.6285604180530401 -0.3520308168575744
P 0.23270384143039946 7.247632892510169 12.019689209149067 -0.3572416716345525 -0.0897286721154003 0.10513189404434796
P 2.9871602950654736 6.141764864974849 7.722584674931416 0.0560356507383293 -0.5403893202327468 1.1440087520697328
P 8.626751077013877 5.365257447649998 7.2140189118843 0.08815361431879656 1.6695638355031246 0.08421134184159691
Ni 2.513456967894429 4.640705191223622 1.994958655485755 0.5735848331481089 -0.1266258022520658 -0.6664955025359167
Ni 7.060682087990329 1.0299895880204 4.656374845340037 -0.7703511009710023 0.15412220790012165 0.1245437229120565
Ni 6.9649889735245525 8.077794938613353 2.379566912168532 0.9814265863277162 0.2070871901329272 0.5229628972261832
Ni 7.089414300442631 6.283642419736072 0.7974519582837447 1.1682547691012912 -0.9124757701896156 1.3468731623705643
Ni 4.858358470408126 7.2717802767811 6.900572604463061 -0.5330164248074433 0.4370086045515506 0.9022396942839042
Ni 3.0363047975472632 5.317887114932893 9.922516898425537 0.7297544104955626 0.3697775993180341 -0.39875470327667456
Ni 5.430136034623867 8.401805026322956 0.5660152475747549 -0.2632495962571079 0.7414187342073684 -0.3235368231829396
Ni 4.96369746575243 1.8492451589385697 10.584122545374427 0.48155836613746733 0.16533401745554108 1.0483128066273042
Ni 8.394017354829545 4.155367045490482 4.526076082727288 -0.23457845357466053 0.3724417764137586 1.9546271852012147
Ni 3.6279717385986903 3.769457108464562 4.091228007176418 -0.6529851267543076 0.3860053740308062 -1.4510565764587138
Ni 8.557026205261733 3.8456156800475902 9.466991341154035 1.0396191355080482 2.53341567403745 0.4806731353190367
Ni 2.801096575427976 6.546014114726256 11.720702385310014 0.4106406560809831 1.2262346880501849 0.21824423519101124
Ni 5.411031027578885 6.365637076071355 12.970824421317676 -1.9104888001211033 -1.6285542258599823 -1.0119635785743089
Ni 5.798985928701995 4.908716878518385 5.519564462273183 0.49913262757580484 2.3909050822343274 0.5771936335452899
Ni 1.331262289535215 7.6709871493065585 10.054811135136775 -0.4750336776450722 -0.6566319794782756 1.0372262097958396
Ni 6.528188377458968 5.7021069218145595 3.4494529093289086 -0.29044235462181595 0.4212531414895067 -0.718388334750466
Ni 9.330172037769287 5.348010649990133 13.487959424328224 -0.7254848365859312 0.14215320846370355 -1.3582248399379575
Ni 4.17490158837323 3.4115417027782593 0.5079942936281748 -2.363388364871297 0.39469595982626865 0.4539303200075537
Ni 1.1843610330192509 5.042507954246884 8.400795617104205 -1.693870273458973 1.5957346082268 -0.12224721356839591
Ni 2.5531983706233854 6.793258678038594 3.80775302972208 1.6615178252701965 0.33936273447160265 0.461832605573766
Ni 5.386052584839233 1.5918037883470915 13.322277180192723 0.28058654487365875 -0.2731578565097554 -1.1111965906357186
Ni 0.5984078523836717 0.37074452063209995 8.977463353455555 -0.022204046900864985 1.0666278028864085 0.09635491918266631
Ni 3.093937301692733 8.008985164950365 8.725243644613615 0.8100962420794241 0.4780531811976863 -0.37176351939981134
Ni 8.4371203423758 7.067302542533287 10.027819476600987 -1.3907081572776436 0.11812830630401591 0.19843311400235503
Ni 3.2578425747428676 1.0164592091307716 0.6197053597483814 1.0349086174062565 0.43553124867507576 -0.6038780848150117
P 7.700755850410861 9.041617332146586 8.824437476157184 0.28150340026097326 -0.8516591531228752 0.3730634691581575
Ni 3.020486673434751 9.237700442086755 11.026063564889798 1.1844434630460117 -1.938686602711558 1.2973429168509207
P 8.603191970085973 6.135424542499999 3.1495089675904864 1.0165470841799331 0.1167486523476699 -0.6730309896615893
Ni 1.1296792533245212 8.555037267578165 5.1776912863538795 3.0367525695025894 0.1154924113430656 1.1488300847177764
P 1.944004499843986 9.16010385922077 7.159269900493225 0.17173323611366553 0.09763044346098024 0.38006149774254544
P 5.774044836904758 4.029858541242384 2.275591226222355 -0.6075653038586117 -1.1134735595953533 -0.7957589995211457
P 0.3516292420779536 2.592771694111477 5.77718231606757 -0.5194767384497956 0.1568005260632332 -1.4225301868842468
Ni 6.5151342230851235 1.0959887032667028 1.6358377481330266 0.7004674886059872 0.22396005462886592 0.12080559602586291
