# total energy = -340864.6510429885 ev
CRYSTAL
PRIMVEC
9.40390343138781 0.00000000000000 0.00000000000000

0.00000000000000 9.40390343138781 0.00000000000000

0.00000000000000 0.00000000000000 13.76356323296490

PRIMCOORD
 96 1
Ni 5.813192152374212 8.299377323493372 10.601673865722647 0.2798164994768536 1.686579910445147 -2.0463451198325013
Ni 6.673762159634484 6.9003868274918725 8.13082458025608 -0.2749074922110104 2.049290832724387 0.3043216837070694
Ni 7.261346255312032 2.3264410641896838 12.668947113974639 0.35145411841849794 1.0066100275718795 -1.6441389676721168
Ni 4.01522224713642 6.44773934159422 9.260648089842572 1.1937945652436086 0.36790815020946316 0.39258534124116906
Ni 1.452602149242503 8.426555712974402 6.037731034459129 -2.0886659920879 -0.9173104725740976 -0.21553557801059653
Ni 7.314882677325896 0.7885220014181481 0.5407150411690103 -0.4340119838170719 -0.8378713553101634 0.23388991214806815
Ni 1.7236790684365395 3.8752545490415042 3.5501042449498885 -0.2915960086102849 -0.9435773766904266 0.5076476070253515
Ni 0.6470581422934757 0.6095770045417352 8.22222864045112 -1.298133531073016 -0.2582786254050778 -1.577701404874173
Ni 5.581451761071268 4.7754714130048255 5.670120225769411 -0.5996180239870771 -0.7874741338045341 1.016503118315875
Ni 8.483872504152075 8.287876349644266 6.774563540489712 -1.0848173293112415 1.3589074678272788 0.11981752108098073
Ni 5.576486500079994 4.120000538736362 13.362795317988153 0.6445783907478512 -1.4862593496120922 -0.11645863191107686
Ni 1.2947764386051093 5.379728629397388 12.619426158709398 -0.9140955651812257 -0.7558253965510016 -0.7460667745023409
Ni 2.6473210557507367 1.4612913559772318 1.6950103285539702 -0.46448778380842587 -0.5206162513708775 -0.10091965573521328
Ni 5.3011590165525195 6.305241993486705 3.7775884295773574 -0.8093701625466769 -0.8565074823541121 -1.1520912719675511
Ni 8.304587085972852 8.674508433726123 4.2977418359785275 -0.18857576159230105 1.5264935145417902 0.8595709517707841
Ni 0.6367138485616558 1.2296450037082143 2.995859807969997 0.006845047946291437 -0.9786760201657725 0.4764400710742956
Ni 0.6921413955477645 2.3937918202872237 12.52882048991239 0.5556141076023011 0.621916173263645 1.0219502574733754
Ni 2.99681712533536 0.7308111866883249 6.062560160586514 -0.03545319860128733 0.9331093872795672 0.5732040527699225
Ni 7.335176300847047 1.387969121225414 5.6347474431582825 -0.3311873977496619 -0.1579320685645151 -0.6382488489853976
Ni 0.4157935885021964 1.0533876424213962 5.528189933036466 0.27239706708433087 0.21634881794051125 0.6822345105377283
Ni 7.3814999289588155 7.220787219979905 12.273973767583579 1.4565057724987431 -1.3232753204459664 -0.5095867330295935
Ni 2.6474903260118023 6.901853836421113 0.3376038933543877 0.26015630204376483 -0.02767509731776524 -1.4460095009531095
Ni 1.0142956160185095 4.830136303425797 7.989830916301036 1.256009348209456 -1.5587785998277413 0.17196103585375544
Ni 7.23371758714468 1.279636154143082 2.9579686600303408 -0.3773366426122146 -1.1053460453922126 0.6399087531863238
P 2.8241050356275386 1.7571851762242432 4.127320537137134 -0.7568553804774127 0.4808780522409911 -0.675865630896907
P 9.403677698882106 6.978505052973898 11.705483357354291 -1.0674706105026777 -2.0018758337755327 -1.2680487958724935
P 7.5268842754078475 4.938535097831878 4.767712252315621 1.3787995787655158 1.1451672911542083 -0.5022565179167673
P 5.899303695739915 2.727197811167171 1.5907238611014582 -0.03159962918315203 -0.3337744417505477 -0.7586438398364032
P 4.636284238891493 6.530267997767357 7.0315703394277955 0.2001963765503649 0.7345880844387801 -0.1578456794982959
P 7.122723315402253 7.140496692814198 0.7839244330495238 -0.8511428756080889 -1.3934921477806839 -0.19153767243410239
P 1.1826348906487893 1.1698549859382954 10.546178610632113 -0.32388777876445507 -0.19155952681097332 0.6812230385540784
P 2.6151126866312064 4.487636737965241 9.85559168031514 0.1192955871392397 0.3184573517775031 -0.006547057089898402
Ni 8.904838239520181 4.505071574855054 2.841818228057771 0.5364989840394051 2.240648270826883 -0.42323546202685813
Ni 2.2295808592462794 8.812962103374836 3.9490968196509306 -1.062392681759138 1.869702876452993 -2.144270211715765
Ni 4.729458113705012 2.31663279295124 5.30253668839953 2.252877465903223 -1.1687872445659935 -1.1639684830211117
Ni 6.507219030552184 3.4321802367974814 3.6296857177997968 -0.5276003959981945 -0.08649885232419297 0.24009758362067682
Ni 3.1220771185243064 3.7567277506816334 5.714754912831873 -1.2918399847548203 -0.7102569638925832 0.11851731421231848
Ni 2.6713480289187364 8.183634080537699 7.808468175862395 1.6597368221103739 -0.01987359899547545 1.4083875768352776
Ni 7.728278270462988 6.638930101468429 3.328043291408911 -0.41433533132375094 -0.7356118977176042 0.026659768679373443
Ni 0.459104205966987 6.797056737014385 4.509700176104873 0.03201897610875776 -0.5002667411802482 -0.373168370167138
Ni 3.476717123264662 5.8969339120849895 11.723444812834089 0.40404089137627835 0.638721417746442 -1.2097400328292713
Ni 1.6758978352989242 6.496141232355744 9.32810322926777 -0.5038585722965645 1.0026911521334474 1.0828283239056706
Ni 8.824905060683392 2.7536697992172376 8.104124077353575 -0.11058648940101601 1.5222272830662689 -0.8416706744515956
Ni 3.887291545383986 3.549992338499517 2.6287991276287435 1.2568740102025966 -0.33702765858052275 -0.23068991715353174
Ni 4.806090522451012 0.7827282565379897 0.41685716997589534 0.35985391244641896 -0.5057861283365805 0.716660810536398
Ni 1.5854793041794257 8.087592015189449 12.24469847593219 1.0236677543851143 0.2594438493577726 -0.13427431993625907
Ni 8.90685067484619 2.7421029980443845 4.202208521803813 -1.1830398978302659 0.13783195538053034 0.6204658139703637
Ni 9.26873168519882 0.23481264654129352 12.70208929070105 -0.9973728252443274 -0.5273831377810659 0.032273772432041194
Ni 1.818940609803208 4.549063034925466 1.0275081002850612 -0.16210831142939178 -0.3809989219551503 1.0695110379714743
Ni 0.46545748309900287 3.51042071302361 10.515926253418236 1.1742356692750744 0.29419128014128687 -1.666489567453175
Ni 8.12542391853773 5.280780757900835 6.9357210540990915 -0.031830000026403245 -0.2641739078435902 -1.6904913296844113
Ni 5.612230736875129 8.209852163196166 12.954183490506859 -1.8306966703931244 0.5021477602530449 1.7418020641432452
Ni 5.963908512046826 8.26790245883846 2.3402328289052177 -1.8768250893200709 -0.061378917328113645 0.47438216010400236
Ni 3.4364402050343124 2.3204131621150506 13.323060064593216 -0.5944971578207439 1.426301481001221 -0.10519334340990272
Ni 4.6019035680882805 1.0147187916711748 2.9732462414818994 1.2202949255269822 0.16582021306334024 1.0178544901374469
Ni 0.25216566947159097 8.539853941048007 9.959616719253336 0.8628542505077463 -0.6561817793147344 1.6826515219250184
P 9.09012334806386 4.088798387279837 0.11168451825144149 0.24510146459317145 1.164489388521588 -1.4362200256665136
P 4.64471013633123 0.5539914719786315 8.85184254195139 -0.14644078009546393 -2.5135521023443035 2.570816997504043
P 5.51905686206161 6.315764961382984 10.897686175152407 0.48548315511317036 -2.055388460981692 0.3508308830122022
P 6.5915532361766935 3.067825999852607 6.93543235426494 -0.34096401752045147 0.15030437681592823 -0.018223207876246036
P 6.943720014324806 2.8898007047279872 10.338734144134197 -0.055609618944504224 1.8065493837229598 1.2015868075945177
P 0.4021221937500875 6.730815641517168 6.9821321385124095 1.2435623806953553 -1.2179570214224251 0.5230976230318346
P 7.786996243246155 8.729051073402992 8.905755120100956 -0.002657235117188972 -0.5842898782704389 -0.09248798002809233
P 5.754756296692821 9.268242682222406 4.903696456933448 0.4222275895876341 0.0876753891307974 -1.3058650953893187
Ni 8.143582855988772 8.530826193791144 2.0171466816082693 2.2072401276800826 1.0196642896526762 -0.820880991399754
Ni 8.357390003522097 1.4767043536376434 10.040133880490805 1.1373495948820025 -2.0873439308423665 0.861906027661864
Ni 2.2632844490052273 5.917725942485947 5.949217734166964 0.31245254034431996 0.6739648143297683 0.36576282173168617
Ni 1.026501882622057 8.415449703067784 1.5873243500250467 1.7883282327292427 1.9930919169353158 0.677711168746078
Ni 3.919687992571367 4.617260142328337 7.7778998474945285 -0.6206090244164473 -0.6026447266285427 0.3092250345459578
Ni 2.862679847343834 2.604025484531374 11.123284877149665 -0.08500195606369232 0.7318899687813266 -0.7921903083332809
Ni 5.006760416944926 6.030441128549214 0.7878345760801517 -1.1473087629772436 1.4208324874668496 0.04429830769674306
Ni 5.785958448149348 9.054990364989244 7.061051576563482 -1.8384688581393756 -1.4965869567903451 -0.6010264742988295
Ni 9.350950012560002 6.8479976816919015 0.40475340591932685 -1.157753355349335 -1.1957234068352052 -0.9449570306467725
Ni 0.5821176066354498 3.972086542274731 5.931380410211949 -0.19224703979630114 -0.49085110429330303 -1.2277302987591048
Ni 3.220197446522314 6.987673858781648 2.5018859282233845 -0.39274552096811716 -2.2684827765406483 2.20924198860146
Ni 5.097066101223714 3.7593514397281584 10.048158231255682 -2.0227467636872714 0.09668196350478188 0.6196060370732296
Ni 5.073697401293193 1.115331154068212 11.407200005255229 -0.14713960593470143 0.3030045075575427 0.06339723330972306
Ni 6.375893519675034 4.732909346250083 8.42603943867815 -0.23074288187865422 -1.7613169942477214 0.17686130136885025
Ni 8.283851478992249 4.740705182162519 11.58081298890806 -0.7757061946353285 0.2613739765009499 0.895391046793187
Ni 8.622335577704181 5.482964680840951 9.190206270699896 -0.34515800099714106 0.510013793264683 1.4958562492719074
Ni 6.719427514508773 4.989043462953337 1.756946317078072 0.7612979896297984 -0.4789795496666977 -0.35475695753948583
Ni 8.612038303489324 2.6162035394247436 1.5341001376038157 -1.1317942122814122 0.5560625079936294 0.24889666996954551
Ni 3.238666712785309 8.658032794982352 10.435657355230333 0.1111217930791957 0.612404634228784 -0.7265269046972004
Ni 2.575240136246737 1.4715039950615558 8.912444116584087 1.6807368214008087 -0.08778208991199075 0.3503457158456676
Ni 6.536183053001279 7.12099299717802 5.554121196641461 0.09528251205409397 0.3376580930756701 0.5230739688827507
Ni 3.7168457963937716 7.846560567334652 5.182242896592197 2.461501918616283 -0.9129272559047374 1.5146798097363139
Ni 7.021151754859174 1.1137889139118318 8.024432578833974 0.4054061471549212 1.5754424336366675 1.0903595992857094
Ni 4.503548142505458 2.1011047310970765 7.617279296768865 0.8731952274224382 2.156038407995287 -1.1445929067079772
P 3.5528229134206786 8.724264486576176 12.6504073184362 0.700691174581019 0.8016144298606581 0.24942580300013822
P 0.5977177419733734 1.2802380039602062 0.7863177264629312 1.1577060470511675 -1.5955173500096715 -0.6862492881240762
P 7.167476491647462 0.09709342174753992 11.994077867787995 -0.5615767529436394 1.0118838743763088 0.3314087697318486
P 1.0342224873073518 6.3516220450188285 2.3561019158801684 -0.42929760906053804 -0.6860554269457152 0.019720875467695066
P 1.5799310011778132 2.6057369949488205 7.356707478054661 -0.4912758505355475 -0.021093073224873353 -1.022785094669845
P 3.8453313284463673 8.730903642371326 1.8088210693624702 -0.15839949511923687 2.1706150202578813 -0.958422412123059
P 3.3648388846033335 5.216091306463389 4.067779722807118 0.9220736982906957 0.7033900615694209 0.18653610545445293
P 3.5039790391997037 4.562106248930951 13.349375947846964 -0.68533320406771 -0.20380569116817804 1.0765671734873072
