# total energy = -340861.0989296201 ev
CRYSTAL
PRIMVEC
9.32506949291840 0.00000000000000 0.00000000000000

0.00000000000000 9.32506949291840 0.00000000000000

0.00000000000000 0.00000000000000 13.64818179535852

PRIMCOORD
 96 1
Ni 5.999432482475015 6.853664773254456 10.359065530577514 0.26118165798448567 2.194334475362008 -1.384620042102035
Ni 2.8005514128805515 3.4748191928227947 10.805674800660437 -2.1750920821926285 3.5868580885818355 0.4660142477552813
Ni 2.612585992654352 1.4427280840549888 10.108948524013686 -1.451996057553848 -1.6124233817363909 0.44785428901680285
Ni 3.5591924191067976 4.982216631904261 3.8930075169432508 1.264352577967829 0.7029074655060474 0.3449664538116252
Ni 9.287554464485252 4.523339300758204 12.751018520521349 -0.5651007069364977 0.08945870628346529 1.7279186212929338
Ni 8.503856997270377 1.1009736222863737 0.21426025040697197 -1.9050830557244998 -0.1883860141789981 0.7199394812876697
Ni 2.319778819210752 8.24385541733552 1.6493557653070696 -2.449202018203008 -2.112807879441426 1.458798939408294
Ni 5.742787927458621 3.761537096067074 4.567268769337041 -0.6033052430306771 0.31919448705384385 0.6758460905128811
Ni 8.567183542329468 0.260027690128666 2.700224858178481 1.9968287582699287 0.6363279778136008 1.61855597699669
Ni 8.51974691521776 2.9601779477534036 9.350751391082214 0.24503410169034576 0.443577773128636 -0.07678033948484841
Ni 1.4257844332859755 6.018707400548516 3.456647430437777 0.24459212905692068 0.7479938163217247 -0.5798338993816143
Ni 5.204582232475473 7.440463403932338 12.791239409072208 1.2283818163001747 2.928120375614467 -1.318604140222542
Ni 3.3276043250790326 3.617912379972223 7.465104899340768 -0.7563344749769361 -0.1976496988691112 0.5376750066253773
Ni 0.21106175166521543 5.3642460676251975 10.832862039965367 -1.0575415243144237 -1.6617908764259253 0.03665364666729171
Ni 7.268499802484139 4.4472187607320866 0.3252173840175043 2.2960357464582524 1.5520765052172172 -0.15327117275373606
Ni 7.284296469739345 1.5064462820212348 11.650838461625423 1.33479566238074 0.9099923416461295 -0.08269619074865113
Ni 1.1927696036678643 1.7811534961127964 1.7879663916834299 -1.0333564424277881 0.7842540842053396 -0.9073934705707019
Ni 2.8905103556261063 2.784185916403051 3.8133154754066583 -1.5520826758648043 1.0703062801792598 -0.4183981885392149
Ni 3.8424786968788722 6.824757058678815 10.730513810256847 -2.1708358780194357 1.337319200133542 1.452982332726517
Ni 2.0495196631361523 1.8516510194004911 5.952545101940246 -0.1340228660470853 0.26475626270962144 0.7049895448460568
Ni 7.041219890435067 4.964116672552221 6.712912178478734 0.9450801864881982 -0.37061166518355526 -0.5505536623602583
Ni 4.839468472315896 9.187244694907774 10.209808472675022 -0.3033302663280776 0.20508558632186616 -0.39750643269187025
Ni 6.574378950176883 2.280734754395199 1.0163924469588104 0.7411834782681106 -1.631431290297461 0.9635394216346502
Ni 1.290058050818727 7.111279135469518 12.1963018579809 0.17203276963195532 0.25723012953590535 0.584937796267083
P 8.850497795309197 7.342065273544539 10.44474892908664 -1.834146319504622 1.279748600807925 1.2575288701777763
P 2.4878538667950654 8.794724556316645 10.859940175960448 0.20879851639707914 -2.0169137019452616 0.8200942338324005
P 3.6481442543768132 8.085972670406425 6.317142253265149 -1.6340103638785473 1.2501508325461501 0.66632195307253
P 6.85383262450038 6.874730104617804 0.2622582466855994 1.9239081588508027 -0.05887157752522765 0.3310531861646428
P 7.286152158513716 5.586434491881269 4.482527202818929 -0.8502334764199421 -1.421846530553661 -0.40963046964891386
P 1.0590760862901285 8.218966807592814 3.4597592060358067 -0.7886889800482416 0.04615644395140438 0.3585531913571244
P 3.154279263525013 5.5434832230633955 9.264494500816186 0.5341145429676286 -2.9444579364322254 -1.2752244876853265
P 6.336309933042643 8.133306721756735 8.51157908708976 0.18396654495506382 0.49861789272291546 -0.07346670173058314
Ni 6.680750014746027 1.745839458984423 3.8716475133926163 0.03218352671108006 0.21646786001687882 -1.3378922990281927
Ni 7.3352486479462184 7.3254666503365895 5.994199253629902 0.4449587126365627 1.0368809106412789 0.37562865878217244
Ni 1.4442294201990789 6.742696449560864 9.707691728072259 1.8031043625971526 4.057161964851407 -0.9694928110046077
Ni 5.043836689296468 6.838530185913726 5.43557911711482 0.5001644112744289 -0.9758763459334483 -1.1524417133284344
Ni 5.201588885256512 3.8383197160076667 0.10471959481064615 -2.605036837918862 1.0201502281501593 -1.2262238894169077
Ni 3.2802422985210695 1.0199760710592682 2.354994010605415 0.9785492647799212 -0.6192052020903852 -0.21781306119086358
Ni 2.1876985388077217 0.3683756693720161 13.600057680253315 -0.6228674814333209 -0.3104473369888331 -0.892309836764702
Ni 4.278938561624978 7.105031339093492 8.169282838799582 1.7484609642206597 0.6917586479780796 1.2673867368084624
Ni 4.41164362166561 8.394828287974116 1.2720858449149737 2.210079911121723 -0.5563908378673256 0.2598894215356234
Ni 8.875115978044583 1.5566897549675445 5.842376869185552 0.8247697849311989 -0.6334000055335285 0.6453957444428239
Ni 4.41510322234547 1.5173845882138892 4.800501805574852 -0.8562303174333254 0.05907238068212408 -1.7655724270899655
Ni 1.0693709627067445 4.716573385092545 8.885771734639933 1.5731623793532392 -3.1052768396262325 -1.0771790960396932
Ni 2.9485216112309676 5.9438084445899495 6.695620702627891 -1.194007452585363 -0.6802709590534542 -1.2215668502608705
Ni 0.8861277575325146 7.786973651002106 5.856462386239264 0.9031598921053283 -0.3570095010190884 -1.0351634137295398
Ni 3.29733515039757 8.518441405527248 4.135562824878246 -1.1486747900868348 -0.19902498195008303 0.1817898490187192
Ni 0.6844610131043828 2.398118725710742 13.15185195832028 1.8346399713115886 1.1881273396555023 -1.3938348758320833
Ni 5.4552121178462905 4.518863267533589 8.396729669587657 -2.3329699004804403 1.258118167022343 -0.7965169607330927
Ni 5.282455885514565 2.3162166427694952 6.702908244221718 0.7564897696078778 2.3754663790817543 1.8629609297434688
Ni 5.9625518337180266 5.916019738320461 1.933237915002171 -2.2783193030150954 2.5828754713304747 -0.3268275781190694
Ni 0.3726073857831214 0.05680645666190209 11.551042503361854 0.8651916403916713 -0.2699925714078963 0.8749420349102157
Ni 0.285830156654731 0.45937249232152844 9.225788936013245 1.1555234375775518 -0.366732127623491 0.5490698787258802
Ni 2.636952398520853 8.879368209607968 8.6689974455718 0.14190843944274914 -0.27982729811013096 -1.1809195090531532
Ni 4.584632980727784 2.35270563861933 11.229682900479816 2.326949405317973 -1.9378185982843077 1.456715317406388
Ni 9.272858155397763 5.756253327409339 5.195958408462714 -0.3450957803006379 -0.8999712099647017 1.0233846759270568
P 0.7573205764249843 6.441645914928595 0.7083173376846619 1.4652405812685796 -0.49556496482920454 -1.06068906880447
P 4.012847711490801 5.888818511411703 12.910278580173937 -1.1049914902662712 -2.712985889697031 -0.32334527599742374
P 7.435838169600235 2.8230994302495525 7.382765470653199 0.4332437381924797 -0.2467767954130653 0.21105903029648165
P 4.192635046012859 2.013730047477664 8.89935090043511 0.4546088341318171 0.4742798301981832 -0.9128323821980859
P 9.260791515829737 5.914247975169051 7.7076602072757625 -1.6158660888693526 0.8099820850990632 -1.7940710487502907
P 2.869846002239131 2.263576627034173 12.957446645292165 0.4409292797621954 1.733281428266744 -1.1341385441438725
P 8.687905888425037 3.0778136959378313 1.82401151423849 -1.063260686186388 -0.9926160272856326 -0.9466688711315567
P 4.891679534867192 2.426355035302692 2.493359387661343 0.6783899399806574 0.5528751114045832 0.5534430680929114
Ni 5.378121770621505 0.2018094179871664 6.255466245457634 -1.195780742435702 -3.6902706859422314 0.13860662876302582
Ni 3.1077564931966655 5.540247424044767 1.4245423340661447 0.5393271975168196 3.012392909711302 0.8636644051138674
Ni 8.656443104883676 8.05485491442613 8.047282025714233 -0.704197902182697 -2.355807981420878 0.48287040008067156
Ni 3.2679238820841587 3.418365223777331 1.2000301025609594 -0.7760347816193409 -3.354095605169991 1.066339582222028
Ni 0.25716209635799026 3.6985276033613923 6.622916867963229 0.014069847829504802 0.6368313998125806 0.07623115184959774
Ni 2.207495660757427 4.7849727678062015 13.16565026324208 0.0005995812572118706 -0.5069495525170624 -1.6569335483336236
Ni 7.40489758993508 0.5823337875363266 9.450178076604754 -1.3431080389011771 -0.6116302179566048 1.2146143302024373
Ni 7.219272762082586 5.200684353542371 9.57961749740526 2.3223630714988714 -1.2100310817071291 -0.9829702766657522
Ni 8.85102932425462 2.743370088436088 3.952622684453599 0.6711098613794765 1.0793948727440896 -1.1235376286995746
Ni 6.175349913271624 2.6640510496682137 9.371346738956978 0.33315120634425205 -0.6698667330009948 0.5154308505151962
Ni 5.577510400639692 8.956579782732586 3.89912196482946 -0.5308556697106986 -0.09735739230525169 -0.4474447122832101
Ni 7.306219707470742 0.5247943804338937 7.22317716856414 0.5819689434467462 0.2590242453218507 0.08536499583006589
Ni 1.2900767009571628 0.9769688518260872 3.8655330655064075 0.18782242836604426 -0.748420105225866 1.5296893957712687
Ni 5.054299416959006 4.681576400317582 10.899205244916466 0.1482382383155189 -0.0006427757903214737 0.5038500876561323
Ni 7.9265326369179325 8.355215393936268 12.545872592768001 -1.8518789608976944 -0.4212490277244487 -0.1803790847141216
Ni 6.746034824340889 8.941305319353585 1.8238884233248132 -1.4341430885328268 -0.4926989561353192 -2.589091113222883
Ni 1.2954013154806119 2.2929412700014944 8.369092029439498 0.9699466107125748 0.6181189110047419 -1.203196832394115
Ni 7.237279470742445 7.462461242217479 3.5567846862347228 0.7825368444039168 0.007767559760560817 0.15242965068904715
Ni 0.07037536488093976 8.460952353798593 0.7076375401386734 0.6563620136463405 -0.9981346431110166 0.5770807621165093
Ni 7.444417233280748 5.89315466859805 11.780154791512253 -0.049228912229141025 -0.08981840361572918 1.9618818098810984
Ni 4.549710596506564 1.1546673708433246 0.10258601897357941 0.3936587768110059 0.4634613994264406 0.6516977754014518
Ni 8.40981367420736 6.001176270418772 2.004031042984075 -0.25638372237521007 0.4414437575047688 0.04264791657751365
Ni 6.851538657472764 4.126716131711177 2.621351557719225 1.4905142682337038 -2.184499234439141 1.312892177439429
Ni 0.9462240986145092 4.466903981851177 1.6272320385874854 0.1776442022814618 -0.7892291688224279 0.047904279880446536
P 4.794251211678061 4.7460219536828285 6.173823399440646 -0.4305142550764586 0.06475966087488848 0.9085509812139128
P 4.038062698656136 6.834548381357661 2.8782236444245366 0.6138022859072589 0.8999802088257661 0.29706474503434005
P 7.446534023993222 0.11838921377723768 5.008323095686831 0.042057591291682406 -1.4732323412248047 -0.015908443700140343
P 5.704387292419107 0.2876410850968567 12.191810904645537 -0.3068038266989749 -0.9464271874343958 0.06369085329074192
P 6.664160716607296 3.584351455856824 12.09445904702399 -0.3047016927543075 0.4730541853211982 -0.9832978352085001
P 0.32789834141766466 2.0678527492186403 10.910561314210083 0.33406420507682466 1.1609667200803104 -0.008511637015436955
P 1.8575631132846708 4.3833700117967895 5.146251126996437 -0.358932171963098 -0.39467153434623636 0.4514049824825387
P 0.8972432400403099 0.015921623182726226 7.204274320752437 0.563013999610798 2.6132499698572738 0.20495497428127282
