# total energy = -381165.47974745196 ev
CRYSTAL
PRIMVEC
9.27534684691991 0.00000000000000 0.00000000000000

0.00000000000000 9.27534684691991 0.00000000000000

0.00000000000000 0.00000000000000 13.57540767689909

PRIMCOORD
 96 1
Ni 2.8696995059521506 8.236554218892142 8.095123732881738 1.0852472177598085 -0.32179927166654254 0.23911876464717527
Ni 6.132367624233966 5.2413963738937746 3.3777918660693222 1.2393164609348075 -0.6346274501827264 -1.0813355414102281
Ni 5.347404310974892 7.733440864866942 8.220479115579929 0.22377236409809204 -0.40745994436015637 -0.4290973201242739
Ni 0.7148936343820409 3.8220271745084236 10.309408692502105 -1.24534724050992 -1.4945005065749617 -0.8941278638100473
Ni 4.329815303254848 6.432981609779423 2.1080302983178503 0.6669215343297417 1.4075607100586083 0.36269549566027215
Ni 6.44801694673003 8.944522879451034 9.943551918486214 1.5260623405416427 -0.9172783337845816 -0.22039650564732363
Ni 1.9051654811793455 6.923962810361443 6.3806584516843765 -0.2037964351967974 -0.49375465109334316 -0.2609487160380732
Ni 2.958158487135336 3.4891999099811892 9.093880076724847 0.2508540508062325 -1.0012091682712823 -0.38691888698401106
Ni 6.663353394999804 2.9142211699638203 1.2677154262762693 -0.7017206442867978 1.1299558735210926 -0.2504709564352009
Ni 3.216625297416414 3.559284429412892 11.39712488624853 0.3799715091319004 0.8392587225759933 -0.28600771588923
Ni 2.083409818119397 2.001230246631191 5.8416745494857745 -0.6462269820948676 1.5450802764050422 0.9306100178964811
Ni 2.1236648226632813 8.514990850551786 10.215819517076243 -0.729779607306543 0.27587808365439587 0.012811807052687613
Ni 8.776861713060423 2.4950682539872933 12.140201661484625 -0.37715203740523434 0.3105743494850006 -0.7376343274642715
Ni 7.521823830611477 9.239553106301695 3.6260455921330563 0.8978551920629635 0.788379676337939 0.7952933727386368
Ni 7.88807016918747 8.014595173100632 12.645722895505122 -0.49800648439116163 -0.4097618530204556 0.48662112537235547
Ni 6.626762152390214 6.1802284130465095 1.0613918323648586 -1.2250884902608836 -1.8603268345547315 2.455014768230043
Ni 6.716668087653778 7.949259631163508 6.2564977336371665 0.1703443261859389 0.09160789141598416 -0.7328749584024152
Ni 0.3959348681944415 2.853783011067979 7.743846876295003 1.0707173995747494 -1.572672584201014 -0.3412098149826704
Ni 8.321729727354466 1.3399351305111982 0.7805380453632464 0.0005234766036378082 -0.33829521243903676 -0.16374481859155027
Ni 5.780692855275125 7.006327888783032 12.884989738181167 -1.9884245933666334 0.9166664112321955 -1.9267381721004302
Ni 5.553762223668979 4.259638030356455 12.133088398124094 -1.592418913590006 0.40845418995262556 0.48049572920090794
Ni 6.7034692693436515 0.951798973796134 7.866283307396427 -0.08258357643018681 -0.09164362974992604 -0.39842740184424286
Ni 7.444754975137943 5.38115729750374 12.428856015034947 1.1989195451749997 -0.13606740728093983 0.5337383905751324
Ni 4.260834550076768 2.4232214186884615 13.175706928830698 -0.2638237235930231 0.23784144059664844 0.8488484231469575
P 4.182346566562863 5.604563297375628 10.940950351576967 -1.1011278935458069 -0.005580836521887163 2.607680446189296
Ni 2.1089912242327684 3.4045067195456578 1.5008698154973794 -1.6827559087133666 2.0842627208138813 -1.5186681049601007
P 8.456092399203015 0.3706354326198105 6.418765285939698 -0.9771264162904655 0.03362745824645822 0.15226844252083452
Ni 0.15143765753169192 6.523416239803127 11.796743922139937 2.5004420473249067 1.6459497956286107 2.1380016050982342
P 3.1050614276805057 1.405678787701763 10.724435934280217 0.644242090454355 0.19381361295247268 -0.1617694400327343
P 5.042393811108282 8.419120867379993 1.6957309359951191 -0.33421358617049535 -0.9074693181139596 -1.0053049356072103
P 4.147146625953638 8.100086043349705 6.325610196737948 0.6595681792884641 -1.0935745066785811 -0.755006500194132
Ni 3.899476319195389 4.711338137794846 3.4129389372025343 -0.35166443465709113 -2.62633945605138 0.30913453171468047
Ni 5.075914913970402 9.135938208661205 11.786345330989212 -0.23415807820779028 0.6618142950101634 -1.1219512580490614
Ni 6.413429179000965 6.244905405370129 10.472652938808892 -0.22655841148366146 1.4946005224879357 0.5334843655827973
Ni 1.9518111995782381 1.1320931623500559 8.335137240964647 2.0095747450816877 1.924614440889208 1.6868323927755853
Ni 1.8747145180646976 2.1436439193885177 12.649727990196839 0.25455258270374226 -0.40293634545818985 -0.1781738495326867
Ni 1.3826666526157316 4.766127610569206 8.089788553477675 1.0039314522984517 1.5645800370008667 0.5083299778043567
Ni 8.126715563636687 4.698148594831388 2.283614465833204 1.225545118182328 -0.6344572431534493 -0.4254622944748479
Ni 8.295304264694206 2.011284722420493 9.284587696984165 -0.7568175852609417 0.6586672647407495 1.6179787643369812
Ni 7.634927407894455 6.762052358905673 8.475588250366792 -0.423205123009555 1.037043404361072 -1.5109349979819011
Ni 8.374923840501742 0.1310402426716791 11.101465790893704 0.4458560276398515 0.2753103840763839 -1.825614370774211
Ni 5.170736782968588 6.12441865213855 5.195892450669849 -0.694802577010726 0.19046423686426553 1.7579779025721596
Ni 5.3868338096652275 2.566284365712625 10.361185532678341 -0.11509260480148566 -0.6503888267820411 0.18690994385410392
Ni 5.8024713692541665 0.9800516797502058 2.5100247504912128 0.08258151954765777 1.3156265456514569 0.7239666001691919
Ni 0.9231149642219493 8.783447209195483 3.017351894508184 0.3554259585820524 -0.6639513959578243 0.014382493973917165
Ni 1.9812511499059542 5.6391139637180165 10.406363891234184 0.8844923976028122 0.528886976020102 -1.4202961553474056
Ni 1.61398452319636 4.017486554866321 3.771031318521724 0.0706909387576589 0.8486969851707576 1.2012908736206538
Ni 9.189837248155332 0.07216126955091354 8.474231267149104 -0.6238149329482546 -1.1267738762486852 0.23286224221450216
Ni 8.768949842351683 4.354190914301237 4.80422795208186 -1.3209361307898282 0.4944642755658582 -3.0233746055337862
Ni 8.931657973620995 2.0739953412502627 5.0438203594259905 0.8191717220181312 -1.3058195868633642 -0.1961818560743331
Ni 3.786279988445721 1.9594911866202511 4.489917062110145 2.195572461534167 0.7187598591572718 -0.21676842197643312
Ni 1.4636868057703003 1.126676359895303 1.1261912592645091 0.06970954868099608 -1.4849645420600683 -0.40663950534139004
Ni 8.95588517912068 5.754601305094953 6.514946920759574 -0.7805650653895266 1.2203139516903758 1.7219102103153248
Ni 6.138109063822137 4.958860039006388 7.114816981098134 0.26751917016673926 1.4981008223317103 0.15331256751463276
Ni 5.445342696453896 3.497288012276642 5.15517924400051 -0.24024953581750882 1.0714841025374449 0.5344323313183634
Ni 4.9712797281963095 4.860782523327349 9.260084086153743 0.6717523800594818 -1.0772410596258803 -1.9164123646943902
P 7.535514242295065 6.282785921166724 4.750754650999843 -1.9008034545125394 -1.135119162889587 2.9229331749865723
Ni 1.1369070672713177 6.012418841109193 2.4137076956099683 0.37400449291518817 -0.15678561366489774 -0.674531999687148
P 8.597615638680109 6.080787421407114 10.139689326685621 -0.6354682009164669 -2.1945177950174077 -2.387435635628488
Ni 1.2455492028064594 4.521944834158539 12.463690506985412 -0.2891804571902568 -0.07797384557231733 2.1476432419530562
P 3.7972341728619248 2.4163669374999985 1.9574246393823762 2.0924565694785833 -0.3396249869940538 0.34890332697218623
P 8.869448223511357 3.5348995430198333 0.42765377119875514 0.03643715978111144 1.0955110615796617 0.778889991679949
P 1.154409646435905 4.191816695512013 6.091678533465968 1.243326096314833 -1.0372359799878523 -0.9594343983273412
Ni 8.397305252014275 7.219206370185494 3.2777414841537653 0.8675868800967251 -1.066463766504718 -3.788232287490385
Ni 6.551177352383736 1.254314405408757 5.372047052005351 -0.6013365493400804 -0.6536052768368099 1.5765428657896976
Ni 4.54393668111097 0.5518617935139768 9.260084086153743 -1.8788709161055062 0.7902136442228842 -0.4879095051664758
Ni 3.802706627396693 5.936963895956083 7.425856456299656 0.47042291834593825 0.8848765204151082 1.6155832675216113
Ni 1.0813106393367458 9.13279386614038 12.452504438902478 -0.15267390548936932 -1.1504226260158765 1.4145679946143768
Ni 6.8717982606944386 2.7177507768189915 3.774194211735886 2.019293515031348 0.8434799597461925 -2.4289394112992295
Ni 7.312516357676618 8.376444997355474 1.2434854381725853 -0.5776091238161536 0.7471944603488808 1.2127477093073435
Ni 3.632262857005353 0.03426498566498088 -0.004418775153158165 -2.4855239925624932 0.01147457629850282 -0.24622837910876302
Ni 1.8127552023151248 1.7832967012940701 3.3404187117355266 -1.2372513508756626 0.2123283839272085 0.8701469275144175
Ni 4.771423833517261 3.0804168315807137 7.317836696526012 -0.36706611392414207 0.520453243430452 1.3109535656558196
Ni 4.503913560233813 0.9757479188957444 6.775431118941181 -0.9446145597056893 -1.8396225121278447 -0.5919180842396581
Ni 3.593399154461833 0.3905069353236856 2.8304313982938587 -0.6301637579844179 -1.1788047767029957 -1.1729835420355281
Ni 4.244751098952553 7.5791454730265 10.271343597306796 0.33454808669177866 -0.10147270002520589 -0.47125826976303997
Ni 5.435158365811227 7.880139747785392 3.798073591735479 0.04410444651838211 1.2321127440975168 -0.25293818702877086
Ni 3.398700352530802 4.588718054829374 5.8040704390199185 -1.6194026412677012 -1.6645992924089978 -0.9022954872225042
Ni 0.8417840869539657 6.916848619466246 8.507748659872556 -0.660695608024688 0.9780278450588125 0.7895621266818144
Ni 7.822929409530397 3.4559570675191424 6.661913861196759 -1.6563357668486252 -0.9212224060339942 0.32758271111753906
Ni 5.655382921775614 0.715016068958073 0.19453833843365534 3.297014800996599 0.46067843736466463 1.191004918313613
Ni 2.6860940186373607 8.780534750341385 4.78898299229653 0.6990518392053833 0.04868152436610326 -0.012300671744223977
Ni 0.9492946301954777 1.1622751404113 10.506251954583032 0.49283599593381583 2.014626191462666 -0.6000957349544439
Ni 8.733647872929097 6.315129055001868 0.49647684348346033 2.4047977810560197 0.05120197679511183 1.2991051509576659
Ni 2.6846563399036505 7.767991531209331 1.3537099478494752 -1.7961317879340613 -0.5264441709065643 -0.14483461195060862
Ni 9.104986376826425 7.8317595395593775 5.39246394509337 0.6602392372135596 0.6905453443962688 -0.14146132460300154
Ni 2.5532617789892122 7.121240158666484 11.983256303100822 1.0953354552337458 -0.03358812036809054 2.6585137267910794
Ni 4.29577478097926 4.5910925435766625 0.941292788624047 0.7572914395735667 -1.7712345104717497 -0.9780944366306897
P 7.007747016823403 1.1972153713137912 12.189738505440275 -1.2407174550473923 0.15627062170169218 -0.115905073400452
Ni 7.404416492474038 4.000336438875158 10.586550485766745 0.7796487242228444 -0.4003084209170396 -0.9497832483908223
P 2.608264584736962 5.700692990254157 0.2589046066438591 -0.6853576295477422 0.7389823568517337 0.7725630210206565
Ni 2.646043071720197 6.407882521692845 4.288851662225445 -0.061051873005998084 0.39900949959995796 -0.9584013290771364
P 6.635388224792474 3.2942135723034163 8.645118399111228 -0.2507020986094005 -0.1806433941191018 -0.865708946347722
P 8.9994607577721 1.3957263407258211 2.899028152119838 -0.34375160756791767 0.0721613526555983 0.0248445698475056
P 0.1902262297671918 8.446149227573743 0.9139221681382066 0.8191964046084795 -0.42705277889041937 -0.6117945114486109
Ni 1.4378271392568556 9.260830751560604 6.600675239883376 -1.926559994651353 -0.8445317980494744 -0.9531156551981651
