# total energy = -381174.66658820113 ev
CRYSTAL
PRIMVEC
9.17710942419851 0.00000000000000 0.00000000000000
0.00000000000000 9.17710942419851 0.00000000000000
0.00000000000000 0.00000000000000 13.43162727874906
PRIMCOORD
 96 1
Ni 3.3550501584229493 5.294255916600014 1.8786414263166635 -0.7488674771759296 -0.747298590026913 -1.6452836227995213
Ni 6.427014030779106 8.017140910964512 3.5769627525815295 -0.3388726822090615 1.3630829393612074 0.07589022357041124
Ni 8.76896640127916 0.5859501600709068 2.417786494281438 0.3352119455280227 -0.4568053275625035 -0.1919253947908243
Ni 2.550759135076115 6.35876387000241 10.905352444445356 0.8911446128120071 -1.717044140472275 -0.3389289893682937
Ni 3.214915701644659 5.692349734582035 6.113606576068209 0.34150600606685055 0.3218355242211167 0.158847638400249
Ni 2.413561353227036 3.9612165722487283 9.632746199293573 0.07911233005213472 1.2850545864018705 -0.15151639484615842
Ni 8.755934906280787 7.686820044083191 4.012295444087778 1.1778231295160169 1.2075959899030748 0.9042225290418878
Ni 0.2618816576560582 4.651527899905558 1.2502792562915415 0.4359253987897008 -0.4046816102840708 -0.631117894367571
Ni 5.576075761603585 5.42317594599238 6.224202671613213 0.8699106431338953 -0.7214160658331963 0.538950273793375
Ni 8.227186585276334 8.58462580970709 8.082951796128134 -0.9382881032670293 -0.09645313532342743 0.39684797317226495
Ni 8.692585321792212 5.093837029790513 10.487441576956652 0.9845738737074463 0.6485247769901089 1.00159714773832
Ni 8.32225225900039 0.5089119995685467 10.204034092069477 -0.9357578806460078 0.9094724645869174 0.34449079972678737
Ni 4.306028094483876 3.506013604002706 5.384053929669796 0.06324502400257495 -0.27204045507586055 0.8777941596470301
Ni 5.4713833003772105 4.5927301615572595 3.120959540417297 -1.4686676046722578 -0.9256004804970317 1.294002539623778
Ni 1.4034828342157366 4.635027457647053 12.207454836128319 -0.10795547953607214 0.9553774546491481 0.24976750261027306
Ni 8.23129793017723 6.297625968819896 2.381065209713485 -0.11456090066773172 -0.5292525868896368 -0.8222968979106741
Ni 8.107618030111675 2.2859995359894305 0.9086375075581108 -1.0394219318955775 0.7057117677240621 1.401354067027264
Ni 7.242436887529481 8.683701880131348 12.600625135049336 0.37405128699272355 0.07323273134290613 -1.9394944433248338
Ni 4.385538568192266 7.865672724381299 10.599259145730025 0.4543278125562885 0.43190856432082386 0.4826955650657042
Ni 1.0624614580611018 0.9715530147837117 4.34733426278506 -1.9845764232651368 -1.1212915129778753 -0.26757213489186177
Ni 2.1567583077766823 3.0933832451210894 7.221957250741895 -0.3697781135386664 1.584854985199819 -2.1993242152671155
Ni 0.21809216361785969 0.04992255608567272 12.468243500084162 0.4437981166695582 1.3939179224641929 0.8641220614765763
Ni 6.047659869689112 0.6410284160791757 8.790086600285681 -0.654133638536454 -0.4106398847500347 0.7888776990202802
Ni 2.8874213843827023 1.734427744519516 8.742404176544447 -1.3335363360523422 -0.8994384773896832 -0.15696841909966514
P 1.3638193684530795 1.398270236216387 1.0019310815045694 -0.10947063062901792 -1.1154250268947692 0.08378299605492669
Ni 4.740564212915576 2.93780371363698 9.852219517839078 -0.2609348320810022 0.41067485175302826 -0.36280836708905256
P 7.221926048570772 6.492263276862514 0.641138541389021 0.4058758877024881 0.17532455300934968 -1.8970334459471458
Ni 1.2273374011179954 2.9495137049172087 2.680079286427586 -0.9334477444555924 -0.32514633376190455 1.1529387075695112
P 8.00243918210015 1.7871318823897007 3.9103359259674004 -0.3709374239540902 0.5502057921025363 1.936256910224143
P 3.6208743021714733 0.872755010766813 10.37828261670513 1.3025121197566858 -1.3885024078755765 2.2808880921835364
P 5.878984603442553 9.116540233369598 6.686599575724887 0.4335787529343953 -0.7797235433248377 0.9010775556550031
Ni 1.162730552675352 0.8413793922809389 6.6830801543644105 -0.5432201048133225 0.18494793503172666 1.3209656984761833
Ni 3.7929359216957805 2.7513615640686924 3.235087905275593 -0.20136134339274353 -1.4270339882918714 -0.5826978511929706
Ni 4.92714401912117 7.442626346610138 5.487276218009734 -0.05184912346080747 2.0113722033017423 0.8361127207478438
Ni 2.6403277204170528 4.709820897250397 4.067902301583304 -0.9407661324938766 -1.6551723426681428 0.7343584849264772
Ni 2.8641574126778586 2.935968291806223 11.838917733597892 0.9177480743321484 -0.12722615484022606 -1.420714988052379
Ni 0.4457450395521322 2.8436557508283036 10.609360389775595 -0.12815432308145025 -0.1232237185490523 -0.9047120670837968
Ni 6.100134579830453 6.025286077572186 12.348849309993424 -0.1666437374059001 0.10942692187527606 -1.0104877653597306
Ni 7.91550442708635 3.8397850639258504 3.1525912002485614 0.9753850081193267 0.17990111663643857 -1.6343250669054885
Ni 2.3612885394870786 0.35115474008224373 2.5411433601047797 -0.19240439130977186 0.3126001216657778 0.4675553669901561
Ni 5.827023811413824 7.505397773222024 8.685601541726182 0.9637175990837273 -0.9550846059990777 -0.823638499540233
Ni 0.5361377292950794 2.534781788039376 12.892535211567491 1.2789263620169458 0.21798095422729558 -1.285095209831819
Ni 0.4807483692864973 7.605593450963044 10.848469968777453 0.03459907813110816 -0.49719298735093087 -0.28863744020259324
Ni 3.812171142482113 6.45042483623041 12.833932945644168 -0.5088912496244655 -1.3792785752844634 0.6723779294586226
Ni 3.7084147463894244 8.531215034432064 8.419628728809366 -0.29544880669747187 0.548939523795603 -1.0323015188007125
Ni 6.505524199589733 4.4931218188020825 1.0725195696936496 0.002524309083750491 -0.6348678483283067 0.08998295421805148
Ni 1.1792768804796256 6.14554291592338 3.2441007441755247 2.0319407714817133 1.8072325258329134 -2.9843416600010406
Ni 0.03309540874129331 4.040405847136735 8.414605179258585 0.2778925429812633 -1.2729742581985688 0.5623696811585799
Ni 6.842544356153318 3.4868976856353724 5.113312690836675 -0.8753541827469697 -0.05014396784424267 0.7146360667968854
Ni 4.738425946482744 0.27814257736564907 1.8655319258904823 0.4203424567497793 1.210077104453716 -0.21393609473396058
Ni 0.22749594736774273 8.056418938142711 1.0500292282904697 1.0725385119438882 -0.7591950843541828 0.34752264457457566
Ni 5.837146162810448 1.0712623057395811 4.885068809072898 -0.8319632173558446 0.42999797756167235 -0.4321931854407783
Ni 3.5760624781735433 1.2790137027629562 -0.22322950932214827 -0.2205068059729428 -1.0736741682102284 0.8648946779765427
Ni 0.409243087892954 7.673366402063744 6.334986897895869 -2.4015962433995863 1.0925661200187249 -1.53874533532595
Ni 5.7916001700802155 3.1574669983419676 12.237098734116875 -1.030791252803773 0.46569183141885606 0.07984303757057216
Ni 3.761990709629219 6.055699017307828 8.539102759749742 -0.26151641561608513 0.14243962935587082 0.5513234506467474
P 0.19173734155002112 1.7436140307824544 8.550815504162717 0.6744116720591997 -0.21320333033299413 0.3536840361902812
Ni 7.0867013451897565 2.661838864273524 9.94662994596955 1.1763735415536836 0.05888700414419536 0.02111724159458944
P 4.292381733172198 8.698605505397094 3.646579384911224 -1.1859663274484413 -0.29615945961125123 2.6091187212977194
Ni 2.346384914221333 7.840784404356234 4.6686321959463815 -0.7909741765379926 0.5891436068183145 0.37888161850183133
P 4.333329994216386 4.669799524230743 11.309295751802 -0.49596451426046845 0.605534389471512 -0.3763449681229067
P 1.6813106367374109 6.237956405101989 0.6057048052353434 0.8844252918103026 0.3231105342787984 0.2713902230863713
P 2.1261985342945793 2.6527443491021234 4.801377244434044 0.6507747493665502 1.311032241412555 0.9991021492306084
Ni 3.2361698864448236 0.8598565838511688 5.426242935871575 1.289787730211482 -0.03147390223856515 -0.2658001305931035
Ni 3.357188424855781 7.801423783195652 1.4030542632182548 -2.24522894821903 -1.644440815183252 -1.0578112330360427
Ni 8.011818187655317 6.287824816243655 8.533394597856088 -0.09547303079834525 -0.8236181878252589 -0.8491903798674085
Ni 7.429704976921609 7.573712173762796 10.601435038310388 -1.6768138321973187 -1.2270175889627963 -0.7736577967467321
Ni 8.02906197575528 0.19155655249969158 5.544186225005098 0.36582324265597643 0.9716792771329653 -0.9969110551165606
Ni 6.0207984711959845 1.2214365199321118 0.41095278332830404 0.6580448006654022 2.377114199097822 -1.9975584373471018
Ni 4.971708061171948 8.477528945882424 12.947967703989097 -0.6554299887503744 -0.44461547036453103 0.19028785918740132
Ni 6.227742282613828 2.1366604387298938 2.6289453519336137 -0.3294555026602197 0.11120972480731171 -0.014919854534625916
Ni 1.3179062913566955 8.548238571912334 8.674776223768378 -0.02537061755430469 0.16875487021163196 -1.2510507186526003
Ni 9.111621302863169 2.922331107603699 5.717467482335944 1.0561341024439361 -0.911742491568017 -0.2657425378822907
Ni 6.937986291352677 5.918767371624209 4.071663080914526 -0.7436586792814806 -0.481437524288887 2.655215515655782
Ni 2.5104165632360784 3.3154050468786 0.8025051579055075 0.5298801931713067 0.09173618946373234 -0.8891304105954558
Ni 3.8982432492354584 6.491712650313287 3.6473043765343727 1.4386119229374579 0.5588701526457537 0.24780035158157324
Ni 9.188305226952194 5.208706905068434 4.723607668332128 -1.2250625221189546 -0.6016435390575381 0.4842593100083983
Ni 9.068883505533995 6.372300106004242 12.766493123605754 -0.8759144261258139 0.7278253117936497 -0.38239503097172856
Ni 5.330551383303232 6.701987752353953 1.725655345879413 0.6239897679632221 -0.39835541095572685 -0.3879113328042674
Ni 1.0193841076932368 5.584096555003993 6.814468826119144 0.8508993921387152 -0.7684536268379734 1.248534894209282
Ni 1.3876339667071507 0.5498556720581567 10.513633046481555 1.973331446478937 1.9926018646727743 1.034813743699605
Ni 2.363243263736835 8.251744529371862 12.143990537775323 0.7872003113178573 1.019805957436863 0.9768996449916401
Ni 6.473615391062023 5.019933769775085 10.02298900039453 -1.5959197276544128 0.31533140455401176 0.14838993340203477
Ni 7.854687724724219 4.327979739579729 12.716218166528575 1.4033582419414863 -0.8908396799770787 -1.1844069533811215
Ni 6.893110227590671 8.47049010316147 1.26612169982372 0.7369969509905887 0.2410506915625655 2.6202832225549715
Ni 4.691062886140061 1.9015245479916254 7.297550934263449 0.5151554853666224 0.5431298590923613 -0.5795739608520083
Ni 7.339549056594829 7.289240144213782 6.211267536260954 -1.677258375933905 -1.2075368545303655 0.051592013144678886
Ni 5.767794748935298 0.8522331592771201 11.111595124723848 -0.40862851074696077 -0.3036825074611738 0.7663252676410609
P 7.598095752784402 1.8798390390612325 12.218254458180493 0.3396838652564473 -0.29150884821311734 -0.9413680277439337
Ni 1.2296867410613643 6.32769935551685 9.166333392216202 -0.36265178690653027 -1.5808648902038194 -1.7720402942024964
P 8.287516900853314 4.709518052648322 6.6098110325915105 -2.2669149178328962 0.7099237489228806 -0.17713692362774008
Ni 7.547126088544282 1.5168109551558224 7.339631650577213 0.312186688277443 2.1144168757997583 -0.06500417278552675
P 4.662054044104949 3.395603803773523 1.392899791939592 -0.06519494864009416 -0.6075627327554505 -1.0670744035055235
P 4.119503350933204 4.148925162880238 7.633260599639873 0.6252051284275619 -0.7661540321705193 -0.2050994702789371
P 2.2400313962381233 7.568536284200062 6.919181476985658 4.324872682203662 -0.2302654280216034 1.358347481558751
Ni 6.654184190771889 3.7796841760777156 7.669445941033246 -0.7038029807371234 0.025295798452311277 0.8638340979225122
