# total energy = -340874.3624854765 ev
CRYSTAL
PRIMVEC
9.20304271300955 0.00000000000000 0.00000000000000

0.00000000000000 9.20304271300955 0.00000000000000

0.00000000000000 0.00000000000000 13.46958326829950

PRIMCOORD
 96 1
Ni 0.040155635520167876 7.804446963200432 12.424801340073993 0.25599677134943655 -0.5630970462429076 1.1489925784375696
Ni 9.122856431572584 1.8115360968591123 9.040016164441916 -0.11957275206002634 -0.5965735807337984 -3.6145131312949426
Ni 4.922339333604609 7.493209267498427 2.8559148502192158 0.8396850114801345 -0.5539781146607751 -1.5084438561289313
Ni 7.645445997215527 4.9037767967989385 6.288517194287038 2.2335993343999014 -1.6027040975660978 -1.0344465901681732
Ni 0.5838529827712113 3.3486466681811575 -0.24365699340895852 0.4050809026050185 -2.0689047503005726 0.9366227997494645
Ni 7.880841419335218 0.22149514666541206 10.074048857377164 -1.3057643081453965 -0.8508662249079346 0.515748381755615
Ni 7.784053020929057 1.7124285317325594 1.2637461565899821 0.34283475218060305 1.3533847382368367 0.49146919749327617
Ni 5.916313943270626 7.901824356329232 4.96337938151299 2.1606149716223757 -0.2270942293824734 1.22885232817869
Ni 9.155867745167992 3.7952979318348845 10.077241392834718 0.8430770678808189 2.4895359419353644 -0.2696565282247162
Ni 6.92532632444902 5.7042482339929625 1.8402551114132881 -0.0615331835177908 1.7735454179931134 0.48969796452546627
Ni 4.110630981467739 9.156631597698913 8.52737724515903 1.579828221409189 -1.1711837698226284 -0.4581538711705981
Ni 0.8608949333027517 6.5569285315234085 2.569982760592843 -0.58850700167558 -1.8937113235524483 0.6618708592797117
Ni 6.942213907512184 -0.28269998108589117 2.82830296168275 0.3865795013667213 0.5388530860938784 0.7427881037510691
Ni 5.645919350366619 5.551229245659859 4.0758149512299955 0.2878835927557042 0.6301516737995598 -0.5988245815515042
Ni 6.3238614791666485 1.5184007858357156 4.854410756303504 -1.521111938514903 1.2315995519065241 -1.8886611627230503
Ni 1.9324088575956844 0.7435727063785877 4.827646467985086 1.1918209864570055 -0.143383738436695 -1.0112169302162715
Ni 1.7758098857140405 3.1453514584452904 3.7010238046509882 -0.6595141861220771 -0.6618562039916923 1.4064751903039132
Ni 0.76009584895712 5.555039305271929 4.738788331336706 0.11815016068088685 -1.576195252642292 0.5802033669058911
Ni 6.959561642702412 7.906186598493777 12.034358579045108 -1.5048371126142792 -0.44429691068284777 0.6896765686380704
Ni 2.2474934250799254 4.302827321898877 11.517625226135628 -2.2355806264959885 -0.5111504779722875 0.17970596990649698
Ni 5.56854016867992 7.377849129244055 9.699056164166503 -1.2047117263767446 -0.7383251828837091 3.4166271480453094
Ni 2.5014513840052874 7.948060442056394 3.3352166682007343 0.8936681505648093 -0.08809653582861601 0.3364057087258077
Ni 6.9518034778401505 5.414554860879988 8.502081762430194 -0.10001128498833099 0.008646362821088336 1.0780810390286724
Ni 5.880891432529415 5.280705810160275 13.183960319300416 -0.19859277950867088 0.00038258015039934113 -1.4804982787585987
P 7.757382603644559 0.08120304586258136 5.244920699542939 0.9696866721829688 -0.6979249246897915 0.22278248938099696
P 7.780012885253455 0.6689075019372993 12.25796674427799 0.36724274871132234 0.8896338325944356 1.3091134271232876
P 3.630112521262269 4.6847075721473965 13.149936671025472 0.5596191149966362 -1.1293156688339325 0.8546154075377217
P 3.220613940347505 5.754487643225561 3.5763225782172627 -0.646495405264906 0.0876735893585845 -0.6528953952539788
P 5.954386930263712 7.638240014905739 7.821826909039553 1.2032140587852955 0.297500547020178 -4.189543438640326
P 4.078153444339723 0.689549926357288 12.571255798162435 -0.4873695735026058 1.6330387439938974 1.5371669350952364
P 8.906281231449716 3.3757496284650927 5.042647947833404 1.2829987323141065 1.1903017215990017 -1.3101369832917953
P 1.8227361996317948 2.629290847945574 9.781637825801763 0.6956541263777438 0.9292051671291545 0.6470317373843502
Ni 7.8147543708466145 7.305881336571601 6.322487464915242 -0.305774356993196 0.26861060345870513 0.9385205309928095
Ni 2.208214839513937 4.542520564885326 1.697976073725805 0.3448435550805158 -0.33417656228497283 -0.4503048074398245
Ni 2.5123477863741086 0.5892220377897674 10.131901023399871 -0.19898178741697342 0.7732124816791974 0.8253652524233528
Ni 7.848593958270733 2.19168617510988 6.486466356610702 1.0945867499931792 0.5056004946883356 0.45982020312942745
Ni 4.011882335000294 3.5494754625159737 3.429881004388379 0.7180857159083827 1.0750661634617484 0.16934853793157287
Ni 0.3905550381478872 7.857392066940154 4.700521160146 -0.6573032945136873 0.5390310064326393 0.26012082082013915
Ni 2.3926806242104384 6.410241236458674 13.208609748442859 -1.0674713818336259 -0.3446617780870129 -0.9426124416739959
Ni 9.203042541234359 4.170782067517246 2.5017725701899765 -1.7096959276373198 -0.47272071324117937 -0.16453620414459405
Ni 2.9424335734536142 1.033400443912665 2.245581953144111 -0.5222417027894425 0.9339789343687139 0.3366206529500912
Ni 3.9142104445101737 6.758567193601854 7.770548476304049 -0.34987391841557164 -0.7941500031628129 1.351515803348898
Ni 0.40986762292066753 0.5304762563363061 6.46690805060207 -1.117307845739779 -0.2665264672361668 0.82799934761209
Ni 7.9590212657230035 6.968773888286187 10.013382400945348 0.42586544345053756 -0.962617424041013 0.7054495152016109
Ni 3.4342441668571784 8.212988427690908 1.027928314817647 0.6307862220597652 0.5502405019952137 -0.08369660698870747
Ni 7.942087667447133 3.813179443492503 11.948854031098756 -0.6681080984386752 1.344437299235562 1.7597892447492853
Ni 4.156977503705395 2.3255536319146746 9.474235037926691 -0.4569107427921163 -0.4861287591169693 -0.7707087414207372
Ni 2.002922569546622 5.779004548555409 9.705279261532887 0.12663634377502705 1.3419039912907471 0.1321590733654692
Ni 3.930702296744066 2.29695977873906 5.374322840106727 -0.04889826836259965 -1.5256314236518114 0.8965840386600236
Ni 5.997797681930716 0.34706790122779246 0.6403007645021264 -1.192791835010707 0.2525815750203005 -0.7821743188581755
Ni 4.613466819835701 3.2760070534031946 1.31231153238433 0.1080179573428914 -0.5603068850922802 -2.1319240314455863
Ni 2.3984877440539574 2.0470143463616757 13.12728062089746 2.382702748929193 0.1816363541599904 0.06913053624907449
Ni 6.61420826830005 3.5290078959042686 2.8612360494165574 -0.20316342959848882 -1.1223641772167638 0.7415418900487939
Ni 0.24048562494924916 6.479779425900241 8.027696209774204 0.02211791494496191 0.10448603293023295 -0.15237848573613758
Ni 2.1074599297725034 4.278853396078961 7.983637563912298 -0.522742810795577 0.17595498750449698 0.4668783955277895
Ni 8.636586069778842 1.5342300190066387 3.717093237232237 -1.3414509629137286 2.8755400304145895 1.7001738470794978
P 6.290896180783947 5.590176521694363 10.927226119204835 0.6230680274799011 -0.5849488520106765 -0.6262574809514763
P 3.7500557747021763 3.069030626650834 7.402922818647648 0.08289262303017336 -0.23422184156619016 -0.11307788836430202
P 0.3550837512812076 5.820574691714165 11.426597932360279 0.18977363855514415 -0.4505472624679338 -0.07828263506198775
P 1.0762129978144872 2.2475854555053374 1.8831017165725132 -0.4508923045121783 -0.03849121409666274 -1.0733643502792933
P 7.341036959079117 3.945556007405618 0.8090265855403548 0.866442739189953 -1.8930713759756042 -1.1126040125062064
P 5.573463796439481 3.7362696169754073 5.121472007199076 0.6343297164366495 -0.6026868927203878 0.49359729957987253
P 7.538074099886944 6.8856612110963 3.579811451644644 0.9331721221967025 0.11748733028590733 0.6639261991468437
P 3.717477004106207 9.161085870288872 5.993977498971849 -0.15974032541784747 0.27162496480499676 1.360564800925044
Ni 0.4168729789030551 1.5482186436693148 11.204578212270016 0.3672473766970127 -0.03289880761054979 2.364917399921314
Ni 4.064956281335593 5.808150584283498 11.023695172034818 0.5867771634686668 0.04777315361922095 0.21967145455584103
Ni 1.5382701546822406 2.743104875053019 6.249644462897118 -0.6620127841742146 0.07087554396463923 -1.1693408030766184
Ni 4.470414726574755 0.052210700944930764 3.9941894857147706 -1.7840203493825082 2.6544449560383443 0.24907921829399685
Ni 4.345787124481359 3.343456152187901 11.479250379347189 0.3642062758778437 -0.07019240185468557 1.4790666885183947
Ni 8.513274502768844 7.650756152761818 1.2981498905218785 -2.8031714468441917 0.4710896053956597 -0.4266331748544975
Ni 2.1263721821947397 8.898937203501811 12.20197359284861 0.7895384725327306 -0.2607741381334219 1.4144420105594737
Ni 0.9041483129422989 7.966540151479193 10.328678638408038 0.30271705822411094 0.12956534449636395 -1.669618857110776
Ni 4.4360137535556206 7.777178348150755 12.37780600333718 0.20420755459228704 -0.3047492581627913 -0.8091948133110775
Ni 2.105840194285246 8.15201827085523 7.240102590008129 -0.8148630673404482 0.5279104710394458 -0.35874576698390476
Ni 6.054552845282507 3.1035236300953803 7.7477718663187485 0.04590344740033385 0.07820678751872982 -0.4405186745873381
Ni 2.304156558006305 1.2934140048301592 7.997753190562043 -0.23813377502608668 1.235348220315679 -1.3919330308236801
Ni 6.468837008318713 3.2785839053147403 10.415678680767341 -0.7164047286615339 0.07543822363465717 -1.9356760980200085
Ni 4.598116144876923 4.560245624819743 8.816259830224123 -0.8031131258933717 1.4830938073999167 0.5283737838291094
Ni 5.224051880276437 0.46894563420986735 10.836360798978212 0.606142455369156 -0.16225255031673994 0.2547176475266968
Ni 9.054937977618273 5.2849392097292425 0.14636979009706183 -0.4611144964608187 3.3389870316633266 0.568898226305717
Ni 3.176779848723606 4.623415308822776 5.619375014764937 -0.13532255869511534 -0.18809933617651475 -0.15174496591719672
Ni 6.138328141535364 2.400659662093689 12.77033693471867 0.5083016956695826 -0.47976399324120594 -0.05892248536782111
Ni 0.5208507941424292 0.8596893347298499 0.21198840372031694 -0.7243365819141009 -1.485261761585513 0.042650230570358806
Ni 4.343311506037767 5.694005247644569 1.6538355207852828 -0.21371626541367067 -0.5198996849198272 -0.9701474138694711
Ni 6.031121898972525 0.6949521123289926 7.124116644860952 -0.5671737874154426 -1.3645554101416755 -0.5887995932153343
Ni 3.8270668346872254 6.986222856944368 5.3557888327329355 -1.20922941174144 0.28440977527449085 -0.2581834945881102
Ni 0.5449029458239452 0.06418109837831429 2.7546105188380703 1.5480280461794567 -1.5821524986669913 -2.320937651906254
Ni 5.553391960657049 5.575663323606836 6.486884174742074 -1.0694794134025902 0.3047405164120429 0.33048548658663085
P 1.3480892805676326 7.838093286731185 1.0057600259443216 0.6547231924913369 1.5527084823742614 -1.0660989269661316
P 3.2235589139607 7.826847168745796 10.163877915013645 0.376959461778454 -1.9702790328058584 0.02749614853773974
P 1.91969945584624 6.082226394203999 6.618117720771567 -0.442340044066793 0.10730473332595068 0.20595230519753563
P -0.011504723480797072 8.766707888269355 8.395699192174796 0.518377848958662 -0.9738346329130713 -0.053755596454900974
P 8.370802201187994 3.7434571932001113 8.042121978957589 -0.4313251810135281 0.4231781264263615 0.08674233579356674
P 6.167207289029757 1.3762781998714335 9.181285628362627 0.6866159274348755 0.1276701843561801 -0.8878345746021677
P 5.828977069554312 7.475530222776716 0.5767960897505927 0.22264236425870687 -2.209476216099453 1.2020200384771942
P 5.109805310169553 1.4390337469601104 2.4896365179908506 1.099764694649693 0.5185082038889393 -0.5505474917126711
