# total energy = -381159.34943519166 ev
CRYSTAL
PRIMVEC
9.38061516038042 0.00000000000000 0.00000000000000
0.00000000000000 9.38061516038042 0.00000000000000
0.00000000000000 0.00000000000000 13.72947849433680
PRIMCOORD
 96 1
Ni 5.658640462960088 7.018688981216513 7.6449172873668525 -1.1400312554792238 0.6196407469659071 -0.7945228131211993
Ni 4.314848551125972 3.479317140834564 8.984681162964536 -0.10701137045524797 -0.28590281488024955 0.3326655249570851
Ni 5.041536681372345 3.5385838686915427 11.517426673344882 1.0917521087578617 1.5119043038737057 -1.408572439152574
Ni 8.180281200874925 7.842297629382847 13.393477515002255 -0.06451951983962437 1.9427967682251897 -1.2607190949802998
Ni 9.260440298576004 2.9996299936844415 3.9531423414449867 -0.47775081946591913 -0.68985191787367 0.6583394490876855
Ni 2.8807119327406423 3.886979923235417 1.0997439464538166 -0.8792239501150212 0.16153804074821856 0.28743184993026627
Ni 4.7560845559073455 4.501147572214861 13.713374322014904 -1.8170981057730835 1.657495848594997 -1.7763198954144572
Ni 5.138447818676943 4.539129683815511 6.944686244687403 0.18185952591439003 -1.081557427613047 -0.32816866552799606
Ni 2.989029898325406 6.44032714107374 5.2148266650772435 0.6288859197132588 -0.5411182279789712 -0.14447260062549958
Ni 4.764620915886746 7.851781431513808 13.125724734602237 -1.674093347942362 0.4366051984655449 0.9752978477221591
Ni 3.2413965934087083 7.846490764449651 9.352933166045108 -1.5808538344602259 -0.7605803947374837 -0.13747560048237611
Ni 8.44412976916129 2.736747628780361 10.305593753930788 -1.3748917590706773 0.639816964803466 0.47750553622433245
Ni 7.544641323331913 8.207128522040907 10.658262678772042 -0.43759275918979473 0.09244581393624725 0.5686107769722852
Ni 0.04851279040600702 1.7091293577217237 8.648102807653682 0.7403581541533378 2.2483908908867796 0.8011287484734914
Ni 7.852203559205096 7.2357188982312435 8.53596036518584 0.8314628806806584 -0.3128042672567839 -0.616043516532952
Ni 5.854976742486294 1.4513406669591977 7.531237362041183 -0.28079403289877447 -0.4932229469595893 -0.5982121447784858
Ni 5.3159384419409355 2.2275959687782647 13.307118631918348 0.7841255290472754 0.06261973171375022 0.37511572370149593
Ni 6.913091394086724 2.6624812969595792 3.1770558907024355 0.4426120667812571 -0.09949269348069963 -1.5142864309526374
Ni 1.357881596107808 0.9247082302300546 11.076380156993821 0.28830242546067764 0.4062726089202745 0.6961300375728978
Ni 6.3145612309156975 0.21438645960572464 0.30880798159325346 1.3622334468767185 0.6125923247595579 -0.3808626534876021
Ni 0.5611118265536306 7.460290829997004 1.1215351159396922 1.455307638425584 -0.4607802530498516 0.8724935733697232
Ni 0.35221865530388047 3.042687018195922 6.616579523109952 0.6430151600257894 2.1908025509493494 0.36878746749062297
Ni 5.803336454918604 0.2505037048724135 11.7975356002997 0.982602094693056 -0.6523035273062507 -0.06549628193059688
Ni 8.514625093606556 0.26018074767983035 7.3559661923718345 -4.640544757926544 -2.380869038154564 -1.4955819125645984
P 4.40915187735994 4.905123772778457 3.5841764735353663 -0.32020827303033883 -1.6362137992877692 1.3989935372148874
Ni 6.405675147926593 4.157122884429669 1.2183346239214823 1.761569990798792 -0.3881985250273831 1.3028741310817948
P 7.3201913395658575 2.2721820335937477 0.9495527900162541 -0.42286393762005237 -0.6348416230760615 -0.6828793432105789
Ni 2.874380017371307 8.36561401858153 1.601104067336254 0.001974607227867567 0.2670502009501207 -0.3787646333079928
P 6.300706062026055 7.026850116581435 0.5309137495803501 0.30039483784883747 -0.20065840378844796 1.3183634849666457
P 8.855582320168383 9.36194793740797 11.99466266570092 1.134291781892285 0.4032438493962797 -0.1460394308919872
P 6.9196859666861945 5.347663683095146 7.569075012165258 2.1809580540551017 -0.41504701267879485 1.3081675182702504
Ni 0.561298500799334 7.46041277799671 10.779466795679555 -0.5566165807248864 -1.1946422579558846 0.7005345943984967
Ni 0.8622004997655122 5.298631206598086 4.915565335737875 -0.4345902249180451 -2.2189517596900554 -0.9595794085456377
Ni 3.402715035788649 2.0827780288200435 6.974162952339348 0.8925890585680176 -0.21607011035782786 -0.9601332241665788
Ni 3.9149904407062848 2.559238244285646 4.0846294889123005 2.588203311301291 -1.101078014144478 -0.351028343734989
Ni 2.3348726860578486 5.828363936704362 2.9116651492505623 0.11957789426634889 -0.34900874220179895 -0.7880585455530944
Ni 1.7751313674086031 2.324291351929537 13.242988054996184 -0.5040478054892352 -0.11630642260392872 1.5277533550908204
Ni 0.0061958964465866715 5.1250429193246765 9.298797634791132 -2.573886637568303 -0.40564294575607557 1.4066392266856032
Ni 6.847680363167649 1.3927024403314712 5.144573360508315 0.6815827358863423 -1.2334700294563594 0.8932806853184034
Ni 2.8465102091308694 4.105257462093291 6.260903172983646 -0.0578387653853391 0.25731857548465364 -0.5824664519084549
Ni 5.634813699940663 6.2790086986938 4.921962915414744 -0.9515531958070514 -0.5157208709517892 1.2590687038610704
Ni 7.977050169057665 5.698545600709945 0.2060836769488376 -0.21672291345047834 -1.5287375733809607 0.7769110135767071
Ni 0.6287470013750304 7.326213694628248 3.6283169591211553 0.9825416737687659 -0.5991254006213745 -1.388155308948803
Ni 6.489950596338606 4.833887379719594 10.252955368888582 2.9949783137792805 -1.0751106435464388 -2.429019372607546
Ni 9.091017004523312 1.034297269196366 1.0465652379667614 0.16275031588876487 -0.4186851236520144 -0.21826968911230796
Ni 0.11105241496278019 3.7799001988784346 0.7547408604863697 -0.03188142208962897 -0.6375631357722826 -0.3103774029828461
Ni 7.765357822183901 0.4641322107568903 2.97817089798238 0.3329033519995041 0.5545596981958578 -0.9421550424216033
Ni 1.7512014176201962 3.170338432041723 8.575322365306237 1.1244277446140118 0.17254364783010284 0.4168997496168175
Ni 4.508173653120983 5.664315735254085 10.526528821120708 -3.432795787385372 -0.44126583716600776 -1.4830187311876073
Ni 2.1062577090710755 3.5495029049728855 4.067838187414359 -1.4043589152918587 2.6246551263704214 -1.2177983843573736
Ni 4.553435122242528 6.610819825277697 2.4568628985326955 0.5245544100830192 0.4044358128218518 -1.1376151898385634
Ni 1.1482436039983168 5.164122562922678 7.357861076674955 0.19401287344747234 -0.2717717747955061 -0.8743671362433522
Ni 0.5985282870479535 6.151376046078722 12.78880398683067 0.8289236591985724 -0.053465833128624046 0.29406606741733227
Ni 5.044247679211957 9.048757332317601 8.763032230945567 1.2833484023440416 0.37068597006491644 0.30388948126565735
Ni 7.8666966099393525 7.528675515985826 2.206739108582442 -0.33950774468989914 -0.835465059861516 0.4899928700580657
Ni 1.2306054068764862 0.4482273774106561 6.964923046207799 3.0611644226880506 -1.1672278704986736 -0.043437502358344544
P 9.22092914667135 1.4194278134977476 5.644929755547021 -0.9490296580542494 -0.15295209885142044 -2.1710091703725065
Ni 6.4113973232973995 8.35082078815569 4.231864813449303 0.7419524952236511 -0.5274890672313108 1.7121688146578449
P 2.740884480154994 7.4823634179437395 7.104044138456691 -0.4551479944647387 1.3952584956524874 -0.3442288043146523
Ni 7.003576809868366 3.9004411062798563 12.45156617425987 1.76364152861584 -0.5590830399875082 0.786922117955806
P 6.53568109622825 8.707950195601567 6.37053348665755 0.2308989478405443 0.3072892509758256 1.5670182141287141
P 8.332050176816372 5.470136997261134 11.57764365753803 -0.30679559916885873 -0.11148714683841446 -0.8087340716245749
P 8.257286672381404 6.532988859619363 4.653414658832029 -0.048160361755310604 2.624823790737802 -2.1356153642542446
Ni 5.86368195354221 3.4359880784775862 5.005520746751566 -0.7088479993601986 1.3257384372744783 0.8566087838186666
Ni 1.9989434693300434 1.486245936721119 4.97335274055227 -0.3642281302547146 -1.0832607834573988 -0.5011211187607434
Ni 4.110276091311949 0.8699235603930289 10.591468945148613 -1.5648834271738985 0.519955477858427 0.18627359582168565
Ni 2.658672767122616 7.590390584452281 11.763088104567442 -0.11981160754370979 -0.1729866489047924 1.205912174442749
Ni 1.471227571526592 2.1743422153683136 2.1974035201742015 0.4768483622563078 -0.7291586858930926 0.20983801340518696
Ni 5.724623711416244 8.5877657515839 2.157353920947771 -1.733683805911485 0.15005009471327704 -0.7027781390170348
Ni 6.179649220779726 2.0708646473103314 10.134085149083129 0.029370996962949418 -0.20663210487337963 -0.8161195654553686
Ni 0.5042418459216371 9.089075217143384 9.325555840111177 -0.18293758946991717 -0.04991076878751404 -0.4431933932060238
Ni 1.0397849291831236 3.579802292592076 10.966160740675184 0.20706045066004986 -0.0291370265752724 0.5287561068691926
Ni 4.390249937405554 8.42919582950502 5.906655490576969 0.24040894421350853 0.4672571190234469 0.7988363528948887
Ni 2.199257129769728 5.262844158992138 9.67696213412471 0.4696078786438106 0.21350749183697423 1.676230963110655
Ni 8.937062345202525 8.903948772974742 4.840039187273979 -0.7907407203709479 0.2215537591802184 0.4309654836812643
Ni 0.6963577865964891 7.116041007443124 6.033817236300875 -0.11627634069694168 2.2643049910138746 1.516683213319588
Ni 6.05913645522439 6.196440522277666 12.019554128563929 1.8168006291373224 0.7007726785512318 1.695217788625803
Ni 0.9706873164267913 7.1201309557409465 8.42499894219207 0.5071264444145589 0.36879363813821003 0.02803093799528721
Ni 3.687322905871071 0.5623650767659909 13.396058122288336 -0.24518348278401644 0.26180823582489104 -0.10701188467588021
Ni 6.825823529374239 5.009060990989177 3.3840147790645454 -3.129454979534333 0.8532511802003434 0.6534893200842358
Ni 7.8893038929617205 4.904870496163684 5.646247732005379 -0.4175497244959906 -3.1345642757364405 1.8845803077854575
Ni 4.834028088950023 1.6403600665030607 1.8327752488079596 -0.08808265187154507 -0.07223077244095302 0.3561155284499093
Ni 7.4970816034466825 2.9820788623421803 7.890125634867429 0.13795408278069143 1.841938561855531 0.00154754699277798
Ni 1.4257315870209972 9.228039653115731 13.439251165722567 -0.6243389237725248 -0.05212114617527152 -0.8388352618853295
Ni 3.0865132531670847 8.530759752029159 3.985804706073859 -0.4406158622868347 0.7348361958938442 -0.5151511144912483
Ni 2.8471480909754843 0.82978484532066 8.642061691360567 -0.6502738984707316 -0.41250599142449607 1.3247364783725248
Ni 3.5522139028124977 5.77610452852278 7.986616520603811 0.13966720881705622 -0.39309184856394236 -0.0268590291743731
Ni 2.5404207298695174 4.886109265439727 12.29430860027013 0.6412205300192118 1.2999302179621224 0.8654140408151225
P 7.424522543621781 0.4890968424197232 9.200796469981473 -0.5613173286346655 0.4538603860015667 0.6238175040514159
Ni 8.724441317407925 4.914485626909711 2.671028913677414 3.4050070473078775 0.7187624302604331 -0.905176408314725
P 2.721785547278006 6.568991661378636 0.41291498894202494 -0.432326625694849 -0.8801438908261294 -0.607523909097715
Ni 3.1779179692542012 2.8231524768795437 11.687809604349104 -1.8653052616059294 -2.2784501721660053 -1.197462501013499
P 5.110896951358813 0.6732964817906016 3.8422081222357676 -0.8513164250714758 0.3009923622235203 -0.4027820792685127
P 4.677409334866433 7.697104464810146 10.94724097755161 1.1845807599548244 1.658201359302454 0.04455798911603293
P 0.7565578856819849 9.340006678076303 2.7267019277892186 0.23346388035424306 -0.005395202873642322 -0.35416920335681584
Ni 8.869090406289631 2.0988282617043885 12.639358589314385 -0.4412879486531949 -0.05694736391932128 -0.47299376439690805
