# total energy = -381169.6718684872 ev
CRYSTAL
PRIMVEC
9.27507125437263 0.00000000000000 0.00000000000000

0.00000000000000 9.27507125437263 0.00000000000000

0.00000000000000 0.00000000000000 13.57500431934170

PRIMCOORD
 96 1
Ni 9.247598207565652 2.170440807026435 3.673274063384886 0.47389030806924837 0.7262106590083621 -0.35713805617715266
Ni 0.5678699300302396 4.746128014776773 11.6524172754264 0.3446694913964967 -0.39076551442361085 -0.38816870023071215
Ni 3.1424125940231544 8.413305574014542 5.535818687058058 0.6787023290147536 -0.9973915942974048 -0.15057022888280522
Ni 7.327973869649711 0.9425883621708168 2.6548907487725315 0.7699482091056288 0.3725009117864681 0.6640110455511661
Ni 5.387907275320803 3.7604383978187186 7.143017824467173 -0.9633033943644442 -0.14622763564339333 1.0399577497943895
Ni 9.449256800546955 6.6893110329508545 13.223791451222494 0.0811715265740086 -0.7251842746263769 -0.8583162534280766
Ni 8.004330594761596 6.3616691510143015 1.8363453307105067 -1.6403676735551427 -0.8982886800559562 0.2984978779364408
Ni 3.9984274437807854 0.7071202804977906 3.489169469717189 -0.6942621311262237 0.33585600686992484 1.2099228382640386
Ni 1.5157784729081705 8.552682065447256 0.5819531977877049 1.150801092401218 0.09109752743846891 1.004913613706063
Ni 1.797787005683284 6.5308278953245305 6.67246750407338 -1.072381931761366 1.2415070408282232 -0.4801825688358633
Ni 7.770218528464057 8.480243761188955 9.964595511137022 0.15415228980710874 -1.0344473614991216 0.19894219242828964
Ni 2.595016455647175 1.392076851410993 1.6526349275589398 0.40943403736739165 -0.7846430921136422 0.8961896314350825
Ni 5.171575520068484 6.6499198065507255 9.018703368687486 0.06315889204667187 0.9714519916135076 -0.6809846972910272
Ni 3.9305895747224997 1.3496805020173062 6.161531669671713 0.19627827244288132 0.6009863650895133 -0.6367534953867937
Ni 4.411186651988584 4.598774962311777 2.788441568130387 -0.05339564201232094 -1.1593857487464356 0.888066745217632
Ni 0.3377359416707792 8.887771829370928 12.269686233430994 -0.4857497785109957 0.9179113393828902 -2.0512780383577445
Ni 5.427957031759642 2.9806646314161753 4.387088162600119 -1.2813187735085223 -1.007547194674168 0.27884590803346815
Ni 3.2359980600879754 5.181203043733031 7.383648410640861 2.289359105769025 -0.5665202129918436 0.9055250499033953
Ni 0.589488265441923 0.09312820506611025 9.731309853662713 1.245661686426545 0.7068438244459763 1.1105527864041325
Ni 7.549212137443982 1.1720814431264044 11.391003110228127 0.6518965216758192 0.3869443409053078 0.5997908021195154
Ni 5.915426936612846 6.331794147427107 11.366839695342888 2.6693367855485124 -0.4985173625893092 -0.7588369296838158
Ni 2.8209757345640414 1.6319487367795171 9.993755406752602 0.9512184381754522 -0.48943082690700873 -0.017993865474259334
Ni 1.6106160735536412 6.693354963892803 10.697877056806512 -0.8182471533213327 1.0306531845640121 1.0713735451015096
Ni 6.759254343118824 8.286255651898 6.656883529833329 2.1935860272317576 0.021459969645988848 -1.4374672678100533
P 7.666328458554041 7.822205301238421 12.171660790893899 -0.8031766321414555 -0.7569494828531157 -1.3281251923390998
Ni 2.523960136963072 0.8960015357138906 12.399055850796577 1.2789150491630363 -0.9112223573984887 -1.0557324961301433
P 8.71586766405424 7.200988873029942 6.5418355495490825 -0.8623084053066052 -0.38881044757976907 0.6418730760015462
Ni 0.6430564378162913 2.1394342447811727 11.115539067527873 0.3243647184008736 -0.0973602205187291 1.0203204351794364
P 5.245414360042918 -0.1370614337191568 4.885901479246906 0.7846328077009971 -0.4697328342574491 2.0098331409493966
P 2.678723971131319 8.796356729912565 10.229458147721113 -0.15322206468335547 -0.4968147780759056 0.5963794624451213
P 9.30771921757875 9.199608990378398 2.4873885321371465 0.35133790455560787 -0.27508309855692625 0.7920987770607391
Ni 8.652389078350806 3.8066189761672566 1.177789321799971 0.24224316920876987 0.5521557167400555 -0.08069510115822232
Ni 9.037044821526255 9.357711850095043 7.515122541609032 -0.5441133060515532 0.3569696489200885 -1.1298255185908155
Ni 5.204474196791171 2.073655441477732 2.204689006574934 -0.26819665584973806 0.37934133174706924 -1.3497422563882433
Ni 3.9078285505675865 7.050176219093967 11.095108868707163 -1.8449866046532353 1.4776368980504038 -0.13514001037066403
Ni 1.553546561888939 2.4364591174531096 13.563614283861021 -0.7222519314709303 0.8332202296913974 -0.7662453063327449
Ni 8.222368963071984 0.4931972611758024 4.932464190519316 -0.57519460083739 -1.485127550000494 -0.3074730848518576
Ni 0.45843429518859224 2.31413948153013 8.734455833780752 0.28907092819558605 0.5368990476913011 -0.19470861396291628
Ni 4.754892956841318 1.4921641422242224 8.501020847663861 0.12489750670704942 0.4199701610120251 -0.04632639387036538
Ni 5.268249584765573 6.348674776588452 6.408596372575745 -0.47642747266880536 -0.5764513560626265 -0.3855073513484651
Ni 5.791790240612442 3.9888555705420448 11.97829874889327 -0.03399409755725758 0.301525609019171 0.21355968523114832
Ni 6.581961361569859 1.4722320147144803 6.674666623399839 -0.9062169337640975 -0.11773672729255208 -0.6365357229490327
Ni 2.92356729453857 3.016902333687261 7.819854070748091 -0.05963442383318117 -0.6670572885766576 0.5225821168479968
Ni 5.634262435295799 8.868210704699898 11.079103806245175 -0.21533220375053883 0.2098130737045225 -0.00991803044466034
Ni 5.585670338495641 2.3187491918011127 10.638907083100513 -0.3142453705786846 -1.095619562133068 -0.8537314622708716
Ni 7.376269164178901 1.710174685321708 8.879979842250902 0.3220191009868325 -1.3488032895137416 1.2638252447094491
Ni 3.3983674524497958 5.1139587792166825 9.825180991913342 1.0988884626923268 -0.26988509929575455 0.2647470067382408
Ni 6.108858541645735 9.139812607849171 1.140270732228236 -3.134105848042783 0.7470759324931456 0.2762992303522145
Ni 1.761187575644455 4.598737862027905 13.655096163830352 -0.26674963899056636 1.8410823845028228 -0.10014858189714364
Ni 9.125176545862026 1.2258954048814186 0.791538266418066 -0.6433216355226146 0.35492793589971133 0.17061737734166743
Ni 1.4773147536048192 0.6790780309338282 4.888847241786271 0.5363778850805085 3.6990204071104036 0.5703084763896823
Ni 6.720326870267084 1.9920162668194015 0.1331937291255958 0.09712933545484563 0.7420126590376253 -0.23520580274601427
Ni 6.568707285156912 7.821222143715837 3.834748411398316 0.5960336490699284 0.22410815017095598 -0.5138277676941345
Ni 2.883647389093278 7.2512597576752675 8.723202390175553 0.029767461070419703 -0.4012116494575993 -0.3352692811285194
Ni 4.754865131628415 8.510638168750344 7.431364013234565 -3.1481697823350165 0.02216779434629085 -0.03224189075284125
Ni 7.695340880541233 3.7581845555735502 8.122290947329724 -0.23654277638988297 0.7659550287858357 -0.43640182420548707
P 2.399219707517504 6.552169833621374 12.917919088354399 -2.005753057342752 2.0219373804120986 -0.8362747002470049
Ni 8.07517358681344 8.431048784775891 0.5799813176999565 1.1370323207519 -0.14011843742186192 0.7879191917617527
P 4.628909667886068 1.0789690056809391 -0.12775575501719094 0.04276464466103603 1.2468060844436335 0.6050841893079708
Ni 0.3544013891856722 7.379478338733751 8.611398829715833 0.31074404229364544 0.22556750832530184 -1.0693554862302164
P 5.390216767991777 6.37841065411113 2.1516105579476643 1.6098615345464857 0.7583173097349198 -1.054230714773636
P 3.6295485963215173 5.256210542649405 5.249033492734543 0.2745028005734241 -0.3398669278015308 -0.4612137410428444
P -0.649423774035667 4.246795294155789 3.6425132905202693 1.3884815819399698 1.0128930323671137 0.48280637961195555
Ni 0.8029679363716518 7.985483650555082 5.315048810347662 -0.01267553858513946 0.12642757019833065 -1.534766296073544
Ni 3.6865995578442843 3.3495898542302815 0.7466237352566292 0.4643551148853035 -0.34256787167246167 0.08437434978202243
Ni 8.64979205847983 6.318224718601256 4.401695471867263 0.27610382651195675 -0.6842325148043635 -0.13016698263610485
Ni 0.9940464559000171 6.534732700201962 1.8047423814020165 0.11463212022529934 0.01888243872679974 1.0497238280422179
Ni 2.022086046896919 6.045194454522947 3.9652180521806772 -0.2634879375201591 0.1716879846980269 0.0733790271127833
Ni 4.288922666491411 6.966988107584019 3.853237337865473 -0.359430194645439 -0.1681275210402782 1.4352077823519154
Ni 3.1145595559069346 2.909413536241749 3.9923819525239916 -0.8072029796920291 0.10763383453059526 -0.09636237538183405
Ni 4.1247353602199075 5.500311860379234 12.950160162545473 1.7679555826101618 -1.1113719398713182 -1.089509078359956
Ni 1.0787927793325514 5.190607965694352 8.912573369138752 0.40624458389581647 -1.0536301050751595 -0.9934218110163794
Ni 4.071719054568121 8.349437435330463 13.080683598739446 -0.6302977124591209 -0.405395862742276 0.2577674900966141
Ni 6.398964211375714 5.355092074236824 4.253999241776458 -0.4708389228374343 0.9205256370772856 -0.3787432931517542
Ni 3.2210559207588947 6.050202992845543 1.3745367647038387 0.026049131678568038 0.07984920821815925 1.2409159442114435
Ni 6.002686804277647 7.117884237158704 0.044284753842725115 0.6207293520443954 -1.3381789770306758 0.7479485649060861
Ni 1.6029177646503903 4.271531908426837 5.724090570111576 1.4082297111011748 -1.8889604391310244 -1.2794043300946287
Ni 7.051595304952036 3.619401668682775 5.668514344872685 2.6376296842532185 0.6642074778326883 -0.029285379227678595
Ni 5.941823788587126 4.462811696995203 0.7110983584358682 -0.9888048810696585 0.13618799201920417 1.2191081043077328
Ni 2.3520745217883183 9.34797302557888 7.736381214559431 0.01359779328909271 0.36567437578293793 0.3764393276089259
Ni 1.469393842998342 3.969860225200047 2.2641616891273864 0.4152421594087365 -0.14071107670053828 1.5902748706638097
Ni 8.101681739639332 3.641457787444137 10.555746796803467 -1.5643581507980477 -0.26844245331195704 -0.03235039130624751
Ni 8.515934234272942 6.013130534187358 9.997135242613258 -1.7389008313360503 -0.4196647139564644 1.7177851324033577
Ni 7.524058144979383 5.182316052249164 12.925331725071842 1.9656651881829308 0.3305222533618372 -0.9544387448849626
Ni 9.16038471525569 5.005254947474392 6.797072517482819 -1.1642320210951433 0.48565181948055064 0.10918369551621841
Ni 3.390418716630415 3.479329546927479 11.934966544838932 -0.5904019047054477 -0.7827075656538263 -1.0577173877706558
Ni 2.036100679129223 8.586471148982849 3.2159323715562973 -1.6773954157324014 -1.2223098990744818 -0.5843988930444775
Ni 3.7768738235736112 8.256584699872095 1.9516242602618503 1.5597335075418428 0.28251924311999727 -1.7300073855011626
P 6.196044208742793 9.158993454610522 8.739655438565284 0.17782829326780986 0.08498935765820202 0.5802838424348394
Ni 7.393697022527346 6.199114257233126 7.858556159375313 -1.0424694604726499 0.25307548393758356 0.2060060412536065
P 6.292504946807624 4.9512833095129265 9.315168027072968 0.7538117085550824 -1.6079738306054696 1.1329712633086486
Ni 8.874248775899916 2.2056397013491305 6.347087811945867 -1.3725230017281844 1.7027585770875386 -0.4809670124103717
P 1.4842988820435519 1.8251670151801478 6.795850990636363 1.9887722065140394 -0.3737391550689434 -0.2772063155475162
P 8.805381373964208 3.0054939963969014 12.8405009984935 -1.0764368185570299 -0.11195791582724589 -1.6474613471771304
P 2.010974511877528 3.556767114437409 9.872814973882528 -0.847258195841702 -0.259484729898037 1.2398090843005098
Ni 6.9092971661644755 3.7086649516766146 2.666497572581602 -0.9292254788441286 -1.1477623055748944 0.02175127563416254
