# total energy = -340867.6984068193 ev
CRYSTAL
PRIMVEC
9.19684938727582 0.00000000000000 0.00000000000000
0.00000000000000 9.19684938727582 0.00000000000000
0.00000000000000 0.00000000000000 13.46051871006050
PRIMCOORD
 96 1
Ni 8.049560988913624 2.5134162186675306 10.350789333432889 0.5557087241986366 -0.3295431772780195 -0.5938263570059643
Ni 1.8698758661310702 4.024513785818982 6.897062382174975 0.12742670088680633 0.19430006567058794 -0.5918805461335033
Ni 2.141146141353516 5.676010458664285 5.064749208784989 0.5317532418243036 0.2599675830717264 -0.4697384906844039
Ni 3.024623102592119 1.1478587961253552 5.484825429902699 0.3060726049599051 0.9872869017632351 0.1495818968276069
Ni 0.48064575276903554 0.7236375549017751 5.092680040960558 0.20707562016870146 1.0344352773142635 0.6930984498354257
Ni 8.335472648668011 6.906364995525514 12.52910454236545 0.4633639546166278 0.2274223021458535 -0.5052636801742072
Ni 8.251339868706832 3.0578329264268165 4.345405662952286 0.34290468618659015 0.039672635999273606 -2.0463883143656107
Ni 1.7251542411344465 7.787505956970705 11.818133808390712 0.4746025036449245 -0.4760806308523478 0.987158346605171
Ni 8.618376938609618 2.3212388498362233 6.509493345584024 1.753012588147084 0.7821897454771432 0.8038782861941702
Ni 3.087014530145315 1.8974848085713258 0.5068181473048382 -1.1409401404467383 -0.40552596056223705 -1.7419792131510579
Ni 6.557473309844788 5.082565345792072 -0.145261480066991 -0.6954332686161895 -1.0062660139688993 0.2405894356554308
Ni 1.2465501889722521 5.847071860859074 0.6553077215745373 -0.22408783845598182 -0.2800183310750145 -0.37008433192517554
Ni 2.306864173942113 4.093177464785986 12.944550149719447 0.002731282888234006 -0.14539588377071735 -0.6037503009878957
Ni 4.16380926956319 4.528841426257457 6.266934715066519 0.49446736088965165 0.20796265075934509 -0.20776724691908735
Ni 2.936508086762642 2.8606524714237915 10.103532952149735 -0.29401978756042907 1.1310395935035746 -0.5683855483353566
Ni 8.429133364794449 9.126530468473526 3.2613628863801267 -0.7190218545694069 -0.18570872445715111 0.2016876163839107
Ni 9.310706578169917 7.512547745066532 10.051064005608795 -0.8117204079464084 -2.485862349738519 0.02246784208521292
Ni 5.724799745688121 2.186118735801501 9.958913412183454 -0.9755192197043459 -1.236939990282831 -0.0018205981485065418
Ni 2.8272954979958076 2.32593843997179 2.779085612495534 -0.8567643355599245 1.8567298612320924 -1.2631598432113085
Ni 7.229992935408978 1.0148263669453756 5.261111144175363 -2.647643359735479 1.2461710219627957 -2.1655337490802316
Ni 0.561010583457139 4.942101862151158 3.4615203615923162 0.8811458497280825 -1.2319181115882074 -0.4993475718000884
Ni 6.815104657139552 4.306397225457169 5.791603821669977 1.093440295093562 -0.6531023690584623 1.3641949414784633
Ni 3.2667669551935488 6.652292829018351 1.9784805431406425 -2.6335927951796836 -0.09616491465904728 0.22336330158513143
Ni 2.2570356429156955 0.30290835746385963 3.511674461093879 -0.3078080995937731 -2.221080890217917 -0.5975390299708612
P 1.0060801629944485 2.1642578243489736 10.692766827599097 -0.11473213613827338 0.030137957035961005 0.3322315227434601
P 0.9525361047375634 5.630688383932247 11.333043218219487 0.5842207155954002 0.3989889307746677 0.6970790317497285
P 4.030344588452933 5.447275612751027 8.517506812097134 0.7958101644740553 -1.2056478650377689 0.2934268911714366
P 1.6252580609925218 1.7802893543687346 6.983088793464751 0.22346306038778935 -0.3855929690837359 0.011248576330625789
P 1.184839328288003 0.3760334281622997 13.410890202966225 1.8624261402859215 0.156610264429298 -1.426009660792415
P 1.2355691505732962 7.641055324252972 8.176578678468045 -0.9791249347777332 0.8832880928820659 -0.804191189448899
P 6.82262768009629 1.720427060450139 2.903461047165516 -0.1666583926939194 0.6294538764015869 2.3666891471097564
P 0.5605167126346733 1.639016547964748 3.003418846199629 0.6062159889195688 0.3027785075896657 0.6335051636528252
Ni 9.22664737300538 5.3774163433385755 7.967792718979557 -2.3257888093509687 1.1103517261369198 -2.3453908998526125
Ni 5.831188901633784 -0.027032299971566837 11.285971902697263 -2.15246123216699 -0.28268225106042283 2.0850769891850605
Ni 7.265676711780794 3.042308644335161 1.4151983378371533 1.1787225014018343 1.2700609412065158 -0.8497791624913429
Ni 8.193372125801792 4.675098925134002 11.579909653080435 0.7664337681944671 -0.6614263155431254 1.8901506027843833
Ni 0.8828193864936066 8.009048866512117 1.471557551750588 0.16637120047080378 0.47215584187664483 0.3142479416818459
Ni 8.555819967763977 6.731256979515365 3.5060616237949818 0.0378486954166574 1.614601106114 0.31917880332455995
Ni 0.31089122289961635 2.5653232376991104 12.873936738641405 0.7602458942162004 -0.44720225725510077 -1.2174867666542257
Ni 0.7045715660367204 3.283348874986947 1.6811381190428198 -0.10455339583305864 0.9299168484841985 -0.5741314496801984
Ni 5.036295995553256 -0.14597239653955324 5.547227893675393 -0.9415752586587333 1.0233453380486892 1.3266264963063863
Ni 4.857104578329425 2.928699961468912 1.8178299746708266 0.92736451437599 0.05499975327464721 -1.3295974060092521
Ni 5.446429502589633 0.7233690068940285 -0.1755301514058883 -1.266134609568916 0.972104794706158 1.3066338552345431
Ni 3.533861860706509 0.9560033170293611 11.61642758370919 -0.992858996534374 -2.054564165308184 -0.3088861631493003
Ni 7.1016049152670835 2.3320359512435718 12.620232446117456 -0.6032993294934061 -0.04471096975412945 -0.6979845742831334
Ni 6.16598181690781 6.343885675190391 11.246142186534618 -0.2506213659701361 -0.18697113610934252 -0.14705707352322417
Ni 4.2918202188722905 2.9977958923661943 11.863253552431983 0.5622876629677348 0.6183976185874254 2.610287801905156
Ni 3.751532896574588 2.435270587783169 7.714761635844892 -0.0892231932338915 -1.0095878792532806 -0.28877859376614784
Ni 5.027347460911561 7.320305998288163 9.275818329286802 -0.8807928372640378 0.03396144454710925 1.0100054264066733
Ni 9.153431253496095 0.1079268691954993 8.679935131590835 -0.6564933970178822 1.7190262038993105 -1.5953137186392976
Ni 5.056786576418309 5.516665842834882 2.2300309334928694 0.9981408137586038 -0.5822857033562165 0.9714553340476173
Ni 3.645530008311301 6.1681062891608756 12.834766436593672 0.044312191653814004 0.6760466365594615 0.6336751135717861
Ni 4.428439419388612 8.139101516428058 3.5305592720222 -0.19938313662045018 -0.7773321602745257 -0.47995219799261213
Ni 5.646065516430617 5.848580144190254 4.523380336976636 -0.7047185505728573 0.8467383187824901 0.36511721772788736
Ni 1.6239613052016906 5.1240247437003585 9.252639509289407 1.8249458839522765 -1.9905113006923334 1.9963088812107168
Ni 6.498677850477515 -0.04809492488051875 1.8078284007521797 -0.7002144920549166 1.5497103189778858 -0.4057894986362689
P 8.110214211896132 8.852372382482846 6.464736877101177 1.5522564824385072 -0.3268579171363726 1.8778756420717724
P 5.247501646166338 2.303240615207449 5.8699168352167 -0.5740676863217984 0.2873192356118019 0.1091700686694636
P 8.428452797925502 5.172804833874614 1.026072274612246 0.5237385990499432 -0.6602425796476693 0.2111842430204363
P 1.639016547964748 7.372884387339109 3.384310969995236 -0.12847905341072066 -0.6377294861468178 1.0265977835477158
P 6.307052292621028 7.293874252594193 2.7341681991450315 -0.751021547404455 -1.4493565630484717 2.8153898432872544
P 7.448592853084675 8.957621129080543 12.97499815962516 -0.2996456183876388 -0.0929939731302334 0.050523462670848465
P 5.906603068192776 4.005945346516225 11.141392828869135 1.994318847363881 1.4807214505129984 -0.049521760879211486
P 4.3394966870969025 0.6271230563505508 1.7141971145443995 -1.0247558452429706 -0.9411803372131597 -0.7115949659777163
Ni 6.205592648050443 8.316205248797147 7.572349339777897 1.0794264973129732 -1.8316366657088907 -2.250832924669369
Ni 4.624286331202486 1.3595150923678754 3.635646154067283 2.235916926789485 -0.6822044286307413 2.057540217217373
Ni 2.213736875091337 0.8551037605982187 9.297045577803242 -0.20231959354095477 -0.855036040014908 -0.33431154520094036
Ni 7.1565101072618615 4.999085542151099 2.8719094153101583 1.6737526767734916 -0.6489055573682954 -0.2433549142157099
Ni 8.611755206911756 6.802063524434595 5.8145269692490364 1.0715090422381095 -1.8982817165319503 1.544385821441179
Ni 3.6948435157612183 5.108574036405345 10.765763142403411 0.6599931826410246 -0.5267100229734413 -1.0479168567404662
Ni 5.658518050762431 3.804948198937348 8.218643229078719 -0.2813838439639735 0.09983233620830549 -0.5430275291865422
Ni 6.024552664060957 6.087082044357859 7.253536870334712 -0.8004268373104603 -1.0552555564937247 -1.1382178564195686
Ni 5.811038604203205 7.281780395396013 0.45465637553988203 -2.4972284254836152 0.30072728148759176 -1.6019934446523185
Ni 0.09423827828008406 0.2583900873851448 11.239937072122746 -0.796947363402292 1.193919263746931 1.2719075074969513
Ni 6.937974567533229 8.884616537111604 9.67563664983384 3.6949894315741396 -0.8532141563148209 -2.45263341248206
Ni 8.734358408667601 0.9957612977652789 1.1080520720866616 -1.093596103945136 0.2348211657130859 -0.38403590900926116
Ni 5.523370346178967 3.6203214436115205 3.9435419630585744 -0.6318987383976536 -1.2804029465624722 0.4761863031922767
Ni 7.804814427880951 7.3000085512642965 1.3734841871954917 3.2225438263712176 -0.7034664233333111 -1.2278655387853885
Ni 0.6710058241232623 2.950542479222279 8.569034001241045 0.002821785719511269 -0.989105957249845 1.5736740288823348
Ni 2.668953338770663 6.992613050890177 9.607997499910088 0.8792182936880665 2.4690257377971543 1.483082237435691
Ni 2.7495637253425627 6.552451829973908 7.234248317709813 0.34283243818775794 -1.0108574899943237 -0.8291401460847527
Ni 1.40171023824259 7.931556211947961 5.618609241693395 1.3157918675847273 0.18961371593851215 0.06133932233942985
Ni 3.16550964131373 8.30693482442014 0.4386106320770192 0.2207127513361618 1.8260213764046422 -0.6311870570426097
Ni 7.502780690812185 4.818349054197767 9.501188047938605 -0.9417873746695393 -1.7725820256385796 1.554279426405807
Ni 6.8052732249381425 7.709406310334244 5.106100083868227 -1.0290002223416213 0.9107395042247993 -1.461212433945793
Ni 6.777976975383619 1.2216635140077845 7.780260678871293 0.7637924739168781 3.1137419396744503 -0.31827428923241957
Ni 1.6643630654082338 2.9591783209782414 4.54987094250792 -1.200188127474778 0.9035578988746954 1.6419411886898496
Ni 3.1844919388476036 8.972611993896537 7.317420946574802 0.03551130553273239 -0.6946436828353585 0.7731685158151395
P 7.8037016090817275 3.3690083319784665 8.097754320084652 -0.7463534525048243 -0.8967372764084361 -0.2705337886233469
P 4.9023162908665 0.41029997001378166 8.52674044907582 -1.221692320095141 1.156221234975525 1.2217864224708441
P 7.224125345376705 6.637862972026758 8.89468432834723 -0.028258480625061005 4.1610196201690215 0.18898893787031967
P 4.041169280409023 7.841390298662063 11.512081967740285 0.08200739221174264 0.12740458939961927 -0.4289880482399192
P 3.0203281738380885 4.456793306644878 3.4226737886498126 0.4239031775178441 -0.21108345577651388 -0.2045983622728025
P 9.27906941561346 4.723759456263712 5.717234417223312 -0.4255332569220994 -0.5846991978937155 -0.6468895553795311
P 4.225189043662546 4.57073307609602 0.6440038737553108 -1.0004643196854577 -1.0800880421563723 -2.30636901006346
P 4.177990811616112 6.996392956067708 5.613776297238912 -0.23731744977237837 0.3508550513819183 -0.008673359404281837
