# total energy = -340863.6246384328 ev
CRYSTAL
PRIMVEC
9.28975751097438 0.00000000000000 0.00000000000000
0.00000000000000 9.28975751097438 0.00000000000000
0.00000000000000 0.00000000000000 13.59649914039196
PRIMCOORD
 96 1
Ni 6.6493388171462815 3.699840898895969 10.50571584114992 1.2413977689438687 -0.9601584209775592 2.3842945188963456
Ni 1.1760182361104308 1.6932254694918045 3.9894713757352043 -1.409269979440231 0.5080235023075316 -1.9333790744557156
Ni 6.9272790634963 4.515202890344252 13.133170390634799 0.42902095836038373 -0.5008776352913696 -0.5193720945511313
Ni 6.0480407013837985 5.800385063580224 1.2687532375873873 -1.236246306649916 -0.3219913330726906 0.3838351058523648
Ni 0.3263203729908249 7.73915739598602 1.1686793279043906 -0.29995569342888984 -2.891163852994776 -1.5339075476176742
Ni 3.4429976911990092 2.983647065801456 9.84442261529092 -0.37096750586107724 0.6350249427314613 -0.20572167724396825
Ni 6.824088440265042 2.008046052016481 13.003841177505649 -0.011794164421450655 -1.5416154577848935 0.9687590181623769
Ni 5.37048296857906 3.07565282133642 4.98841940737261 -1.3535472319566302 -0.3501803939123969 -0.611742832275069
Ni 0.5733127221286894 4.167812418996314 13.167189481584824 0.9112375269071403 -0.7074223226572655 1.6776934065887947
Ni 8.497805419588891 7.3196876983461 6.013269140098726 -0.13843616462343256 0.10025219735454347 1.6617538525404025
Ni 1.821990794357529 2.0702967151667027 12.908856196829321 1.4308657033331358 0.09021821015730914 0.28468282643021936
Ni 4.130142453457715 3.347591884520487 2.780225535990135 -0.18149802880991323 1.4928645136334353 1.23657077986887
Ni 8.72332356593045 6.7406849999184235 3.851072572629399 -0.2951744699901626 0.3524558202101349 -1.570067542477999
Ni 1.893382578615021 7.550835437564696 2.943506024841583 -0.331319552452152 -0.7115846815650713 1.3690718099547905
Ni 6.142749776270609 7.67556900779571 7.356725960393546 -0.6936561221111086 0.9112254427222822 0.3792629131006501
Ni 8.065042079363094 0.26930077213278203 0.7434248984418108 -0.9270971196472162 0.3386412829245458 -1.5338913496677582
Ni 3.7616270741850486 8.57187265392656 11.48450045473516 1.849566510714434 -1.8348104354511823 0.4541090116772631
Ni 1.244790308831083 1.510458785889736 6.262152883807159 0.9070805673159733 -0.9671034848368248 0.3991683937753254
Ni 3.3841006304062318 0.8827229500467866 8.759339954683384 -0.5194919079584474 0.11750198557392666 1.6383753257154623
Ni 1.986066486427252 8.64578196239144 9.862479116404947 1.137848388895292 -0.10971925630471428 2.3290808498386792
Ni 1.4222153820300207 2.94867112985748 1.7888774547367314 0.07739971823640218 0.5775121932269731 -0.1836551843622321
Ni 5.862561408672663 2.672560965680359 8.684206256216532 -0.5027648250117535 -1.1640463874468987 -1.8285027480655993
Ni 9.208694801309164 4.8091772576608856 2.184780896253762 0.13613528440439782 0.3554321292296395 0.3554501269517685
Ni 4.57210265333412 8.771379480044178 2.085512408521985 -2.040883582497298 -3.962937975968814 1.1802595068716513
P 8.590127026869432 5.76866054266424 0.2955731345346835 0.07819881709892984 0.6287108275879753 1.642785538968016
P 1.9486101853047786 4.1418103885295965 8.145744058309312 0.55648751134619 -0.6470695326008211 0.3545098745256862
P 4.608091172815385 2.6173890975339384 0.8284020236619775 -0.383303658828927 -0.9953141429430857 0.18867809149812023
P 8.814316737928124 0.25450404682824945 5.990630930722398 -1.8804038078102647 0.4159204164226837 0.4803162662002502
P 6.293921995557812 5.99415081973413 11.751031950239815 -1.0901114878306453 0.3824009445089995 -0.24209275967383465
P 0.6775372953388491 7.34936847267306 11.19193069871062 -2.0087805313151663 2.053796176793908 0.5308302157894018
P 8.743593816190677 3.8647155100868558 9.724990709506978 -0.7134227632150746 -0.5683973754098985 0.5713320325581902
P 8.903331191637335 4.820705846374425 4.758924315963956 0.2512191474551351 -0.7698592489362482 0.20334263548883047
Ni 4.99766643171222 3.208180497877393 12.418566035001115 -2.026973657284425 1.1516035336978554 -0.17906550810902064
Ni 3.181072986301159 8.755521864464798 6.815381150820079 0.22997180804058456 0.45018293714997953 -0.3142453705786846
Ni 3.848114713929648 0.5586878573327793 13.544043346940708 0.6525542098644762 0.9728298457976406 -0.5926634470461147
Ni 3.181556053676746 1.3191641051571048 2.102358454269875 -0.5254280709372241 0.45328445889343866 0.29987907455468354
Ni 6.43664982552946 3.4502808608617124 1.5548006550657751 0.3126019214379907 -0.8167654265694838 0.09058433524747625
Ni 3.342361751204031 4.936874260445984 4.7645260395693265 0.2188957527320811 -0.16331698702551228 -0.6766683293038604
Ni 1.0148409482942327 0.5652863718881594 1.4730043427187074 -0.4266372886195555 1.898402815490847 1.0470545087401708
Ni 5.9319466053700225 0.9088856933134586 1.6877064247257179 1.728804623442313 2.9828406499754823 -0.6086451671863518
Ni 3.9165430656330553 6.2304450844541766 12.834143324364666 4.050551401513424 1.8863646533793899 -0.388248404428712
Ni 5.344499517626788 1.3332102180780325 11.055381486267882 1.83431446965137 -0.09012179378876092 -0.9732273383463754
Ni 6.731720384198388 5.698755119562403 6.329305751843871 1.3992182516311837 -2.1288790739716754 -0.42671776414850376
Ni 4.272758806342687 4.111692995613164 7.737604148578362 -0.48150617274329327 -0.9248736296333363 -0.6935828456710119
Ni 4.4905200054031775 6.094034289394059 6.3790421830392114 -0.3414640970853216 1.2653735630331757 -0.01064513841867199
Ni 3.7901280493447085 6.474747119900308 2.188600844423792 1.4233310855189876 1.1878301201300574 -1.6098353092942403
Ni 1.8384150851275023 8.784691702144501 12.70006797427037 -0.7722508890968764 -1.141087721768196 0.13465330054223262
Ni 8.6544307263659 5.591411974852537 11.737992847001843 0.0337819815464515 -0.6974911795864827 -1.944229129796342
Ni 9.135472934878775 0.5598267815682989 12.20742564591334 -2.8380335488286996 -1.8877731036911425 1.465258836101025
Ni 3.697778572792499 1.8554617896314058 6.789969019937011 0.9763422298262733 1.0586524979904155 -1.6536638764434166
Ni 6.587747726758881 0.8080342309509103 6.118519302506287 -2.1233038938767432 0.4302967397490138 -2.706063965766217
Ni 2.2959263385949344 6.146382071344737 11.17774988430996 1.211455215748165 1.0034231452034654 -2.539064644793111
Ni 9.010609308046641 8.89944807311819 9.702216869675198 -0.559540696350217 -0.4105473250362284 -0.20335677655621748
Ni 4.261443882045274 7.449121885731869 4.267261128018213 -1.9854230875361487 0.8331307553013846 0.7798916934715858
Ni 4.639211859511884 8.143308283965483 9.339910764130273 -0.12008491580975449 -1.2868785269844871 -0.06723794721205195
Ni 3.026435687569837 0.3640042731652576 4.3587243617313645 1.5218331329516435 -1.5545805025859936 0.2166447519143753
P 9.141780680033081 2.103953505585036 0.3446825071174817 -0.30344596597033546 1.1006476114752786 0.1622139837693206
P 2.480773927814918 7.037009675812435 5.79338616048854 0.2541507192796333 0.45590904100047935 -2.0513909097865253
P 2.537153464400307 8.480916640957776 1.1857381090926837 1.7676331662737361 -0.7269267112387803 -1.1070933671006222
P 1.1773373816360733 0.07650765356010739 8.05388600991419 0.6708684347926317 -0.050825310181983434 -0.5206293639970002
P 3.356993118829997 1.2469641120212263 11.103594397278675 -4.028035736909412 0.45978163658200816 0.5874003988749625
P 3.038521661716746 2.4253140771945887 4.711254855750697 1.0553910536303241 1.7076459870868268 0.03537323729297133
P 6.6221755670267095 3.353927498946461 6.575838257999205 0.4608491586145741 0.04080006473549747 1.4143898171652995
P 2.319568770727051 5.157022927112743 2.821219376663064 -2.0423444833135407 -1.3395146651229641 0.08328291649005656
Ni 6.323658508428109 7.850457977272813 4.921293479631844 1.3198063880607591 0.04272582100330061 -0.11246133782622568
Ni 1.8434036847561652 6.167534848541134 13.448052285557146 -2.7378703116435363 1.843284277250148 1.205740167641259
Ni 1.272250831181785 5.798220550147303 6.923391300098543 -2.2865044099290492 -1.086877811384696 -0.4103156686413965
Ni 3.2635753201971616 4.741687171436984 0.8623644470929422 0.5728474407614521 -3.608766458619153 0.06539652312793899
Ni 7.932467954036007 1.7068535433377043 2.50790094788132 1.5692363048259554 0.9086373702801319 1.2237705427804086
Ni 1.473327626270062 3.8257263990226145 5.641962188780597 -1.059505332909014 -0.7383984593238057 0.12650007530747892
Ni 8.520398109154828 2.831648058121419 11.832271806129235 0.43076673740689686 1.1640710700372467 -0.9375005743687272
Ni 2.39530816136483 7.086858513070171 8.316882752795555 0.8840817924279549 0.14069513586093835 0.5205985107590646
Ni 8.36361487650503 2.3386034832766414 5.378299370306353 -0.01292724958462935 1.0610428525994628 -0.4110731156327114
Ni 6.550031312434168 5.383330702818241 9.10950434753806 -0.06580198609647378 1.2143410219363926 -2.3671025804980914
Ni 8.007984390500438 7.608208978172929 12.735282656974972 0.35592706658818707 0.570043909874386 0.17291697200912157
Ni 7.340543203311366 7.285733635696635 10.313447593860333 -0.3505352061486544 0.6536428149429646 0.11057517654710634
Ni 0.8773153823673739 2.178959005402211 8.43199120556799 -0.2314579056678078 0.9283780432421689 1.3221183240233874
Ni 7.462285471716627 1.4813353969961465 9.982889233624451 1.0578171465733137 0.053586160756572236 2.1559453340608488
Ni 7.096482701553028 4.162210695390944 3.658287814838225 -0.11594801082324549 0.7057091966209007 0.741024326982427
Ni 0.9277559771602046 1.5963425914148515 10.80584467262668 2.8066606909443728 0.6447416557985928 -3.241953084135765
Ni 8.59506917771198 3.814095622979624 7.57271931865453 -0.2296560765723787 0.5441593287981403 -0.7139513820250349
Ni 1.3627609358038726 3.9969552041539207 10.813186367759888 -0.24628905714336938 -0.42802722698854667 -0.24773941643665073
Ni 7.17249149515027 7.6886118269365715 1.6458969433686237 -1.2121375865271706 -0.9296335129158247 0.4222939240491953
Ni 7.733611410923987 0.7198670031004221 7.931435862008549 1.1569069481886398 -0.6781271732375741 0.5112852037779387
Ni 0.8514350477202762 8.532929991648432 4.798109440905599 1.106932673153042 -0.3559527776197999 -0.6275666866812031
Ni 4.7079281936892 4.913213248799422 10.633698968457482 -1.1457509315718204 1.1878393761014383 -0.12869451185563643
Ni 5.582484518161392 8.005708399980843 13.40110371050438 -0.06980905037333784 -0.16135832063724467 0.11446911228487383
Ni 0.33414327754817474 5.974939601797306 9.406438431505888 -0.47245074740924436 0.019187371561728245 -0.7507860343548811
P 5.295226645316869 5.73376821453527 3.538475029008147 1.445692741043639 -1.435549224851734 -0.004298627375353887
P 5.442775859287167 0.41513323896830034 3.996636565481177 -0.31337890881333125 -0.48813164847961094 -0.010352546878917655
P 8.598822239630007 8.693234042285685 2.7375734736529296 0.9076891474342497 1.8570342798463888 2.1894869174617195
P 4.275267040792853 6.03801705334036 8.497009287394894 1.0405915267236465 1.0028790997745372 1.822547816033745
P 2.9980276099824055 4.449004080374325 12.25240293448342 -0.09154567071948105 -2.2110163068930633 -0.3525427234969864
P 6.644796125864314 9.112898824827283 11.863951736210549 0.6630443107625226 0.6163451069337708 -0.3640291268700311
P 5.335414135062855 0.34056064183770957 7.979771397814686 0.49381610045889796 1.4280616582254373 -0.638843545146603
P 8.019643035815095 7.192260098520463 8.145322303331394 0.9833418010725582 -0.5397133772116447 1.0523610085547488
