# total energy = -340872.361568338 ev
CRYSTAL
PRIMVEC
9.24163352112528 0.00000000000000 0.00000000000000
0.00000000000000 9.24163352112528 0.00000000000000
0.00000000000000 0.00000000000000 13.52606481679745
PRIMCOORD
 96 1
Ni 3.3585204474812143 2.1565443764657988 2.3829680894182292 0.37708004651671834 1.8042798709624928 0.8924479050044629
Ni 8.608609160925047 6.360165982741768 0.35756433806620763 -1.0037589312763293 -0.05297552375576682 -1.8920614466538512
Ni 1.2291926811378997 3.0772420958044995 10.823530162572746 -1.5793188858729381 0.45493330735077137 0.5504919558843874
Ni 2.566761996199864 0.7090726338189132 11.68055487667481 -0.7669536452536792 -0.1398754681731204 -0.8673251417949063
Ni 6.018789289595948 8.79289657092588 3.8885946580473747 -0.07872872146047086 -1.1608571910856393 0.12104625128175928
Ni 0.16452140465958767 1.2550415295292707 12.678899874990796 1.4550633836252618 0.3761441649660103 1.0269312556277348
Ni 1.1632259025116547 7.305400238540637 5.7632396450774666 1.193515857660925 -0.3617465014834415 0.3333327262274388
Ni 7.041819614668525 7.026478503360096 2.1573262186445294 -0.428097675215166 0.20900034799524006 -0.04877279852832891
Ni 4.007588080327538 3.592333770434982 0.09241448485664382 -1.6978282296654568 0.03284095778942086 1.4215788787145711
Ni 0.9456963374647855 8.206995501810349 13.35512219901637 2.3736234123357445 -0.6969530476948256 0.5806810778732581
Ni 7.000842212535047 1.0614015866102864 2.360730871327662 -0.6379971379859076 0.9774398337658263 -2.728086235673579
Ni 4.194832812990237 5.4858058128611775 12.26415015827742 1.5534422752164925 0.8617296499849998 -0.8179730737243398
Ni 4.4309103361069955 8.888150085537916 12.80858771534693 -2.9711300464067736 -0.2578057995337173 -1.3057501670780092
Ni 3.9884671409919115 1.6167960241420094 5.544699045345572 -0.08653356221687034 0.23624375709222536 -0.9405519596005415
Ni 7.442620010051212 4.490269346910634 3.93592291059721 -2.0903222967443997 0.6281708959241052 -1.3723620506702883
Ni 9.009160032208138 7.433563209399248 9.663859516398654 0.8873846315489426 0.7356160114826621 0.7072726844532786
Ni 0.3827662721252956 0.9801676297421592 10.026506752789942 -0.6873394358644614 -0.03545859791792603 0.12036645160591529
Ni 0.9383122724434392 4.584959121890251 5.999486290083952 1.1613698690559997 0.23758407317020372 1.5861837313135716
Ni 1.7137222743846623 5.821046061483625 9.490441191343509 0.43747423133405944 -0.00619918683217642 0.5964095443521084
Ni 7.512348133438017 2.643717076841604 13.416557804826638 -1.6976287120601405 -0.5770766483514512 2.1227274525479833
Ni 9.001480234920606 5.542863656968552 2.4326492618109117 -0.3253116556951752 -0.6399282935703495 0.42245050423171765
Ni 5.9537651575681725 7.198650132080599 12.805382716912133 0.9244069744095628 -0.48685226754655514 0.6414989804915792
Ni 1.4120014298078 3.656193456664647 8.331000661839042 -0.594573519584634 0.11959100689247146 -0.7908384222910767
Ni 6.9861202906589455 4.174002171490719 8.011136642731634 -1.2817810578569215 -0.4095445948033269 0.8624415884503598
P 2.327292793655278 5.764893897441448 7.273519376082391 0.11430790411666121 -0.1837917099400964 -0.09270678090711776
P 0.27411054087501735 7.459652340256895 3.5538922724840534 -0.3831581343899982 -0.053766909308810625 1.1190968193194017
P 6.227188120924306 8.69889991844514 0.9603221463543757 -0.43651263875173857 0.2687720687372339 -0.5878724534153746
P 3.337809947214835 8.512985980980279 5.51987879074253 -0.3336237751052964 -0.673108379866744 0.4869638534237548
P 1.9008191409142683 2.9739113936722434 13.199287929676013 -0.873768840537721 0.1324498651330106 -1.3745166351194456
P 3.6502233615410056 4.451611594740056 2.4319866367019873 -0.7271113164457607 0.2723608145297568 0.5348825314819046
P 6.135751400872742 6.549767331900641 4.093027904518837 -0.4573486016604833 -0.8822246846145582 1.1342300754164143
P 5.142192644452322 1.389978617610218 3.3639055472158055 -1.182022769419661 1.275429661717597 -0.6832961190330232
Ni 3.3775027623170657 0.11860804617078866 3.489643513491686 -0.1683193253361101 -0.13730565056341515 1.9093104635422857
Ni 6.6027496157146315 2.402824662765995 4.459854207496676 -0.6084379362715522 -0.6367671222335486 1.104958837256123
Ni 3.260633067373455 6.022984991122471 5.186542318583659 0.2494520282523833 0.579915146241511 1.1061526004539077
Ni 3.9780240953421973 6.935180407808307 3.0057617587405385 0.8804223412984966 -1.0635419648722328 1.197860764893182
Ni 4.979909563382434 8.00291251324165 7.046619719014067 0.16153726941727017 -2.011363461550994 -0.8668859973749587
Ni 5.9802886451917825 0.9086355395316156 6.835761689059701 0.6534684941486294 0.8536846681933362 -0.3132472683314734
Ni 3.445049860240745 0.3982654153634681 7.661257646932948 -0.813191078954664 0.9584954314528397 -0.6470291662811889
Ni 4.817487857812771 4.4066418070130595 4.357624183892633 0.4501577403389989 -0.1600455153630921 -0.49688316941999594
Ni 5.687328869000698 3.6395492750583336 10.350685690493679 0.9865147994839009 1.164625656989136 0.8520916126746034
Ni 5.673789876189343 5.518687544207798 6.2995214607435495 0.7118446200946772 0.32812752787741556 -0.6932840834836704
Ni 1.8358874252196764 8.129014599870272 2.288190518922088 -1.6014059475799645 -0.4306672357145551 -0.5905350878492024
Ni 8.602879348267683 0.33996826822810594 3.5766026622005196 1.5864454696153905 -1.3529219396678054 1.7669837056151956
Ni 3.3780018105162553 7.46676839791201 10.946292322920124 -0.5943742590896345 0.09245558412826013 -0.23081050189179605
Ni 2.554331999386709 1.023584823071677 0.5801786497648224 -2.206637718209393 -0.07793219370110449 -0.7167145465924689
Ni 6.789033218512224 6.762047649222699 8.789358873691624 -0.09267695611044685 -0.04489480363016139 -0.8572806130747108
Ni 4.883168145806147 5.570080267091035 1.0660852463760164 0.377027338901912 1.5713572078237001 0.12398116554036712
Ni 8.594792919114143 6.087907465183744 5.107550381958559 -1.1747236646550865 0.4515998721021642 0.15162206718608726
Ni 4.889812880162028 1.2583407926239147 10.697087983838008 -0.655157194704962 -0.36541572280491263 -0.6256105913960968
Ni 1.2123451835985826 1.9025288430781595 3.450647517541658 -1.0958257646066032 -1.4274757038149803 -0.0014570441615007162
Ni 8.162570970449131 4.83549055951688 10.614673870395128 -1.002644100945596 2.377094144493164 1.0903243751723997
Ni 3.4905741459668422 3.091002887815494 11.333205315915354 0.05296729622565072 -0.8315225302740002 2.0537300994426633
Ni 7.699842390200312 9.070626135408357 8.383508849863802 -0.08171248667914315 -2.3324297117062542 -1.326525709062464
Ni 8.070949417731201 3.472663860595917 5.9976869440768725 -0.0543772891992999 0.8947259024053622 -0.03125484424922359
Ni 1.5725008756472503 5.461075202101324 0.7480159524590272 1.0618031278042552 1.5040578112460936 -0.6139930617618266
P 7.638986234799104 4.397316998994864 1.1444164062188562 -0.5912130877528334 0.6255074901593292 -0.1093436181328504
P 8.098591142986328 1.3351480071325614 5.772599571302272 -0.3970107240023743 -1.3330380562596849 -1.5403083089376954
P 7.685212884657394 9.363715294465898 10.543594620217183 -0.3222795537370708 -0.15594563426210564 1.1580726863619668
P 5.263867988721465 -0.048606370437760574 8.811148796729585 0.14373392268726212 0.9209614390631236 -0.3379308871210825
P 0.26364716363200325 4.023289615335382 4.0994665504517185 0.11284880307263145 -1.034923786914908 -1.223849218537144
P 0.16252798435282373 0.36618955444220574 1.4006101925796257 0.5595787486770041 0.6668498005515419 -0.22179055778137285
P 3.1781237651073977 4.1465730038019135 9.668701208094125 -0.4042200972666199 1.070108562346157 -1.5918201036637425
P 5.392530007779265 2.686773846471707 12.387995438049709 2.071084017340078 -0.411608162200575 -0.37712812614583435
Ni 2.589801388062462 1.8704326505635969 9.30063005710831 -1.2721476485322156 -1.7291278111096866 0.638011793273927
Ni 8.15256228156538 8.477525833937843 12.600638027397844 -1.319053826165451 -0.7793065103920771 -0.853862074311465
Ni 4.558121418733818 2.5537590181209726 8.70166871178731 1.4346141146319744 0.625073230835388 -2.510698949166225
Ni 5.706292700569912 8.252325713236761 10.65412917552108 0.7917241673301397 -1.1163845625945612 -0.35448776303849916
Ni 4.908554912531603 1.4414729984599568 0.8250523594739686 1.6995848073452473 -0.46576922162401074 -0.49246729974048736
Ni 3.1972262211763876 7.393870394297017 8.39418108801981 -0.7048586756951474 0.12824225480956625 0.6028858961050714
Ni 8.856534457955906 5.43009724721828 8.275165485819683 0.9193956372379005 0.01656741744037792 -0.8952005280489358
Ni 1.3969190842322845 0.3770364594679306 5.410736949579708 -0.20007990557715863 0.993656809845321 -0.688996254741594
Ni 6.886245959387746 7.800456052136979 5.838580212378494 1.0078379864417095 -0.14110625525642792 0.36504188440526164
Ni 8.887096539339625 1.8309431513943695 7.6458518441912915 2.839063275644794 0.3471781167509634 -0.5489166409774675
Ni 3.4073994461018655 3.783339847858242 6.620521276585782 -0.16345891192001524 0.6389232493446029 0.5685632115638014
Ni 2.0090756336051947 5.159178766491414 11.881578884615141 -1.3855420396956717 0.5026491253694956 -0.13574164851040493
Ni 1.00092433817513 8.927842900640146 7.641252283288758 -0.19025289218440783 -0.18828239872159833 1.238009569197926
Ni 1.8718281371946648 5.630927180858925 3.2293880292875103 0.852152547819526 0.7163224533603728 0.15342235361961964
Ni 4.766474041895585 5.427278549056189 8.447419365076717 -1.0419619247086118 -0.4791803528235941 0.7632898232488468
Ni 2.4365473827445836 3.564266930047211 4.339892262044751 1.039432730528855 0.17784551965899048 -0.03445303947154712
Ni 1.3477813198787196 3.4345883313243943 1.7690473122448493 0.014247511057949655 0.14036089244997116 -0.2842655363871427
Ni 6.286658031327765 0.636657967626469 12.425151424806057 2.74941790727182 0.9396381895370205 0.47625006655067653
Ni 5.5962895391818215 3.506802454073831 1.9272067765280982 1.5969389129475464 -0.503307841999417 0.9966914829065867
Ni 3.878759711870007 8.540904955234957 1.4282713252647214 1.6792664075028694 -1.1145670497698483 -0.9665316714937549
Ni 7.113719521885138 1.826876832734304 8.93273449715554 -3.125791671750133 1.5666932266891278 1.664233938649779
Ni 7.866866429162504 2.287655428352957 11.25483534121258 -0.44829831853275703 0.25724504193424086 -1.5067878085827469
Ni 9.136703813634421 4.118367538914368 12.724063737017477 0.8941000958959054 0.4062764655750164 0.739316857373017
Ni 6.556319649923338 4.87451797702019 12.630300897859689 0.19775074322334976 -0.8666440565674817 0.08759157116773947
P 8.588961448490275 3.31275587928884 9.384532073515437 1.4629332732916418 -0.9732329947733305 -1.3798007663365204
P 8.61689890601159 7.322848442245645 7.231777690873487 -0.03114891479897861 0.08425762169850004 -0.46003566157434317
P 1.880358164747484 8.777832708617002 9.734965567313221 1.3650356922122038 -0.6913123044692804 -0.1713635114790726
P 3.0223375522602964 7.162348996406195 13.093636653417525 -0.2609057786152797 -0.1285019362288561 0.7182209559346663
P 0.09384046887766224 6.594053238762083 11.69445983816557 0.30854600620106215 -0.7961611200555707 0.6903823364558432
P 5.84997237377 5.882188707517702 10.520911031237343 0.0958754084430865 0.15063939155784378 1.1076417834049248
P 1.7845409105030308 2.157357640197812 6.606359397688772 0.8341010896344537 0.19917873391912794 0.5467641134108391
P 5.537457301477328 3.2278067858267443 6.670838273350766 0.009982822244324743 -0.17405057139293253 -0.9330355966188382
