# total energy = -340873.69864839263 ev
CRYSTAL
PRIMVEC
9.19535027324726 0.00000000000000 0.00000000000000
0.00000000000000 9.19535027324726 0.00000000000000
0.00000000000000 0.00000000000000 13.45832460514521
PRIMCOORD
 96 1
Ni 6.2933621958137556 3.1817751527898976 0.9339790985752042 0.10012852729248561 1.810541021380856 -1.635051403548552
Ni 7.994925009879878 4.427055483599019 13.007861326039134 -0.32146425692462705 -0.8297219867301517 1.3924431376908792
Ni 4.568755833591771 5.146977858786079 1.852767478254365 -0.9720155774264616 -0.812645233753523 0.20381314736734576
Ni 1.0892444295095085 5.303832146273189 8.338239854605668 -1.471657540538517 1.0386454587408693 0.49573877140290756
Ni 2.765317732207693 5.578488068008007 3.9614176508233525 -0.08532848616517563 -1.0373714771244522 -0.0968511420927945
Ni 4.172905193303776 5.098389627159752 6.231540935396087 -1.8527420802289383 -0.0565922945727477 -0.4341595651385297
Ni 5.292374739648208 5.311997617447334 4.296987251889253 0.6420605094220039 -0.6586598085415818 -0.3342385258711599
Ni 1.8668768239408597 5.084431085220166 1.7029761394258807 -0.5348593915534531 -0.37471051784327725 -0.38347386585820414
Ni 3.9865890030667113 7.469429124001498 4.56610021639009 0.4818090486956928 -0.8155719204820148 -0.9791614444426232
Ni 0.537270532092898 6.635695896649589 3.008675439713417 1.502872789799057 1.25401340082535 0.36916259144185454
Ni 7.74591492047016 7.081403726922056 7.865812175078888 -1.8180622694585655 0.26724354790784943 -0.11782877278572611
Ni 7.186920373006861 0.8283447520050066 5.341474232757961 1.1070172624470485 1.197910387184195 1.6994829916600604
Ni 5.847939421404349 5.995570772418862 9.196221221018632 0.5874183965970915 2.2444393624381993 0.15291764606905922
Ni 8.744750664637115 6.280203649360827 1.0728261313322172 0.14872160570984064 0.2375737887575586 -2.512363738463157
Ni 8.000423829431835 4.0988918177624605 8.10166923524593 0.5949077629956012 -1.0881132264536937 0.13732339117522802
Ni 9.062128184429449 1.6932410219348146 7.5045636384263705 -1.792031392612443 0.008591341213436816 -0.005512188067480829
Ni 6.836163731185086 0.8773247055592828 0.34322932796687144 1.0001146496555227 0.41656216377174066 0.3293205197442522
Ni 3.2064554733207578 2.5831302543098076 5.597007503756574 -0.9166669254528277 0.2592222202652697 0.07889558605563833
Ni 6.352488299022932 7.306928891355688 5.580413574386235 0.4758759710407095 0.11620923490443212 -0.10656631249802936
Ni 2.250791899381964 2.2201897731797655 10.910960052703484 -1.6001579341054764 1.908198975645662 -0.39771623470983114
Ni 8.85598681868399 2.096493919311984 9.85247590942342 0.06161263060547454 -1.9705435993211544 0.004684035739230643
Ni 6.7367527977800465 2.0137265701695592 8.983822419311455 -0.6702356863046393 -1.3133102388134545 -0.09217250567020255
Ni 3.0373805651236947 7.345356260766441 2.1931416499154124 -0.3624041896720984 -0.9328995852616062 -0.10257056107507496
Ni 3.9530903414817926 2.9430638558520745 12.540560973907288 1.9112177078673278 0.7239838265603725 -0.7094496374999394
P 7.632104068305312 8.009729524058224 13.354130636855295 -0.21371986495809642 -0.39637540441122054 -0.47470560488169217
P 8.018124878992902 5.39732127400689 9.738322990222898 0.4888821534923903 1.0375224008800195 0.7356363231976363
P 7.072622167269682 0.6932420659395607 2.7555651435508266 -0.23066574878381566 0.39275529116013 -0.3384782749841203
P 4.313658422203131 1.1198465557117072 0.5420732636179605 0.20563117441269102 0.8822028302376871 -1.2022465526657038
P 4.026404870391087 3.499391751693186 3.4152386632422664 -0.5203198031763814 0.02597045592183269 0.3755816075943209
P 8.99870785257351 4.0271864751769 1.4085621682407439 0.8491428144589246 -0.12169982570535813 0.053993937717952176
P 4.558778878384624 7.632122459006155 10.828648792941957 -1.0805269294660036 -1.5802809926758914 -0.5006128116657572
P 0.06750674558317946 0.22208242523588376 6.006073701670109 -0.41418620734039635 -0.24269054115883362 0.9124667713285511
Ni 7.58527214860946 7.653768313897974 2.6040110560465726 -1.5086742269721825 1.0438640268273314 0.32360752851987495
Ni 5.3992247115441065 2.710007699423371 4.9885704766128045 0.3023252221023309 -0.3219414536713616 -0.11504966737869217
Ni 7.475093459861038 6.908944929769942 11.337346612670643 -1.4810857758309526 0.47090191486488575 0.7455019031378064
Ni 3.829826669083814 0.7576536565709193 11.142618515868143 0.946699467259176 -2.076084555878463 -0.21994347727030508
Ni 3.4922377690653885 8.196956053987 13.49358548227516 -0.7661859138497191 0.12444370699908246 -0.9043479988761588
Ni 8.832115688990207 7.671423386706935 4.816936502393484 -2.0081254142296707 0.06909505502544876 1.1858647688735706
Ni 0.7344482702476415 3.7851280706857104 6.51303543923925 0.8789814950869119 -0.9960705614931362 -0.824221882847529
Ni 9.27249941136872 3.6916297476015894 11.068961000388134 -0.449368154558168 2.8425612614957236 0.5563103623383774
Ni 7.078286503129224 2.4428367929315193 11.733263459481673 -1.4674959529616598 -0.7127113389703468 -0.489241593714338
Ni 6.3179505628404025 5.200881002955937 6.8320920300185195 0.4974156448846982 -0.4586377527855521 0.3956722076966089
Ni 2.0620941133857746 0.9745508237042129 7.086063930515588 0.9641886251828748 -0.8242396234593418 -1.1394419586346571
Ni 8.14724598960927 0.07566302140690248 11.368341380335833 -1.8617298855498454 -0.3823189263181545 0.40861282701767687
Ni 2.318248990072868 7.9119093862760765 11.314076858894417 -0.680238563153622 -0.023458745243572502 -0.2280043999015686
Ni 3.283724002911225 5.198499407196811 13.188512260881613 -0.6250125528007816 1.0198733203396888 -0.09201001195040928
Ni 0.7420353538802839 9.007075621456924 0.34482380172993066 -0.5915681570994069 -1.8529467400405766 -1.0161243948202179
Ni 3.2275036304351907 2.8766366444083595 1.4574290189848376 0.026577236267896164 0.631251591731958 -0.34610108163670067
Ni 6.883464613752427 5.109626345374622 2.5360730485286322 0.9083784601917905 0.09929420431664834 -1.4744021931631897
Ni 5.366526045445844 3.8437300389208704 9.147125406049048 -0.9993448613690338 -0.010188253386911487 -1.2931098526061795
Ni 0.2744867272870647 5.899911541985728 12.060691497284525 1.2805253310729496 0.26969920853719354 -1.0440044090599374
Ni 3.3366064631843155 5.576281183906887 8.579534125476844 1.3614749714441392 1.2559039329798434 1.1168381051922118
Ni 7.490109467099076 3.681533252838965 5.042053393268408 0.7362117360851321 0.95749655787468 1.1564559766941505
Ni 1.5552923749139662 0.5577127156145649 9.307387490402304 -0.42329896827494196 -1.1678068829305954 0.6768066546539376
Ni 3.657239137025801 8.588126260910538 8.854662688223316 1.5119930069327703 -0.17760229329993282 0.029656132303536017
Ni 8.69721070295882 5.711655132809762 6.281175597900362 0.3094757171041831 0.2648089703244278 -0.8160421752502139
P 3.437718536417301 3.705523922088225 7.651232236251771 -0.41673391346291455 -1.2973115493923528 -0.2047117479222152
P 5.305735583810406 6.957496379994584 2.837136177603436 -0.15925978623700315 0.28405547725886565 0.15617754776725362
P 0.932757956039251 0.569847819565599 11.502143843851703 1.6466478501368995 0.06735956039158077 0.29908151835405267
P 7.75398843814009 5.8863116187125755 4.254432089674363 0.34109488667136095 -0.24711746658193567 1.1581562472147087
P 5.116973430361267 2.3003088614008464 10.563492587727419 0.6300007500439925 0.31252273146062304 0.4243402650552627
P 0.2590642855604038 2.544941964010009 4.786144032437564 0.029525006042310443 1.2008280750516223 -0.036524834398911285
P 6.616109800252148 2.706678982570848 6.953351116024647 -0.1960461018274172 0.23760309933359725 -0.9168525591010726
P 5.349257177354579 7.292161158579026 7.516730006568838 -0.09639785660545978 -0.4126957388377989 0.33233359553896313
Ni 3.154612087645278 7.320234563415357 6.655801530345835 0.17261486738767046 0.641539089700895 1.4554423642312353
Ni 3.7784614416302436 1.9594831980341116 8.725449624102735 0.47719340430055235 -1.4676949563463433 0.5849151705592636
Ni 1.6635952121764348 8.641597223610594 4.879679136923371 1.7623829736183905 -0.04141430128072868 -0.7788046310549942
Ni 5.576915663085958 7.020171888466395 0.5591085698085234 1.2669203386950052 -1.4407220273019252 -0.4242340784947016
Ni 1.4823732460727894 3.6304162998467704 13.03884230067869 -0.059484528518878206 0.36707896943994844 0.5457007051433311
Ni 1.837709172404389 2.3310305271585223 3.3071951348616797 0.5253769059843145 0.29823202586956377 0.8765931973603935
Ni 1.5075593108768228 2.9668982041441714 8.679152873801405 0.9977520629606171 0.6700305122723687 -0.10678099961199675
Ni 9.025199657137373 7.532564399994374 9.67875642972854 1.5326963009183927 -0.002895833490556303 0.6948048910035712
Ni 6.1595514564825065 8.620843317709642 9.755953235585721 0.24739617416461906 0.3288870317512594 -0.8318616587809737
Ni 5.574901881343687 8.72147723272072 12.245258731871452 1.4643013572837618 0.20050490892971917 1.1256305066728616
Ni 5.2670323538870125 1.8173322758707136 2.3746275225761497 -0.5088318571414399 1.1012968150235032 2.260876682058616
Ni 3.341608733813521 0.2220585173247883 3.1811038922091406 -1.066527786973434 1.242565049779092 0.07294579623010662
Ni 5.612437301763571 0.20821215866034395 7.239327433663168 -0.5230490291820862 0.5245248423966644 -0.5579998342256584
Ni 9.020528419123334 1.9420212275839988 12.773403798206218 0.18859915863106874 -0.07563876968123748 -0.2625075758847608
Ni 8.938404744510402 0.7325466717805096 3.7958801939333764 1.3011759174437656 -0.4733071818722687 -1.2022509235410779
Ni 6.598804150759198 4.642318636962441 11.264066106557909 0.2570722638018024 -0.4219460537914733 -0.9030061401362836
Ni 5.245018684978339 8.858212093485951 1.6443916423565215 0.34702359345097006 -0.8000974789954994 1.8153888363914608
Ni 0.38919780425816086 1.8002840961895608 1.5321761834897751 0.15297369611797526 0.43737781496551126 0.5113538522323452
Ni 2.4177150955804354 1.3596245132984055 13.146683531350007 -1.5413411210775843 -0.6579260156993507 0.3901602767394442
Ni 0.8105563466149365 7.672526828757495 7.31159829029964 -0.1415507989930143 0.2778146385554764 -0.8610886739668913
Ni 7.848231584608341 2.933969654285375 2.8763938871572363 -0.13256556477526846 -1.357130064211882 -0.19310347425932547
Ni 4.47746439460877 5.278094360443876 11.026203540463975 -2.262565896835581 0.7668690559596728 0.37877851726506373
Ni 0.5515674629279876 4.573647760015921 3.903358208263051 -0.6048075386078164 -1.118057836531926 0.7016291130142561
Ni 5.518129787842372 9.158817294109772 4.21569943462962 -0.18649779601734978 0.29439953949735104 -0.6482023606536836
P 1.6319356206757827 6.8333775400074215 13.381612780659538 0.8483388305003905 -0.07364307940744737 0.8570340442815433
P 1.951998182791146 5.604943091170184 5.9777575395826545 -0.9880741735512208 0.13207319851988222 0.03479499619199814
P 3.6554552390440627 0.22437942377113293 5.473204983823905 0.14713806327280465 1.4631428181992867 0.7071567277007047
P 2.0915376254348854 4.3656029567332455 10.76403582413637 0.9313057584119252 1.0225349263322518 0.026447909778883484
P 1.9454602886415777 7.399443311944726 9.13022159336951 -0.15236665866159566 -1.0234240138054245 0.12250509521547291
P 1.1242327378626833 8.68452111937738 2.435754534037008 0.9575580072402347 0.6343934797950495 0.9103304417118386
P 8.129903558714636 0.26474241444557733 9.089120216056232 -0.344206178606833 -1.1501020094516645 -0.6654768314634151
P 5.420355626812331 5.103309139635165 13.221216444190128 0.9927314698175741 -2.0800939341481723 -0.9607541455800293
