# total energy = -340893.2096981162 ev
CRYSTAL
PRIMVEC
9.02576727468928 0.00000000000000 0.00000000000000
0.00000000000000 9.02576727468928 0.00000000000000
0.00000000000000 0.00000000000000 13.21012274504853
PRIMCOORD
 96 1
Ni 6.255262772350798 2.016211961905519 11.469107262469418 -0.017285526553325072 0.35060076927926714 -0.5000898492827517
Ni 4.407074491115483 0.27212597603344557 5.805069241998145 0.08207578355583284 0.5868625240936215 0.17867624309040195
Ni 2.5472790733663166 1.4329488392008558 4.3969764628637735 0.7757113368416512 0.6966583992725421 2.204177686704675
Ni 3.4245294826411308 3.799523029096063 4.418455983451384 -0.7474073476906354 1.082797470667735 1.5884334465796968
Ni 5.150310310221023 4.553048222716215 2.8441654363347952 1.6089937872295514 0.9405840983900575 -0.17840781992036372
Ni 7.100255089945587 6.078520200644525 2.55516759382752 1.2480147600397538 -0.7572973531108377 0.37084666401249683
Ni 5.064240594982998 4.47224955547515 11.457469438347365 -0.5661255486565864 -0.08130188150428579 0.06348619347910356
Ni 5.749666375697226 7.806557470003938 12.490659831274696 -0.7644303646111932 -0.21702296118940043 -0.6039439050559405
Ni 2.098508906488186 6.248746168491542 0.36123466706012886 -1.425935355911054 0.7261109002057043 0.62020638966139
Ni 3.0767757013485686 1.6789190447028133 0.5686747753117078 -0.764536036951122 -1.0115663431358901 -0.7972615522086012
Ni 0.3416785374453816 0.4080134128797217 5.010586019772851 0.5159507275744083 -1.0525276160396002 -0.893029745649862
Ni 8.636783632593547 2.375293080931274 1.4639722059391256 0.04749470314685369 0.04328272194803514 -0.9492083497239587
Ni 6.874412345116951 0.6652170881368431 4.6565683561003395 0.23758073073609404 -0.3587552800656015 0.8014789327240583
Ni 1.014469146771007 7.738548314769194 3.2122524657909715 -0.9329633486200062 0.09170482200516464 -1.6222143996848837
Ni 7.520079621676031 3.837846436279437 3.7743826573653587 0.5706532613236108 0.7789301008892648 0.22777171506547222
Ni 7.885560009588505 3.643223819912245 12.375334897076833 0.03481222258317876 0.06971211978415735 0.759919364114717
Ni 7.992470221102181 8.563322914019482 6.8546928491173675 -0.8126717161160844 0.7440078350907832 0.584060278758136
Ni 6.791853653287861 0.8431709177903618 0.31628183392852394 0.6945675781817845 -0.9127215676518344 0.4511807822868746
Ni 1.6596039030701188 6.518084085062212 9.292832346491842 0.615747582559088 0.08822020589067388 -0.6476254051042911
Ni 0.19730236662454992 4.780172626475618 1.3176419565372293 -0.6679044670683013 0.5395069176277933 0.5770715061451288
Ni 6.421761098378047 1.8615373908029564 6.89211728989578 -0.3051161545839068 -0.08116869836053117 0.17886779027591773
Ni 3.595784387939609 4.297122596083014 0.5711252710842671 0.032334964687279796 -0.07282109772678426 -0.1669988067524737
Ni 5.984471707274116 5.854753382253048 4.837454657490523 0.3946519939622107 -0.20495420295032443 0.5683176712118986
Ni 5.3210236694924165 2.944972424123224 8.996529048079193 0.044493197316368534 -0.7720035489727607 -0.0902781168609671
P 0.1946876018904417 5.524500563402446 12.289192073125154 0.5472796195946769 -0.6034960188852446 1.4483905995907764
P 3.963106032344172 6.03107174290477 12.519325667641723 1.548812746864281 1.0600195535412713 0.20382574577283605
P 2.518829855410124 8.120464624603695 1.3960587238358333 0.15840103778113365 0.5415594292814478 1.6411328338559414
P 6.13179930394256 7.943324919144226 5.877658974045316 0.8466290468981356 -1.3718761121728051 -0.23575987547727137
P 4.735386770035698 0.9296810904637492 12.611307260342093 0.32258294391010256 0.43153009793548264 0.3088918195762551
P 3.809974867418801 6.154769881258078 8.231385887024645 -0.7273239466771989 -0.6065767146930973 0.7983306169030638
P 4.62975821745279 1.0538485687071966 3.669177413260289 -0.1123356108816388 -1.4674255047350404 0.06299151323087217
P 0.09469293314264031 5.73675050295125 3.650763043185979 0.6371926398067412 -0.7583810730933197 -0.9894072905403477
Ni 1.492744546358146 1.0637769125370864 2.4744808460987184 -0.6879935245086926 -0.13958519062621122 -0.5804023702905746
Ni 1.8800402133950234 6.404783630428935 4.880334271915104 0.9747278341513019 -0.5913848374440073 -0.2538087625591822
Ni 5.738609810977575 5.729042497832409 9.275976726398826 0.28059785772756834 -1.6504654241107768 -0.12242539101747303
Ni 8.329600674496762 2.1965197116234334 10.230327946126428 0.8597133908859194 0.34276687505714515 -0.46766181066103335
Ni 2.305018458149891 5.147033956757159 6.962487585808615 -0.078021153870485 -0.3448188724901674 0.35042104916829325
Ni 0.3822935869000366 9.103117942283463 9.145222243312602 1.0942483928171542 -0.7309425172663927 0.8000766530598932
Ni 1.5340735339918412 1.1802363856616918 11.338023338883385 -0.5966995647887013 0.7685343594772378 1.014471432597827
Ni 4.338632099059072 6.557192733984859 1.7319923605105558 -0.036374681974292195 1.172483205360342 -0.35457209522218935
Ni 5.345176622300403 7.748837689283806 8.020750657213265 -0.17161367981666575 0.9934912308017341 -0.27693326439178756
Ni 5.503136572633947 2.66789039936524 4.742275235500218 -0.6977220646503661 0.7803874021610818 0.8256688997067007
Ni 0.9331740623384468 7.303659777718672 6.863081397076913 -1.0059042597541061 -0.8401940899060693 0.9469882021441884
Ni 4.924440488091033 4.614730315201184 6.889739000260167 0.34500630591062514 0.7428045588113014 0.3255893348365941
Ni 8.202572028076881 7.118243443811924 9.148512135427142 -1.1635141690925124 -0.2933862677414883 0.18044593339631504
Ni 4.752580856395644 0.5363056666961322 10.467806709923693 -1.0832954933500762 -1.0529017115495671 -0.6853887398959939
Ni 8.122360035698492 7.309562629413898 4.701615057209973 -0.5692764355807423 0.20133434680955004 0.33910433860389344
Ni 7.131393986502969 6.0787187675211225 7.0454867350730686 -0.28229787113781063 0.33136146143368095 -0.44159699525318136
Ni 2.408896011911891 5.325536553051458 2.560954013126922 -0.5212106904217668 -0.08347986299221107 0.6702881368091295
Ni 2.254293646946273 5.428872560786372 11.376914466818487 -0.8150651560489253 -1.4029949450647967 -1.0043950221984317
Ni 1.07792028961112 3.632862239260688 3.7468793398031406 -0.8660439610896374 -0.5887070335015281 0.2397473993701097
Ni 4.13525448858734 2.736098121476582 2.4444800987749273 -1.0918091872480422 -2.145724427663789 -0.2697493450488387
Ni 1.0124383491694386 3.3618545557731725 8.238942259255904 -0.2576101385831434 0.31043525280397505 0.044338159795742994
Ni 3.837286838718116 2.626137200676995 6.848708765518079 -0.7752220559100583 -1.1562382042563892 0.10541034451671523
Ni 3.9241237441611783 6.900559992458034 6.20006569354017 0.26626704292719305 0.1462363773941417 -1.045575353091483
Ni 0.3574754350554479 7.481837446396719 11.396650209198883 1.6446745284606126 -0.2394499227343489 -0.14387327647860382
P 0.007479653210754144 5.494327423926699 7.965334252261668 1.2280252042917044 0.3105069865821749 0.36197327278226693
P 8.370460322240316 1.4367486871575683 8.001596174235273 -0.029161709165620747 2.424802763423037 -1.3951469097752875
P 1.684542097617378 3.1882258737226388 10.37894261718591 0.14220077387218735 0.6877233015664415 0.8304444667184729
P 4.02888582310075 5.971140649240709 3.9767620179938294 -1.29593035277411 0.8873728044744007 0.43133495120554105
P 6.75304285468011 3.8273314175868722 10.37314265923583 1.3900931494014641 1.1166344738218381 -0.9166808094098987
P 6.13688081083004 7.650348518491302 10.096020921102527 1.1593525815156551 0.669483381519647 1.3692759555457967
P 2.2667401798021074 8.569270894550298 5.816390261694354 0.30859562849207495 0.22080248283649068 -1.4227312471514595
P 6.982541035191568 3.9301800338974107 1.6185177085719 0.39670039185080713 0.32465011085177636 -0.7847809032430871
Ni 5.489336174710401 2.922606573204618 0.41363375806415104 -0.01816278695195582 -0.17726959255086244 -0.29743009879355875
Ni 1.3700121650864736 1.2733371734847028 7.055883516216387 -0.05746852653011393 -0.10936907205414714 -0.30469886454083006
Ni 6.735316248060198 0.5664706829814724 9.007797718326117 -0.9935871329496501 -0.47492234887818857 0.2970084378751078
Ni 2.7373256258046412 1.7470726122114466 9.215381336274874 0.7774172637891643 -0.9079205467187654 -0.6016121715989704
Ni 6.387057023809024 1.896719831029238 2.6373083926390444 0.7985522459955666 0.03766383309936094 -1.2257474640011212
Ni 3.901983537420524 7.116510496525253 10.476287320707844 0.5747037772439006 -0.6272476127788874 -0.9584213836817946
Ni 8.215054664001189 7.205423328405474 0.3413707587866551 0.2708855155358109 -0.18326489090234888 -0.08223853438594224
Ni 7.6303474185576325 3.8105344649801225 8.071596413696266 -0.9200942059668219 -0.5395485694990063 0.13936124754086324
Ni 3.1790556943306676 8.301674951033418 12.445969647966228 -0.09571162917171258 0.36372727935889615 0.5423521003860724
Ni 0.0838177863420639 4.679291627396822 10.136496973743563 -0.5882681461918966 0.0022047209608026547 0.30763943522639275
Ni 8.582647081419294 2.519949050532766 5.705280360740636 -0.14843107105261533 0.02372151198665592 0.7831899046068834
Ni 3.5110865893035323 2.6690637490905904 11.587853864981748 0.3760852867036168 0.29673615805032766 -0.4194538834972389
Ni 1.3796426586014665 3.3789944875304094 12.911309318119732 -0.18619260607210514 -0.1956162133788502 -0.8183163159963713
Ni 2.6246750264038656 8.555533676996577 8.052850797968722 1.6188372556825346 -0.6671213090453736 0.5789278426275771
Ni 5.728103818052128 7.894197668720509 3.5412371643614837 -0.22157972732214745 0.2413710510164617 0.027088371576359797
Ni 3.2656669555957785 8.229513942924356 3.5565611117745624 0.5255152313343917 -0.2999703487169092 0.3764367565057646
Ni 3.3992483089433843 4.221928930222277 9.376716923510582 -0.22886006303364456 0.8714008545261768 -0.3182166965216068
Ni 7.300356346953454 5.984209960027691 11.396835237424806 -0.7798664966606053 0.11866566686472464 -0.6327541444194135
Ni 0.8819510287899107 9.043728394646488 0.3526890707527293 -0.45168137607237696 -0.20571550659638121 -0.3863393603314572
Ni 4.716459736389081 0.13836320476676586 1.6320184510271263 -0.40459804943132904 -0.2957606815109358 -0.708632798025599
Ni 6.0341314779578 5.444658627475897 0.33281884444227283 0.19996472015553304 0.4514360928307902 -0.18636101332916935
Ni 7.729784294897536 8.993400717196065 11.162566938991441 -0.8056101812836126 -0.07782472158896274 0.4084109954195159
Ni 9.074416002847965 4.851422032105754 5.739296671855262 -0.2968865675852629 0.5768987280126904 0.6010521853304422
Ni 8.078269163326663 9.009493659967605 2.347954032330605 -0.06889990829550714 -0.46737461843791767 0.02214516863847154
P 8.475267530015477 1.850661341425668 3.550550853450632 0.6297490390445025 -1.1972352154940415 0.6282454579157825
P 2.1344043823167964 3.1358042183008212 1.8861542680408119 -1.5515075200876247 0.9054180920118858 -0.5018489980657034
P 4.548490210321584 0.880453654025021 8.087778711562274 0.605854234704776 1.0301621038602065 0.2674276388941975
P 8.673861483914624 1.4671294192770306 12.46150479832987 -0.568644458423698 1.2088648293131696 0.2981965446459381
P 6.423809947513851 7.681324951240557 1.3823729531546862 -0.4678996377034522 0.894087497490415 -0.10646038304778441
P 1.8300284377937337 3.1799402195082402 6.133776849518132 -0.027961003989300234 0.29751545941851343 -1.9015824987704089
P 6.768025628096125 3.9929722957379035 5.911900026761182 0.8221313188670873 0.4301069923357109 0.9270143301254229
P 2.1414896095044904 8.455067863205212 10.438137208253135 0.49683483268056366 -0.9375501966597402 -1.3880712338754289
