# total energy = -340870.0946709429 ev
CRYSTAL
PRIMVEC
9.22849937190049 0.00000000000000 0.00000000000000
0.00000000000000 9.22849937190049 0.00000000000000
0.00000000000000 0.00000000000000 13.50684166178879
PRIMCOORD
 96 1
Ni 7.042609148216995 -0.03540882835034049 5.568330570801303 -1.0193030496585156 0.23569816900140056 1.846201450896943
Ni 2.896973536038334 7.521623624578843 13.318569036026105 -1.4635799057367052 0.7079162315745485 0.2698943552671352
Ni 8.531802825942789 4.727769337931086 9.935146544718723 0.8348230554021427 -0.7159763828748638 2.5231572295342355
Ni 4.7787106531839925 2.89012598967644 0.9481895269406067 -0.35017088083070014 0.09342077625500685 -0.5362639852104635
Ni 6.853406458848318 1.530205127904039 10.674281034940641 1.3642137105315408 -0.9229800121550492 0.6707686759899738
Ni 1.0131046355913313 0.026465489833747677 0.38914458318659667 0.16590505946766265 -0.9296921340679021 0.9200476689996027
Ni 0.9375509131319923 8.501819432236866 9.380866275070705 -2.091000553758347 -0.9012341358375254 0.194556147545452
Ni 0.573283595077146 6.150277880871099 3.639971998850179 -0.07363279499480223 0.1757744960625747 0.824771841813728
Ni 4.298764098409003 0.9687801542218181 11.2500369449374 -0.27844224483714625 0.9208238850439948 0.4838530757089151
Ni 9.151976425150373 0.3462440592343884 11.942357104721827 0.052511953855786976 0.7077899904093296 -2.5338216512266167
Ni 6.662625696126696 1.1622925526888852 8.300223791373055 -0.13337906181549933 0.25496653031270927 0.2463250525876274
Ni 4.252483175221806 6.150388622860779 4.1462622272702685 -0.3916080649295643 1.4884496723951914 2.79353778040917
Ni 6.434875565850157 8.095903897563112 1.3080105541097917 -0.7178039230019058 1.2094669816735428 -1.040882575601504
Ni 1.324815651043767 6.94475937183537 1.7005383050811194 0.06115163180865598 1.0355673340361777 -1.4006994641624004
Ni 8.78007713830673 4.608804755517096 5.075073751716663 -1.67866065559807 -0.015946753137243506 -0.20161793948823986
Ni 1.3450076071621295 0.6152898774626865 5.201430361941808 -1.0707742209546138 -1.7132499635371656 -1.2256009111209278
Ni 1.9210320664838612 0.061550397864273486 7.3537996763179345 1.1678400501613757 -0.15838149739710788 -0.1558638731815767
Ni 3.3867484423974448 1.4745849635871422 5.764152862603116 -0.3914525131883065 1.2223032142062624 0.13074419529581355
Ni 0.8202529976626897 0.21702476857600855 2.817946206502692 -0.037465343935309675 -0.5644885272737955 -0.04873757441501929
Ni 8.980492454130532 4.2683008227478 2.3864428122634065 0.6177985515508456 -0.647105528045079 0.32457092087440875
Ni 3.035161082160985 1.2716410389989752 2.986781598269347 -0.38528623647659455 -0.46217070563947504 -0.7094820333997717
Ni 8.790034688878812 8.065966646352889 4.69380292399633 1.6508472329302277 -0.3043605073648048 -0.9429878227355438
Ni 3.2572449139655526 3.0372005804709294 10.028046154161643 -0.6165564516136285 0.9842321740973115 -0.7222089940481369
Ni 6.555658162594731 7.833971406471941 7.882768018524707 0.0844720517021513 0.25147960020537335 -0.745623002096703
P 6.196844887531636 1.619001746629306 2.076677164429687 -0.5368738508803206 0.22881301184579303 0.5720375432656472
P 8.592526350284116 1.581478669125987 5.495933917897764 1.0856462529704398 -0.03951322760327389 -1.4552703574297454
P 2.908592216455619 8.59943849613999 1.9918543374341124 -0.33136968896379704 -0.7644532474293286 -0.7559506092749562
P 2.9997236454633107 7.853545053147922 8.693840505242905 -0.1845661262122757 0.773011935632617 1.118595454202951
P 9.080787782784263 1.6053620249003573 1.4101275884937625 0.019322097367379627 0.91680756479575 0.3300797665077799
P 8.252603812960642 7.502594459352123 9.109230017133802 0.29761444689022293 -0.4054061471549212 -0.05349282971181755
P 8.292221759768745 4.044260549125548 12.289834091441323 -1.4688455250110186 -0.44566088090990985 0.033238707448471794
P 8.735411202469036 1.5963919237362583 9.322111189595944 0.15215737086426698 0.5656925748842258 0.5368797644175914
Ni 2.756700349110039 1.6933649926995822 0.16201737660200885 -0.39022892519385055 -1.3988397852458427 0.4720617395009418
Ni 9.142729469012073 7.492729193771442 6.954672625611578 0.6020150634643439 -0.521848581116082 0.41645392032865053
Ni 0.3379144159106069 2.652833591289121 11.058928570496306 0.2946376236500861 0.23707525185458525 -1.2492715152649905
Ni 4.522988942014055 4.42536987811093 2.8484980757556406 0.6362909539280783 -1.7404144397670993 -0.7148381555053624
Ni 7.712072161331424 8.11887363192262 12.90469299799417 0.3413730800334121 -1.0001778987932903 0.9325838537934003
Ni 1.0572999179728844 3.279448682896439 8.630344739759916 -0.011646325989676716 0.12110487243383658 1.2093883059168073
Ni 1.9042361980490259 4.843097891683908 5.291791211271308 0.8987856742970328 0.8161319067505427 -2.6754773512286114
Ni 7.167433827584898 6.74508233594277 5.849677978383245 -0.8142933108799073 -1.891164902981511 -0.9032246839049928
Ni 2.3394799029897615 0.8265071515298806 9.627379789798733 1.687258167459094 1.9423026021975902 0.8746916094623066
Ni 7.4383087343427485 0.27312481484818657 3.3593139601539947 0.2647452069660279 -0.07569250573730836 -1.9065388143344197
Ni 3.128876490927882 5.724299589066942 11.610723605325918 -0.6051962894058028 -1.0837441508517207 1.8618671824586581
Ni 5.0898956441854475 2.892931453415006 7.765136954236449 -0.8580596573325803 0.6995619460725824 0.12824791123652104
Ni 4.588751226885833 3.9566728637876234 5.481589138834518 -0.39400201908303756 1.5658218798277679 1.131343755007555
Ni 1.858149073343769 4.920718797950612 0.274267303041721 0.4067048113616867 1.3841240763022227 0.036820768372775294
Ni 0.6681174979398135 2.9265324187838164 13.290502401591564 -0.4727600511195471 -0.31698256700418953 1.5233950781221248
Ni 1.2990773669422528 6.23172861428091 8.597685081303387 -0.38661832502445675 0.22637586315921016 1.2626739047138256
Ni 6.176071535967453 7.170470003801965 3.430697323851959 1.4774047274349396 -0.7513449921821447 1.072723888481817
Ni 3.2741146103935077 7.920230187933702 10.898562172390447 -0.16007379749786627 1.1861529895379508 -0.6889746574750393
Ni 4.571281678013777 0.3106995719466896 0.5639055942510584 -1.572438099592705 -0.24558483198749315 2.2679004216746166
Ni 6.6807781539351145 2.2458198652177046 6.103808696301445 -2.1084043510570916 -0.48528518016975136 -0.8770032883146186
Ni 5.2476476084849395 5.592212080875844 7.535520821433798 0.5050140260572464 -0.5138763615438826 -0.2931970345488176
Ni 6.983805151696792 5.81354840425007 12.048237521055096 0.7987432789604503 -0.42897879226853863 -1.245021995960017
Ni 5.076468177936719 2.1335274876819486 4.266527105213087 1.7996230889167717 -1.8175879009253084 -1.994877805191145
Ni 0.8653803584573845 2.5272798604891564 3.8283118235492655 -0.3764452411461969 0.2522738139718946 0.019347294178360227
P 5.333223481010339 7.888345723404935 5.374723118793093 -0.3741212209987105 -0.10018560578266618 0.04407847837645312
P 3.1220658585625483 2.9733301379228547 4.111185624888969 -0.936258217321194 2.2016140397425565 0.5300740543496677
P 7.103987895997265 5.09103074957967 3.399348112273313 0.2654900555518525 -1.1142279212628747 0.31276415804746777
P 2.6495297885969937 5.587828543784335 2.915397311721469 -1.4634850320300539 -0.6251508781508588 -0.6660293615327755
P 2.0911779051283994 0.3873773256012829 12.003057557815305 1.0281931530592938 -0.048117938553149386 -0.7880333487421137
P 4.321410835298611 5.041187625724426 13.419613718810005 -0.12592749063346054 -0.7629033864437055 0.8100106243441534
P 5.221106444958243 6.612745658274891 10.330018334471616 0.4741381624139963 1.2456346898433515 1.1848895494444946
P 8.102317704465426 7.1978971032461025 2.18848689146042 1.667847109922334 0.17048856507328702 1.067181104286717
Ni 5.050656065842086 6.898487677147312 12.61684872701765 0.4750336776450722 1.2879635325185497 -0.02776482881809412
Ni 7.428674181240567 1.8457551989987229 12.946577464191062 1.2828166982102875 -1.3142818586981042 1.1696272239687855
Ni 8.72774231968368 0.5246641702078678 7.510006789861387 0.7821905168080917 0.01968565135438545 -0.7477428766531832
Ni 4.86736884442216 0.3214249336472202 6.929860882823722 0.8275825717896458 -0.724732531800939 0.32857104317273733
Ni 8.419907273870052 5.597647666869316 0.5241852111025007 2.049079230934213 0.24575632456835095 -0.9073011679672115
Ni 7.748164821468039 5.600757671079503 8.132469056855696 -0.4361974215041649 0.2854389878699536 -2.264913571132151
Ni 0.07012736496500753 6.937856454478635 11.024149125787316 -0.5952098676170523 -0.1456823046628846 -1.002802480900331
Ni 3.7467521938496025 7.249825867906992 6.834475115712482 -0.5423081345220143 -0.24987677449462772 -1.209741318380852
Ni 5.293577848704817 8.85580620224973 9.453235242476822 -2.279638021826519 -0.34759129302898206 0.08371871847589452
Ni 7.127363684318934 3.624677607225425 1.0062164838332208 0.2438256832045414 -2.1773865346537598 0.012238965268353117
Ni 4.2689006751919 6.711112230608358 1.691340259988262 -0.7956952361627457 0.12768303987198656 -0.08013434355874585
Ni 3.4226749895495403 5.690920107677492 9.414133168770647 0.8744175298653134 -0.11153188403342082 -1.8331212206742173
Ni 2.7409473010780263 4.590135501756836 7.2996911401601725 1.518008874109547 -0.6626421902280974 1.7995945496716812
Ni 8.45713503940089 3.250461967097638 7.043547686579536 -0.28258172092681655 0.5584124962830448 2.279029955928875
Ni 6.42210332304037 5.666353842966761 1.3867342660237272 -2.390651828572941 0.7719472418135286 0.3526154857164508
Ni 5.911914976583537 4.680011854881485 9.694967471800405 0.14522439118985958 -0.05260477067990941 0.14858585146292475
Ni 4.951920353543017 9.069925839296461 2.977974841540027 0.6872149944714552 0.7555423180929439 -0.7678314198729421
Ni 7.497851010794154 2.6600041351209156 3.72692937769684 -0.09962947616888003 0.9025523404283166 -0.1404688787827452
Ni 3.225277392944525 3.367017911236083 12.394255482060556 0.4335833809200855 1.0243915199250164 -0.6090550010302608
Ni 5.962967033826125 3.4408182188588183 12.154225910828307 -0.785052668847235 1.030678895595625 -0.5002276604121966
Ni 7.073810703809402 8.367360199766782 10.765262962262264 0.27432642289655984 -1.0870845280788635 -0.056223341269103166
Ni 1.279143808799811 2.674880475734627 6.3177982115103015 1.2423619326293507 -0.04962151968186938 -0.4211934918961649
Ni 2.132438524783426 3.2245667985107436 1.8568257065670903 0.11058366118753858 0.6938854645130953 0.5529103355178929
Ni 3.415818214688506 8.577040928727163 4.5237521388929345 -1.3119542390061922 -0.6595473533528576 1.0506041737646423
P 2.9768461960952024 2.2110376519589714 7.8172872028767 -0.6413513991701213 -0.18561796451555773 0.4971708758637437
P 1.4978500099191312 4.826588106722413 10.466289121322884 0.18057500277501157 -0.6464907772792156 -0.6304771754597787
P 5.3123393874564755 2.6041532583255185 9.931998703662062 -0.4868854347773357 0.16169976313706344 -0.07369938656667953
P 5.823256785345371 0.2104374658898627 12.578489547492246 3.5091842907484407 -0.5884681780178447 -2.1904713928621757
P 0.5627954058045139 5.110161428296931 7.0323369058242395 -0.6465002903609124 -1.3554827584164462 -0.8492474583575891
P 1.751624507770525 7.4933382747146835 5.5778257735664685 -0.8633939250613002 0.4353769824853986 -0.37097881871498695
P 0.6267701303928706 6.76431452815057 12.969741919882424 1.6354152146458736 0.9106338318848705 1.5247425932889547
P 6.667415287180367 4.3550025721682815 6.362100544481878 -0.5462126117827432 1.2388459490562922 0.4372202063417244
