# total energy = -381167.0303077519 ev
CRYSTAL
PRIMVEC
9.23504727992674 0.00000000000000 0.00000000000000

0.00000000000000 9.23504727992674 0.00000000000000

0.00000000000000 0.00000000000000 13.51642518705595

PRIMCOORD
 96 1
Ni 3.2566655072248305 8.736197635338579 5.205432233828223 0.6544424280261244 0.008223416351056804 1.3417270993932504
Ni 3.8324152885396625 8.019936611198371 12.855863525346368 -0.713981463932022 -0.41096847173404705 -1.170695774442616
Ni 4.334053816244659 0.9171177592507029 0.20392369427857457 -0.08141629559496301 0.23777664879698407 -0.9306853512191068
Ni 8.920169010187365 0.5779837392273822 12.442234073750578 -1.2595651838815145 1.2015024754108277 0.3650215726902875
Ni 3.384958782632659 3.5075725040255277 12.787511247157232 0.7580825680162944 -0.7917586201125009 0.4546530571061912
Ni 1.8939327104745762 5.489238162698662 8.873952216581083 -0.14080029398023494 -0.068451765014495 1.2213187388058064
Ni 3.0460602563123973 8.548181309825479 1.5548624122767891 1.5779880828766566 0.34864518821479307 -0.6071364438513092
Ni 0.8540645511327583 0.8412656992476655 7.70522744395353 -0.23570485386961987 0.049540015711656615 -1.3845130842105253
Ni 3.5445311628350678 4.975160026443827 1.495876318936386 3.059563653859834 0.4397851388554232 -1.0368130335178207
Ni 6.613679037094453 7.625341515342794 6.309494129614567 0.41890906673736245 0.6491976346874174 1.7055937325434884
Ni 3.522570220643892 1.0853673897823082 11.564639545910966 -0.0747270565002455 1.1126981148819095 -0.06263181589860825
Ni 4.108986481450232 2.913472683966429 7.627074933698254 0.1603879863041754 -0.49982502565713915 -0.6991228016526346
Ni -0.3488086554478269 6.603428134725991 5.893864366799846 0.21208541467846703 -0.24746765083250286 -0.05887877661407924
Ni 7.241302078412581 5.584756255668944 10.322790746216992 0.10416027415969803 0.6161669294846936 1.2950042414154148
Ni 2.815913645569633 5.1240566921075485 11.215483652689215 0.024502356016738447 2.7403946207272867 -0.3762794049922939
Ni 1.8806619476786468 3.00103016626859 8.464606903371532 -1.580012312395537 2.0401194506377642 -2.3278364359086168
Ni 6.641448823961093 6.325259278653489 4.515878042624376 0.6349956321554225 -2.4937070425939183 -0.24923117049082882
Ni 9.043013607759704 4.44185452196274 9.658553513349094 0.9223608905138114 0.2448818923831976 1.7877201668315985
Ni 6.808880229312656 1.7839525336222997 13.223118264029123 0.005320897992281159 -0.6476907111245878 -0.5689198235722719
Ni 0.8588169064109664 8.261553150537202 2.958691168972684 -0.4477761274806998 -0.7800444169993662 0.34732466963115666
Ni 6.922378959140054 1.4377767901251473 10.481689891480066 1.8483467793747201 -0.40427100510921343 1.5768069180843618
Ni 0.30542148029712735 5.262628575025376 11.894481261462982 -0.012133292928424265 0.13910259456283788 0.7847492786742033
Ni 2.7401031432789 2.956027781366319 1.5166644101358548 1.13426092865435 -3.192211236825947 -0.6453165544654564
Ni 5.207680044311542 0.3026842123133324 6.3959720349015265 -0.5664392232422631 -0.7600057531809362 2.1546998916895213
P 1.7305924310232188 7.098038791527925 11.5260370487036 0.7907936850960703 -1.9584684133241756 -0.7115921377642391
Ni 7.065429839939598 1.0692522324553098 8.263590401944843 -0.4739910953131708 -0.43571996764711407 1.431252140138277
P 4.493025918380446 3.7892691481203293 3.4251164617849335 0.2013587722895822 -0.8068178284384686 -1.0957517168355582
Ni 1.6597688542090354 8.072502499740077 8.946251553934438 -0.10683190745459022 0.489027677931319 0.05055791545320971
P 6.757644187564699 1.044216019553595 3.704189428976239 -0.11070861680117706 -1.3247369925931574 0.2777380196812701
P 3.158376900100909 0.8667525824517054 7.758955101430327 0.19182255066437287 -0.3424323745358619 -0.1934839975271958
P 9.33626329587518 6.201020188957152 3.426683649291175 -1.7969743384400148 -0.004514600040901902 0.7137984013869384
Ni 2.4470843313428947 0.6570440546203332 3.4012060011343137 -0.04990716924308824 2.2174075551313877 0.09082319073115971
Ni 8.687667462414007 3.443268870519574 7.856557544548863 -0.9964515989816388 -0.5423528717170207 -0.08991559131522579
Ni 7.550297521967901 0.9251023810414896 6.149541265468391 -1.1333949811096287 -3.089813710993627 -2.207633506463759
Ni 1.8782885405536967 7.165362285461344 6.93053350579893 0.2868101571858673 -0.01629410917433323 -0.40266792228815174
Ni 4.2889590808706 5.946372998049043 3.8491944457588154 -0.10686867422979661 0.6482915779333802 -0.5210667086447348
Ni 7.857224314955173 4.564061901279742 2.809470353152987 1.9754883449209397 1.6796854973181587 1.1063577744861783
Ni 8.469480237767783 -0.1297838120224858 1.7093545930261425 0.1406722530428029 1.7978415715363167 -1.7246137252894171
Ni 2.06358976219623 1.2713797100576087 9.741246896302183 0.20487475586264073 -1.9354758090837438 0.8298312586145064
Ni 8.987307803177208 1.6310940327188752 3.8377586868373132 0.2623998466623029 -0.8125673293277361 -0.5013309207787043
Ni 8.863410410226487 7.367305062120067 11.145076576502795 0.08625434041355468 0.3909030684427397 0.33324608005090356
Ni 6.341291320555879 2.8147962048609982 6.901284264374248 -0.1675629067860598 1.2841449301034078 -0.3617339030779512
Ni 2.1932128843978047 6.16262086278772 13.403752092827494 0.29333356012668194 -1.0535064350131016 -1.2910144035297315
Ni 6.001764811027458 5.334015489717466 1.8974494164402615 -1.2010003389634285 -0.5749855701503774 -0.2124620812915954
Ni 7.975026576767889 2.488318816996217 1.9793319622510526 -0.9106700844394445 -1.4908330850257034 -1.328348106983183
Ni 9.231463980490206 6.708643027234009 8.39738961248067 -2.3329765853486597 -0.49769718068085905 -0.21326169437475528
Ni 5.09751516651569 7.961977455104251 8.413541709996382 -0.34626306113586175 -0.284250109768175 -0.45683129570443265
Ni 8.749440692992971 6.236482770123727 0.6523147869600721 0.5172429640232705 -0.2557059795818951 -0.41161638973069103
Ni 0.8985331503080946 4.211929552352267 0.8925746978683357 0.11650825420208967 -0.44912801352290393 -0.4442570585838478
Ni 1.8361028450409582 6.225964051387079 4.788247289068593 0.2905948210392802 1.0494829156760055 -1.4956281924215016
Ni 4.579955417474449 5.668000970938608 12.86865037167013 -0.49358958627038857 0.12344406208997451 0.021720679506543238
Ni 6.230009002051392 0.2467281379522921 1.7405099481885273 0.5575205805963948 -0.826981447870537 -0.8943546351088727
Ni 5.558270140360159 8.087952733670202 3.7375214847586657 -0.9352791412373763 1.850988073652309 -0.26744152285126843
Ni 6.542975515893595 3.1044719297182795 4.130984363830123 -0.3902114416923538 0.18404470649116692 -0.6879984096046989
Ni 4.769467820630513 1.821917812574328 4.939347436989176 -0.9753513266679138 0.8534080174931818 -1.3067125309912786
Ni 3.7419580014233595 5.234443211035692 7.683465978781415 0.010791434188549156 -0.787653853915508 -0.30612428413344694
P 2.036992826321298 1.4485079149469076 13.162943620116808 0.2651480988314014 0.7494086943913804 0.6488186540814438
Ni 0.98444679421243 0.0695537578270989 5.117805488672221 -0.5868085309272345 -0.5713598004723321 1.5516227055092504
P 8.359952578227267 8.645666467844846 7.704388901669695 -0.4429622510318242 -1.1344288216907819 -0.9767996290786661
Ni 4.427706429684825 1.2956771191850198 2.353952574563613 -0.8725110568712199 1.569553578956058 2.676960363532041
P 7.299769162101535 8.805617484981585 13.263059843077414 -0.7714073101496586 -0.014788985383716464 1.0553614859439695
P 5.223102573100131 6.869536019182986 11.137899097835435 -0.2962232229696511 1.0370482894570783 -0.024721414006080005
P 2.9125491792485496 7.698270682913743 3.4041113469767628 1.3470253716777123 -1.2087128771163378 0.8571268611056658
Ni 0.9869033167619896 1.4825575338951271 1.5755553824903166 -0.18263857017225968 -0.5092910561660454 -0.41245122692716063
Ni 6.909126666438482 8.009898114915021 10.007250424726058 -0.1075944966522276 0.1443458452396482 -0.9050121148227188
Ni 7.122234615136368 5.394384993125253 7.935939239583637 -0.46319503313893134 -0.31074712761743906 -0.8076680922539059
Ni 1.5566780225521404 9.09740803564281 11.708792167838938 0.9446646962173344 0.13035390183593035 -1.385804035107807
Ni 6.840778082268216 6.825577194611918 12.6297609417632 0.8870719854045305 -0.42513730703526137 -1.0677855706399353
Ni 9.021846879625905 0.06500549709154207 9.708064448284052 -0.6964984766559101 0.25805211121656846 0.904310460770004
Ni 1.3990172971157424 4.7596879056681685 6.513686563766044 -1.5683209921005377 -1.023340967173315 1.19363772795077
Ni 8.166607630492004 8.445773871659815 4.575296336172747 -1.2734658531230068 0.002774734531659737 -1.4081255814231426
Ni 4.1826452177483056 6.856828594264963 6.262430482181989 1.0948027226587274 0.6654938007442797 -0.9684566564306095
Ni 1.191939834225609 8.205875051096243 0.3868293446829283 -1.4426796652489282 0.4817036334660801 -0.3501693381688034
Ni 5.3376725684002695 3.0220121934588136 0.9336401821582861 -0.3789713500021602 1.2182375287773213 0.820503039235045
Ni 5.039657595940536 5.56631386645289 9.517753213547023 -0.46743349670031104 -0.30672206561844595 -0.12362943862790321
Ni 2.3066746740364867 1.8798954387628068 5.839595535558373 1.3112597840423288 -0.3472843033115245 1.1237458880556388
Ni 3.3645493283675205 8.307469805110172 10.168906231572002 2.258975608381161 -0.7937113729634976 1.8555558955286493
Ni 8.65268510370073 2.9757169019515115 12.113866271728297 -1.2677942566595264 0.5945030713580148 0.6620423518605695
Ni 7.570254458921279 7.210133794184145 2.368578118780672 -0.8422028928059817 -0.8848477240597018 1.2751643238713524
Ni 3.295397295092699 4.360853923157524 5.31678012116768 1.7905090424306456 -1.3749989740725028 0.7556562179629889
Ni 8.94958263545183 2.404630819461971 6.037719620208663 3.1628011590949465 1.3197531662253206 -0.9412374157033402
Ni 6.302855054197731 4.269851768257673 12.385708196978603 1.1002737730756276 -1.230867815946822 0.012603547696623455
Ni 3.4487544885437784 3.3266948699816377 10.055328080338867 2.162800152199153 0.06566263230513207 -0.7918115848376234
Ni 6.422328859549809 3.382363734375417 9.491179365290039 -0.6637035416130763 1.1560661974548994 -0.8078704380726989
Ni 7.7701655252006665 4.309765642164427 5.583783805201017 0.24876631503926833 1.9033275064859736 0.5681348657771312
Ni 5.610346571401387 9.186840232522266 11.591753644427909 -0.2551429079895735 -1.0677259210465933 1.0342272750685155
Ni 5.479753769246039 7.275758039436667 0.8396431014583511 -0.5212813957587022 1.2430358187679238 1.3686954004519785
Ni 1.7769985430966666 6.118320341471038 2.031775948169997 -1.4638778965930983 2.416265415375987 1.6240044017057709
P 8.02163585987927 4.135749648174381 0.5730411419772908 -1.4672190451511893 0.18950033028909943 -1.241366658595617
Ni 2.203408376483195 4.201401598568439 3.241630850417751 -0.27186690561247373 0.8780623257067522 0.12281671291862076
P 5.496598495300161 4.9616676225156064 6.174572860846518 0.661843605586202 0.13604118202869475 0.3274078761025716
Ni 4.7391214556009915 1.0467187173390484 9.284581201348484 0.10777010299814344 0.09679329227166555 -0.04943485759236002
P 5.075000121493787 2.4640768181518786 11.136196155135666 1.6203686047253965 0.7128594345124368 0.6876155723439835
P 1.2226925413309981 3.1184630261941546 4.620332890749579 -1.149929231319226 0.09428466691719892 0.8981994627762595
P 9.336355646346966 2.1328526160371966 10.198656012553775 -1.2380393939945968 0.5214356619483794 -0.702054373477133
Ni 1.5401934633379903 3.250330264860177 11.30804376004813 -0.07359782799180872 -0.9909638363941901 0.2941444860637515
