# total energy = -340855.56669160374 ev
CRYSTAL
PRIMVEC
9.42535222655141 0.00000000000000 0.00000000000000

0.00000000000000 9.42535222655141 0.00000000000000

0.00000000000000 0.00000000000000 13.79495571276184

PRIMCOORD
 96 1
Ni 7.651444204063427 5.768824394949749 4.328015133379182 -0.7384185139284638 -0.31531752059694085 -0.7723897286675859
Ni 0.9825552449227218 1.771937900540423 8.536429147584506 -0.6878426007531251 -0.44917969269644575 -0.39159880895818366
Ni 4.976632984435103 7.813032438805816 3.8805069605501537 0.9139086459814003 -0.6113543385873988 -0.7096442700092488
Ni 3.364746986260552 1.038899999197687 6.610169958696141 -0.9484177355018635 1.2905929997215966 -1.4839551269589475
Ni 3.5826988259819132 5.836441870220509 7.199380758611265 1.245300189322068 -0.12105345037061087 0.08471373539931217
Ni 8.125935274607137 0.9268636675415763 7.950722693544162 -0.7264785679577681 -0.4182153831044475 0.5902401823166028
Ni 0.19058533018014978 9.142610293781344 11.836665254594546 -1.3119228715476243 -1.412943057416444 0.6737172170953365
Ni 2.9735571767208806 2.978081345682403 9.207608463730422 0.11380113968357176 0.07530735448374772 -1.8681188197953247
Ni 6.0878631349051355 9.419140696202422 2.0982266212566496 0.35213623208718714 -0.6382596476186749 3.054989918446222
Ni 0.276627483546711 6.847970647200983 4.528014505140101 0.5531980419616409 1.144127022815152 1.2481512856176182
Ni 8.836060145230162 1.4633424506045518 13.017319720314346 -0.14631042516518672 0.5694427859552773 0.39692227805362607
Ni 3.342710513277135 4.204828610303318 1.0895339326939302 -2.1597091719786548 -0.39054799909616605 -0.46867636796847667
Ni 2.763758266482263 7.882666939405255 5.945501675714018 -1.3009692007495983 -0.2983927198171442 -1.9532177064481975
Ni 8.219010625638466 6.823964275648903 6.490416148819833 -0.3476640552484464 0.679334563282114 0.7335269901641173
Ni 7.274646907032599 4.284736744586215 10.485476952546144 -0.6188863852983858 1.216613105800021 0.7994937839732296
Ni 2.5563439703004494 3.783373995481459 6.937717906439992 -0.9856092569504962 -0.915055872211966 -0.5822419946024747
Ni 5.3788127544104745 1.0029894080655997 7.574644550871176 1.4177844446691454 -0.7108591162529564 0.0399495438097441
Ni 1.307918396072237 2.169791433946338 10.893835040759596 -0.44279718620886965 -1.8899372012219966 0.5503528592033619
Ni 5.8699678472957935 6.691858541972437 7.405808220438348 -0.04669637561527442 0.17062971863684165 0.03980916157713789
Ni 4.74064102097967 0.5467411063240295 10.164578590640533 -0.7653531335357786 0.6698397364178013 1.4666917118928096
Ni 8.670532113350445 7.191769786868704 0.08051889709270214 -0.7834477862539604 -2.013293074473539 -1.4789741288045883
Ni 3.6325683634306993 8.050315675485685 7.953674713791556 1.757677597722921 0.09359252594618074 -1.318130028799601
Ni 3.345717200566147 8.083983032841017 1.3587738253405546 0.596069130293554 0.3401530915833819 -0.6259291510777801
Ni 2.5749213390987022 7.822231582360914 12.765341417326333 -0.07466149336963271 0.6265269325627791 -0.6523426080743023
P 7.351020534314306 2.5192646355199684 6.810183468485064 -0.9435151559939234 1.067991001782522 -0.5422384576263436
P 0.9693974535262929 3.78352480111351 9.107416029401499 0.037404151680071065 1.269888934405026 0.7507973472087909
P 3.2058826782470793 5.888102224549897 11.977980499713311 -0.2412854332811909 0.46956545544164935 -0.7050623070655212
P 6.4879410513838 7.140722080419521 -0.20987902573064393 0.4173062410266168 2.0052614624183143 -0.9253564828070255
P 0.9958072898391823 7.643413804156725 0.9679827081906167 2.6754210440693793 1.0420066619036183 1.2763760847912664
P 1.5205731879678153 9.314443886151182 4.844029592172869 -0.05961899721421345 -0.06019620987392213 -0.30785360811972784
P 7.702086620376472 4.478993249371601 2.5584533640787592 0.8106269177719136 -1.985624404913677 0.6876423118168609
P 2.225589517805119 0.16160143023519402 8.08446466832838 -0.8769665215394121 -1.0924519630383636 0.6003687861101725
Ni 6.420493232449097 1.8928651667411263 11.537328327931391 0.11398368800802304 -0.294349402985706 0.5919083140476452
Ni 7.492212307321831 7.901536494115606 3.2270680419446105 0.5514391502890051 0.49568734933968184 -0.09533779077206161
Ni 4.854301340785927 4.353494687449358 11.803018633013622 -1.9593906680281288 -1.1150756139751505 -1.9286245904898656
Ni 4.742592068844326 5.880524241539347 -0.11551711415088231 -3.4734007053909277 0.5650150892012269 3.228428567286769
Ni 4.933596827188617 3.437180816404933 7.160326812586121 0.40539714829385665 0.28680167254543504 -0.45212412003675034
Ni 4.951090280506505 8.70937398895552 5.961683120033064 0.30071853973684337 -1.4816395914518936 1.620847601244344
Ni 6.890799446703398 0.017406740079459 4.833034919061168 3.643713664118299 -0.375229880681857 -0.8026490417727595
Ni 3.5144687028309476 0.17768390835820724 3.4664239135299764 0.5042969453855638 1.1015372131690835 0.342354727220391
Ni 0.605204679729308 6.552928853445674 11.02501143472855 2.002042955481017 0.9906784439432873 -0.7111331958499495
Ni 3.639712780249104 2.468707047374951 13.099303317108342 0.5035968339947456 1.161558073807406 0.035261651415771526
Ni 9.462110875984886 8.621576835045968 7.0422007610007595 1.4902057358543497 0.33001034672242524 0.307673888008754
Ni 1.3736036741823463 3.023879131065818 13.180472563489262 0.02639983014976744 -0.15630558870468564 0.5749655155457195
Ni 6.310395695700039 2.3300789701122895 9.155615394475321 -0.6192699938900496 1.0375982484232775 -0.27146992728437114
Ni 8.900218516315757 4.1161266226014614 7.569568056282268 0.5470837015337868 -1.658503463923905 1.7343625771460647
Ni 9.144137200805858 4.188862064009944 0.6008209485126325 -0.9873987447507511 0.4887147746765906 0.5503163495384715
Ni 7.903704325076337 6.865200190662782 11.717835129214548 -2.317438380503744 0.42872733837936483 -0.4847388207479781
Ni 2.193760104090406 5.517054392241006 5.1822960502147275 1.805575706955781 -0.3351204142554809 -1.4142856874872676
Ni 1.9818593403550813 4.290665290996211 11.048504124596457 -0.46947238150721077 0.14740057290557196 2.383648914892546
Ni 1.2970980919725947 6.231684581121545 7.086620559921311 -1.6091246563804609 0.2773158445421869 1.6937751426420056
Ni -0.10655171932546463 2.4548612052822905 3.2562574145632355 0.08123606126335686 1.0249198816246607 -1.1329087855018296
Ni 2.6363746341593868 5.773216608983227 9.584279461044407 -0.08606742121372918 -0.11609816324786458 -2.2242477179816724
Ni 7.0442724533710575 4.8999294698332845 6.44967977746212 -1.4959673209284752 -1.9974036569367923 0.44365310645126177
Ni 5.1293331122385 7.182608344721619 11.965343930282659 -0.12171628076559038 1.834146319504622 -2.312293860188327
Ni 6.34376144179127 0.411038658323153 13.843375478041192 1.0209148742303258 0.22665662762442254 -2.901028147383365
P 5.2710338542541955 3.7253138271419166 0.18880865132755179 -1.510157239275612 -2.2999769904941876 1.5440109546002634
P 7.25524953261007 9.417415856785842 10.530103166675564 -0.1641119721229819 -0.09579750401729954 -0.41923919638327156
P 2.153513851036859 0.3235355753961 11.665565897145756 1.762369860992268 -0.20929139687309764 0.01931412694757964
P 5.173707669469437 0.9220331746399505 4.7367181894759485 -2.9445327555342193 2.9165308710046545 -1.4326960716736552
P 4.031873401045103 6.444565581465199 2.6252630866828466 -0.15444436712623077 -1.6935496568947608 -0.4397085199812169
P 0.26214543019383646 7.024893929652534 8.906092395684134 1.914043350241581 -1.3699359577272987 -1.433817329762292
P 1.297211196196633 2.0963867925456303 1.4852337731671204 -0.0003581546703671251 3.349644511377173 0.6033947174206898
P 8.003075811245784 3.25665704948817 12.540152792336935 -1.012763705878101 -0.8112010451078288 -0.04924999527506357
Ni 6.562099720944761 4.899976596593301 13.019816496059986 5.58169938410809 0.8183811077960357 -0.556583413494106
Ni 7.714876823044778 7.29939788139293 9.220272366681884 -1.1227693830749823 0.3297046425565483 0.4561679510888208
Ni 5.223322722414136 4.529899575540735 2.2351411695251344 1.3857294731161298 0.9971604521232053 1.5469044740979745
Ni -0.25928012318487204 6.445385587089476 2.331402289533535 1.4035240780953895 -0.6609511756789197 -0.13527679305884444
Ni 1.580169688683875 5.862446416397262 13.661737634517653 -0.23521840115150458 -1.4097572034892947 -0.18695416682847804
Ni 6.814755706741803 3.3949458140787168 4.406163554443086 0.14756075263252005 -0.135925739496753 0.3548307482002147
Ni 5.003033395395989 5.921072105856995 9.814531385129909 -0.15153002169291324 0.8411849930644287 -0.01861967198371632
Ni 5.552569118588959 8.28919179665409 9.145337990651063 1.43681266494519 -0.7526477701539682 -0.2099825094028513
Ni 7.049531799788827 6.150928165158363 1.5570370472624888 -1.304735609770566 0.783792828298205 -0.1298391669830409
Ni 8.55678696537616 -0.16625001384315868 0.8245797476031482 0.2529255886232805 0.32833218768905387 -0.09328245090492968
Ni 1.769487309019598 4.881220146106987 2.8133846298493674 -0.4041326797591363 1.1813380846478105 -0.23578944316362618
Ni 7.300566625041324 2.5922734121365427 1.5218182769674342 0.6201457116267834 -0.4824307414400918 -0.6847241097288015
Ni 1.4166586821328382 0.11772170398442437 2.513151352210711 -2.7445580080763574 -0.45323766481590333 5.458121624653729
Ni 8.467378076274064 2.3657350767402914 10.004639792498697 1.2088342331855504 -0.9914070945791957 0.30253733811313704
Ni 0.9507541072640178 3.576826831683937 4.883207010309256 0.8209946341594828 -0.6968658872976579 0.6410225550757928
Ni 5.435939812901703 2.2487758837329235 2.7722203475107117 -2.327243025298992 -1.27054482282147 0.774691380217569
Ni 2.6263272089240046 2.793853415428393 3.2951454743931246 0.5317624977956842 -0.9993134939104661 -0.34142733031011524
Ni 4.201237551190109 0.3437576681189066 12.953132130637542 -0.6504819007164798 -2.2892074106825095 -1.9710591055049924
Ni 0.6174350164886246 8.934517372255302 9.590336192241645 0.10399803755022088 1.3383556118178563 -0.22713948079811203
Ni 2.971870038712312 7.932743834598111 9.911193082598444 -0.6572780977027067 1.5241167867794976 4.121675056933127
Ni 5.1249691742610315 5.584341980191654 5.087496802302018 -0.37071476642032286 -0.1958365569197724 -0.15214991466509925
Ni 1.77894093707878 0.3395181447878796 0.570590074497657 1.2032284569629987 -0.17412667604650656 -7.443080628069264
Ni 0.6674251984430511 1.4549633126737314 6.256494935199496 0.3959681416704729 -0.08039788163277767 -1.094007994671574
Ni 2.216786239034156 7.461890949927625 3.3504223362861305 -0.05706332067189526 -0.7970116409813242 0.5632788232364107
P 9.266195509246943 5.044947935754097 5.783080239854548 -0.03994620137563443 1.0936907205414714 -1.3667999832014783
P 8.402993496740393 0.704629890405174 2.660867353874831 -1.706191256918171 -1.15910652694312 1.3836913596401783
P 9.008506385480205 5.010630229110546 12.005281031790501 1.342497916121004 0.9489198719492625 0.4248007496314491
P 4.383947999771609 0.876344723339772 1.1488768914411047 -0.4716354505968007 0.29950729303756163 0.9876437708820217
P 4.437408596333603 2.585647389678312 10.502816772626382 1.7264237819149622 0.4910632203041091 2.024537537039107
P 7.040144149193667 8.699279436960122 6.846284451727615 -0.12987850486140856 -0.8307334587138016 1.3313966640015198
P 6.146328593380814 4.594425535354454 8.690021856222605 0.3813552768533045 0.01984505975038518 -1.7404758891326542
P 3.9211726417678414 3.7635901816268005 4.829986760223343 -0.6015504651230994 0.32245336031077365 0.839516090002438
