# total energy = -381176.29330949095 ev
CRYSTAL
PRIMVEC
9.17085457216393 0.00000000000000 0.00000000000000

0.00000000000000 9.17085457216393 0.00000000000000

0.00000000000000 0.00000000000000 13.42247267055204

PRIMCOORD
 96 1
Ni 3.3654192239770793 8.45567437907412 13.017691078946573 0.9922491308645168 0.9476572031867552 -0.6812664901975041
Ni 0.6395643724050063 7.290875006220956 0.8337929780983705 -0.1621409644395401 0.006288147001556913 -1.6557968636260194
Ni 6.183622743969658 1.4053141971789873 2.9639504045390477 2.1549564877850176 -0.32211191781095494 1.6313888670953
Ni 1.4705006293954115 6.331493598367186 9.16293157817005 -0.5218478097851335 1.6064604792847366 0.6598733692337087
Ni 4.0013446014041065 7.474741463664272 5.761032530041242 -0.4635920114670338 -0.12924395660120322 0.8840175148489227
Ni 6.093060557962738 0.28257511330643453 12.226167485306377 -1.9219338087332514 1.3917499682785965 -0.20150609650072393
Ni 1.5737461068704408 1.5419415842302382 2.6016778162902394 0.2592330188985471 -0.9370825129947022 1.8643621809663697
Ni 4.549000506394009 6.307878648598293 11.955275123266194 -1.529445912301895 -0.6573305482071969 -1.0265589598899805
Ni 2.6565580424677195 2.2766278913897744 4.772386926182603 -0.13857500419414198 1.4428264752394377 0.4206949549931916
Ni 6.634489452897075 6.231622995266895 2.662467740965224 2.9484482885385415 -1.0467675736273714 0.007873489210805796
Ni 2.7809148264934254 6.311730407395549 13.695485074499777 0.2867916452431061 -0.20544862608823972 0.03614611090325388
Ni 4.023171234588559 3.7480089227959876 10.709790574464787 1.0016043468271716 0.29037344905709345 -0.3944061964999917
Ni 0.529729636130385 8.984209052891927 8.86742189198826 -0.5842808794093743 -0.35705475243472706 2.3108383586887236
Ni 3.6856196011347135 5.928838070385429 9.511110397562613 0.26042883897886115 -0.3698159087551373 0.6411505960132249
Ni 0.5088081662632875 5.596211185679503 7.039885232137452 -0.38549449583265866 -0.43047157476398124 -0.3280820193514608
Ni 8.78532990699359 3.542572616088035 5.935726299034522 0.47907468048366525 -0.16158277794322493 -0.7930133184552084
Ni 0.5939512944766396 8.210500760774474 3.466849789390259 -0.8387822971602069 -1.0119273260197346 -0.6676764102178953
Ni 8.922204907110379 3.4096135707484567 10.841169481612063 -1.0428841794125652 1.859084220396882 1.0473301309990608
Ni 6.642303020742938 8.801085434645225 8.813060736162981 -0.3333399253162904 0.12485199818109466 0.36092709090593966
Ni 0.8222908926614206 0.6658737191611231 5.187516650154904 -1.9012297434166805 0.7112375826382977 0.7773835823377515
Ni 6.523806412601629 4.368307164531289 5.396880833750631 -0.660358022179611 -0.7722298060509539 0.40588411523260415
Ni 2.5113008815397584 1.7231301522240337 0.601132073377239 0.9386205469057836 -0.9794188118690681 -0.31952487381006905
Ni 0.21673846752161602 6.535948623667266 11.758863854254384 0.12873693505779762 -0.8836269642787234 0.29360198329672016
Ni 2.624634298721887 8.993279027774038 9.517445623698672 -1.9598719785399215 -1.3464869826757393 -1.3769818088304866
P 3.6071904553391505 7.2431223679892565 3.5628612970098694 -0.15382781658815442 -0.5112103846759453 -0.7041991877342775
Ni 0.24605860573758828 3.9190912093741246 3.1282141609606136 0.43532376064996 0.659951787880128 1.0211195340419639
P 2.5992310323685537 7.371395106792173 11.181348564816894 -0.28025770077933027 -0.11298712842270864 -0.33637742659103353
Ni 5.436372366447642 6.340050005409663 4.455375255057841 -0.2885893605734771 -0.43397213171807203 0.566190854676883
P 7.541028398394199 3.0249329171538957 4.09492766681059 0.07971936750851431 -0.6172100260372274 0.4286221802600683
P 0.9114728650993245 1.8209648256743454 10.393114556606644 1.7277245030042567 -2.3718845752677664 -0.33468204116648165
P 5.773648874273114 0.3852409927910193 7.068877970855658 -0.9572582166116288 0.5917828442133743 -1.2542625407216785
Ni 8.919985560374817 1.63663982551707 12.307467108491325 -0.16228777443004952 -1.1322402986798952 1.3742638956786914
Ni 7.399595483700657 8.287572620136718 4.320438973535671 0.2695688536069164 -0.6647602650123647 -1.0253690533469373
Ni 8.273908047260736 7.056183674362415 8.316093976944973 0.5567685329217185 0.9748533039855726 0.20661462137188286
Ni 8.729827896895983 5.228038069787469 9.74019191785858 -0.7108848272845693 1.2418572250787903 -0.9645696626713777
Ni 7.328704780122582 1.1157169607509831 5.390451147815496 -0.2677860506748807 1.4603675694469946 -0.5655547637547809
Ni 4.000326636579117 1.3084516342822685 3.094779060429572 -1.2217000334046249 0.4611281233075736 -1.153088602883814
Ni 1.4974262575590895 1.2974557800015294 7.345689202247626 1.119393267513898 1.6011737769645005 0.47848229831530503
Ni 7.988795358575252 6.024260809160316 4.929524011743816 1.3603444573841217 -0.023308592818953405 -0.6288129003834785
Ni 6.226670733956137 2.449920353849194 7.738605282984892 0.5232410905882343 -0.17737835021458484 0.3450872956602057
Ni 4.5771000039054215 5.757498999887474 1.9131585066575325 -2.0501799201975595 0.29905555021212366 1.073407544812403
Ni 7.7795072930700435 8.354281414163486 1.7874572753944988 0.2642435847392611 0.01677567679644208 0.5293600590017786
Ni 2.4303222382545826 8.50981910273841 1.6930167351129124 0.9018949093499758 0.20178763229688476 1.2785296407991593
Ni 6.681838573540491 3.922044224452021 9.591779065973153 -0.5305167983140412 -1.0704080958644469 0.6201243714705449
Ni 7.760853775466188 1.4622376896898688 10.179132847881348 -0.09309116082973 -0.5557634886959719 -0.9493818991873455
Ni 2.31455854468847 5.163420230536354 11.554775663125472 0.023790160441062257 1.5533697701073441 0.1762036131801933
Ni 8.594640333966563 1.2505101769463978 3.0208078668991196 -1.328573335620112 -0.0013418587398751085 0.7901300833701423
Ni 4.343371611746194 2.5885011328619107 12.60086933235976 0.6292764702834581 -0.7497393382579217 -0.02656849451714779
Ni 5.421616461912439 1.7859688457449876 10.437931604383579 -0.6849308264229689 -0.09939113490582883 -0.8065571185779142
Ni 1.9054192227313311 3.934571611397384 9.715145397736707 -0.8921463146036442 -0.9953383113128018 -1.4694553906808756
Ni 2.0266120620307193 2.9131218617821104 12.189296065676928 -0.937797536783856 0.025313796174440274 -1.1220157927384096
Ni 5.521670482098313 8.195643976842199 2.4364199392648107 -1.449449379872594 0.9848381831124264 0.34799958421099425
Ni 2.786298117955305 3.5357770130671615 2.471412250852457 0.14634462083723185 0.40034518769224603 -0.7321311382578553
Ni 5.698970607877736 7.152752769922198 0.38652582947553277 -0.6035312429985541 1.3148022499779486 -0.5195158192178473
Ni 5.556409678107854 4.663397742672522 0.12752989960630262 1.7106750037211378 -0.5517461400064627 -0.6329341216407035
Ni 2.595544348948323 9.019085811715657 4.238856888038925 1.81923880626517 -0.8185903955933644 -0.5022264360097802
P 1.5268188455238674 3.4860984954368335 7.542315069249569 0.6895192171245995 1.0227336726066194 -0.36479068762640404
Ni 1.972494850929267 8.13791344915475 7.019456237145147 -1.0561672696747166 -0.47812902874094426 0.3518734653441037
P 6.320369352126539 7.315370358000652 11.540681894269225 0.366660136734975 1.4013162718107932 -0.6293476898410257
Ni 3.9986300285374687 1.343823619237073 8.491874492170336 0.9837380080697123 -0.5715505763268995 -0.24368221564814166
P 8.185436816029469 4.135743470865516 12.85880877981603 1.4641949136128847 -0.4185570827145824 1.2459666192614733
P 5.18161520542625 5.620550632936452 7.48937723000842 -0.8408090977822487 -0.15704375242229082 0.02400587599629414
P -0.18909017604073863 7.861357167511741 5.716268673219128 0.8918907469494124 0.14077792538273173 1.0758408368442438
Ni 5.966429402075795 6.296965332006066 9.641133852447426 1.0126066114749463 0.42916442591678344 -1.244386162148231
Ni 6.689331161486582 2.852575881830952 12.130962095777909 -0.08214134668644563 -0.9006553805159198 -0.1721117024990068
Ni 5.240684677838461 -0.1070724749657317 4.531466750097641 -0.5258281345891203 0.07482630108227113 1.9970899823511155
Ni 0.9925248752187336 8.779891590406036 12.003287296673992 0.7819292927269049 0.03841459522245642 0.468434941381632
Ni 1.9023011322764094 6.567569729221884 5.201529715493494 -0.8126406057678327 -0.571273668516429 -1.2612191745451697
Ni 1.0645069104560316 4.612710431071484 0.1197814448258219 -0.5660347887149929 0.30789911664568265 0.8301490469652413
Ni 5.1701699792858316 2.5991851780971578 1.3927693856104943 -1.8656950408451802 0.43354609992424686 -0.9508525701956012
Ni 2.8342800275439846 5.813798874307372 7.296469227331257 0.9883001735190979 -0.580199253140833 0.05264205167574805
Ni 7.350357167075729 4.981433798220269 7.610272933629162 -0.43108709686079305 -0.4512679426840422 -0.2273207435709827
Ni 8.474593851452072 0.5713809050101452 7.297140533864493 -1.7106978865392728 -0.19337138320873148 -0.9577235862838215
Ni 8.186463951708738 8.289342595012599 10.605780247742874 -0.3135647995718922 -0.5660481584514316 -0.7645902872278252
Ni 8.74264875117828 2.9359114346658775 8.21181494419268 -0.4045995920932258 -0.0825483523168772 1.2508113489482846
Ni 5.162980029530953 2.250032413980147 5.603721198248725 -0.08501044070412456 -0.846050548686846 -0.8519414602499843
Ni 4.915174376053181 3.9919719883307825 3.4542728798317883 0.8139845213902369 -0.7809440459955002 0.7445040580009112
Ni 1.9729258810803885 5.860166713542915 2.5256661076826687 -0.2893434651306823 0.53740452657281 0.742483942247089
Ni 3.9561873149334152 3.615334173939064 8.332684052336013 0.03214470305334464 0.9388169791873057 -0.7182335543401566
Ni -0.02196878142578009 2.652834675630372 1.1320245738302241 0.7854020817668538 0.4901497073509043 -1.0505553228045779
Ni 3.4926739979550065 0.6496275508055526 6.302615495327471 0.9301893854192947 -0.38088425075415694 0.11113979080132472
Ni 7.712770986480438 8.143452645139375 12.872150538621385 2.6903763798276312 -0.1908686713915358 1.1756361491670266
Ni 6.797015332432735 5.219215707970896 11.584707497321864 0.927740666768486 0.06338592045581341 -0.3314941303568033
Ni 3.086093344341759 0.9657918349949185 11.311076718193917 0.20426154775867403 1.3645577241345208 0.45978960700180815
Ni 7.218150131787044 1.470463945978295 0.7622208800473518 -0.6676090473150696 -1.0971899919439814 -0.6526405989306953
Ni 7.551850006443634 5.878682668332583 0.5512270356462151 2.2874066100283446 -0.19849996268454848 -0.18492016711758474
Ni 4.266565707158045 7.866896363496368 8.093844743086997 0.685213133550078 0.04334777085801567 -0.8924561325345792
Ni 6.589194603612196 7.115986815116959 6.611560483028264 -0.919876690639377 0.9605566848572424 -0.32366872077511355
P 4.905737566999903 0.42873652046632293 0.9086253148456385 -0.17093336592018948 0.15839615268512722 -0.6401787190182587
Ni 4.189833169404131 4.28399950114277 5.7907635225289225 -1.0558831627753944 1.2820960179941792 0.07564005523281812
P 8.862392595501555 6.391544352187269 2.4323535824774214 -0.7986203802293407 -1.4137861221430297 1.1886587866789398
Ni 4.594772240101404 8.498896615291905 10.274271290173582 2.2434803409590396 -0.5800709550930848 2.1791222863979436
P 2.1762804038669668 4.459318722397889 4.516755782748405 0.08606896387562596 -0.27762000604616704 -0.7588536418543641
P 0.41624581693807733 0.334602286717661 0.9428463575884055 -0.005492647683455056 0.8283443896563346 -0.4380167341010908
P 3.5924253799496677 4.279349878023225 0.33944633194792484 -2.5440050195175217 -0.5681418077556667 0.6490217712311854
Ni 7.103404403045921 3.621662063391699 2.0968855671158058 0.31982594999025565 1.118905272133886 -0.3689203935240614
