# total energy = -340891.0315586769 ev
CRYSTAL
PRIMVEC
9.06625598008016 0.00000000000000 0.00000000000000

0.00000000000000 9.06625598008016 0.00000000000000

0.00000000000000 0.00000000000000 13.26938205804736

PRIMCOORD
 96 1
Ni 6.641077890706539 1.9085284956344912 11.739077187800978 -0.3553434261705751 0.35990893405407054 -1.230047634038372
Ni 4.355257149392152 0.45181959031914815 6.115951273812984 0.517420113031083 -1.057543581196953 0.7270429251016705
Ni 2.7942019832765297 1.5129314789819233 4.660936851754101 -0.551618870399979 -0.02744884023957208 -0.05663240378206376
Ni 3.2068526275663403 4.188193249088332 4.750836940158218 0.7735652370329258 -1.6296562006749093 -0.1396353271378563
Ni 5.060267352649634 4.511133289725552 2.777825604966506 -0.6327466882202457 0.060240689958612384 -1.2829491100230936
Ni 7.188063250945865 6.1628691488915255 2.8174478637985345 -0.23223283616061938 -0.1977800537993884 -1.4114579882304852
Ni 4.925588118970074 4.752649284743377 11.45077387179179 0.8939903097909184 -1.4340243035667755 -0.43618173777488106
Ni 6.042106618254586 8.033818013182914 12.362061346037091 -0.6438307139485492 -0.051488397687279065 1.2417325265754677
Ni 1.811129706848257 6.750598263836737 0.4923339687468726 0.8646177701660723 -1.3543697278579254 0.11583102562940696
Ni 2.733439935203799 1.6263322097031572 0.18152367208406395 0.21751687010668347 -0.8462256408121298 0.7929061034533829
Ni 0.7385027663715197 9.068341292716639 4.452408429388116 0.33479516970557827 -0.4667488119284606 1.0730941273370422
Ni 8.427103134541758 2.6733034587987827 1.5316977223877342 1.0610410528272503 -0.48781026058445026 0.029210560125685178
Ni 6.753055219227322 0.6897834262150843 4.791149141075941 -0.9877586991933311 0.45408972840355344 -0.008789059046539703
Ni 0.6985350831838408 7.292669713294888 2.5901033336184427 0.8687816717357747 1.516547201962356 0.35156030497905905
Ni 7.627069501584143 3.878036629487004 3.6947006128177806 0.6768843019694084 -0.3023537613474212 0.8119410085976467
Ni 7.837479172081296 3.8958699551448768 12.683830933017763 -0.14504081442414374 0.2092983388516331 -0.039887837333873244
Ni 7.8678057985813385 9.050172515584775 6.987895729912717 -0.1900829422654468 0.22754777198012424 -1.3080605603787407
Ni 6.94192346534059 0.8297573534300771 0.6137764685878485 -0.04020691123618882 0.1517323675117064 -0.8544727113122703
Ni 1.6591973878982702 6.458501626294626 9.38279350443627 0.43085235514216763 -0.05938708370906546 -0.9752813926619268
Ni 0.06494975174399162 5.22997859972117 1.7738773673486985 0.20170407144414293 -2.345884551659579 -0.9841540125612082
Ni 6.593099263669702 2.071748303371489 7.005079005011529 -0.8360828959511729 -0.4461352494431671 0.567410586016597
Ni 3.272456056371813 4.356907207993948 0.617115570692472 0.6053312723217704 0.7291057211679701 -1.6773774180102723
Ni 5.9164301768364735 5.42117687364027 4.702642536227298 -0.21753563915976082 1.1089088230428064 1.9558690280281157
Ni 5.704261652664879 2.7453348631464167 9.42867873295028 0.40202257539466896 0.5633140473497202 0.28022916153423993
P 0.2999126568861119 5.4992917358000195 12.579215404412686 0.6384290833170037 0.603924878892547 -0.12637897634858236
P 3.947076169336876 6.233604078623462 12.674290511772325 -0.9596822526720893 -0.1588234700305329 -0.2598559971945267
P 2.55561438896409 8.60889970093304 1.25087588087416 -0.11330208855996617 0.9088345738926024 0.925412789966258
P 6.079350798123696 7.967271693747844 5.932701386576272 0.8923643441517213 -0.6422001203236617 0.08699713211685017
P 4.781262388849246 1.1617047194567716 12.518919361901121 0.12517775695162955 -0.9496950595523901 0.49337129961199544
P 3.9789621918781757 5.9296941094432185 8.498429184168403 0.05093329651475745 1.0336096960891747 -1.3475588755836791
P 4.691107538650018 0.8937805338053677 3.746769027960499 -0.20204217150985201 0.23687187759452755 -0.5916506895108843
P 0.11096190784275511 5.817961569835888 3.9731978662791545 -0.7389661589018177 -0.7196833994128057 0.3726114692224034
Ni 1.1346147463679448 1.1044603787329252 2.385635687338966 1.291209036039041 -0.4571128315005934 -0.5997427224903994
Ni 1.939281236169063 6.156939817432324 5.167614544203729 -0.7832274427130381 1.606746900176904 -1.6102955367601106
Ni 6.1576560516605765 5.656292091884095 9.346979073146846 -0.41362364996870704 0.7259196101305045 0.006597707822175734
Ni 8.634112959018728 2.335123041735084 10.374506829509441 0.3470760439554603 0.5421225008737696 -0.6078470967650887
Ni 2.622876942627412 5.042225503102523 6.998869526240265 -0.5100541595843151 -0.9320650051754529 1.7253323486229966
Ni 0.5598929889831548 0.12038084125707314 9.073085664509605 0.41109265601673717 0.41754406806903577 -0.6721778976326747
Ni 1.3918878944073156 0.8568509530213254 11.392414381573323 1.1615567882558253 1.2155635814895838 -0.2244259385216909
Ni 4.233660523198261 7.046656855274368 1.3746810470427626 -0.21434927101197923 0.024911675640015164 0.7775671591034673
Ni 5.42862026986046 7.774350831178518 8.154897862781738 0.22822860009723273 0.4744898893264603 0.29784378929220967
Ni 5.068617374475206 2.5946355550197495 5.054626328132945 -0.0015148939826296489 0.9796000746419388 -0.12764267355235437
Ni 0.4214956836959221 7.493686742520281 6.957601741934468 1.8636800672976808 -1.0176799122327957 -1.0227616976310774
Ni 5.230123659818031 4.5123300355246565 7.259798188720539 -0.5110720593258682 -0.2823783466667588 -0.3298321692733481
Ni 8.128950237955692 7.459942137487947 8.82379444830002 -0.2089556108002337 -0.4863143927652141 2.3366566053034084
Ni 4.859204992143973 0.12296744410922919 10.497381797806922 -1.002904296585518 1.2539221266631242 -0.9513737328063938
Ni 7.9140437044558425 7.6297893784002895 4.590277171947411 0.00820079064323749 -1.0682206012948248 1.1950677755290773
Ni 7.25198942238138 6.3751646006478735 7.0692635647445785 -1.158188643114541 -1.0605988230835088 -2.0338760408312133
Ni 2.428659605442389 5.241583407470066 2.557103068208128 -0.45849248545693944 0.4366414510201189 0.9781756834905863
Ni 2.3350777104548146 5.276624487118096 11.411947630241286 0.20379694941742968 -0.20930708060238146 0.8266546606587376
Ni 1.1482322629607888 3.0620917171549284 3.6735617302026844 -0.8448177047210096 1.1188548785119248 0.04496473763614837
Ni 3.5127390405663173 2.6380719877736216 2.3884489465924674 -0.1642703520777171 -0.29284479341572145 0.8108133227511068
Ni 1.254860500409816 3.239291691726924 8.39438392306911 -1.0871156384271148 0.2898782545882298 -1.3921307486567833
Ni 3.4680786632451786 2.5684431412802513 7.154240676111468 -0.02349165536403696 0.26137860448664013 -0.1354634551483538
Ni 4.104656765808395 6.875440609697897 6.170846547593285 0.8363587753203789 -0.09541569519784857 -0.07791625286150451
Ni 0.9844866123726688 7.501057608692039 11.710190282762285 -0.5673643061596938 -0.49959491192420413 -1.1141564445949907
P 9.17251257477508 5.5613593247445 8.103492190956555 0.5455541522631379 0.5016163132296071 0.40953405328036563
P 8.537267211851775 1.7992891764419625 8.118128754729847 0.30806700968211465 0.40637288194356463 -0.5039799283657772
P 1.9322548877273493 3.210007684673071 10.408065576292671 -0.60143553681179 0.09532390681499067 -0.2619306203353683
P 3.8838934308977744 6.036802858463099 3.999790101910626 0.7505181254054751 1.4837728357448126 -0.8516277856643075
P 6.9416877426831896 4.123623373472996 10.653310522425434 0.7382367369349608 -0.34769516559669794 -0.024098178599784303
P 6.559309327357098 7.9240075198589945 10.284500665909496 -0.33333041223459364 -1.2283231951480975 -0.6999391269063429
P 2.355513051600135 8.196856495798835 5.942201916295074 -0.1897139889618023 0.05434874995420963 -0.8645763754051755
P 6.921551587987647 4.1928170396757825 1.5382662248987298 -0.6988073272947449 0.37439041549969715 0.3436173959828986
Ni 5.219733730380349 3.128910024271613 0.21079498637944097 0.5608172490697955 -0.8109020258101712 0.4352761952414762
Ni 1.488352858820006 0.7748847452899111 6.830175513097968 -0.5133148326134579 1.9937835436857019 0.48465808810871375
Ni 6.9063384103293295 0.6739383305098157 9.026404418714069 -0.44215132509475463 -0.31968042555132686 1.1006098162588076
Ni 2.741581433140133 1.4341638463862982 9.37780434372985 0.9290606711314903 -0.01611953126968192 -0.47155214685437497
Ni 6.036267949355923 2.249755174732275 2.5365879440095345 0.967059776083083 -0.25857661626147077 0.487001905750542
Ni 4.238420307626519 6.735874664005325 10.493892195851805 -0.5689553047958975 1.5925412981004832 -0.4759713589679931
Ni 8.290728510980133 7.136711976657004 0.4957292816390298 -0.8819819724761327 0.2709333380546108 -0.34480961651878683
Ni 7.54982500000556 4.13823817823176 8.15039918652783 0.771532265763297 -1.2751931202267588 0.2974334412276684
Ni 3.3182043844194102 8.37040276918114 12.280826785169221 0.10107854991058077 0.1894666488376866 0.3548898835729242
Ni 0.249577709900885 4.724244704526745 10.297305845959917 -0.9476222361837615 -0.3617519008000802 -0.12644711058235641
Ni 8.658945434350152 2.1998182363878107 5.599453919431459 0.19138777711979943 0.18652556393149167 0.3918728885551767
Ni 3.666647803336038 2.687519348291179 11.454529115049283 0.8893291568698232 -0.003313637754265261 0.39814380916555303
Ni 1.2908444706874442 3.2660190145735974 12.515814169202686 -1.2937297455783654 0.34719071515645367 -0.15533139771687443
Ni 3.032136807153093 8.318716043418288 8.153066479058865 0.620052637692345 -0.3734411642125504 -1.0797597122826759
Ni 5.5812778892947525 7.85332698766338 3.4671566250045047 -1.0865728785497675 0.14891752377073061 1.1331712951345967
Ni 2.99957988166381 8.293711309221841 3.4318335847932 0.2057648717770779 -0.33362763176003835 0.40487392880053497
Ni 3.8287433953223617 4.039533848573775 9.425573540251843 -1.6240113436843064 0.12938665282665457 -0.6296328251816125
Ni 7.690016517365845 6.327675551437943 11.285025485241379 -0.12196773465476414 -0.47792822558404785 0.4748662988292725
Ni 0.695645667379487 9.12872255803511 0.29414017165664197 -0.8338203251692414 -0.8820601340122357 0.20137805556329189
Ni 4.609710691798783 0.5691351304044233 1.423632483354176 -0.2082436723348736 -0.906520066826813 0.12522326547758436
Ni 5.844752356474939 5.514260124544884 0.17049457159458672 1.3636053875235807 1.0995893454140933 1.0355393090117198
Ni 8.274137262401634 9.016663633209841 11.020301687976975 -0.6892405095419162 -0.5570210152521569 1.0403650125351374
Ni 0.008297437540459963 4.673591531954029 6.105641127428576 -0.17928765142215572 0.21033860719068936 -0.786864268134677
Ni 7.910208678145074 8.797359965523887 2.4415926197031688 0.7909590070293411 -0.6448182746727992 0.4925158935902356
P 8.348625622139854 1.443456758841468 3.5117417524003964 0.10702011220599633 2.0620723007597714 0.3393599062581253
P 1.6198770353928342 3.271259310572708 1.4398211901638847 -0.28351220316088593 -0.28668263046906756 1.0535000072551985
P 4.828842100619716 1.176537114360828 8.29516825656969 -0.7520505028896015 -1.0746283045933815 -0.5238432429486076
P 8.702164276958731 1.594464319673965 12.551654892634664 -0.9844504607557047 0.7439037054127511 0.3262120560222575
P 6.2974667862666 7.8660016136266275 1.4392772148006552 0.2704767101331665 -0.5784226208563844 -1.5741669093583535
P 1.6583814248534259 3.1277858085209393 5.873214054104709 0.4502860383867471 -0.5618402910176711 0.9115373175357462
P 6.791849728881637 3.8174921715595658 5.869512301757934 1.076258898218269 0.8997940609568891 -0.5124781956447754
P 2.3118862274691323 8.365652051008936 10.089945157373664 0.48642315042893647 0.5755596974862927 2.450549790480154
