# total energy = -381167.1933502006 ev
CRYSTAL
PRIMVEC
9.26703766514931 0.00000000000000 0.00000000000000

0.00000000000000 9.26703766514931 0.00000000000000

0.00000000000000 0.00000000000000 13.56324634946547

PRIMCOORD
 96 1
Ni 0.07784867546252343 6.749795056536003 7.8167971240570395 -0.7173344395646549 -0.5794374352741439 0.5572575567429952
Ni 5.154928630831203 0.41185031536356903 2.96690600733133 0.01097861049869077 -0.9361450887820975 0.9802757605527246
Ni 0.9515486804713198 3.4542697047002227 13.747842001313668 -0.7819712017084339 0.3075502179466961 -1.155277383005017
Ni 4.926403485376612 6.3609964970247574 1.349970131752235 -0.5381861419338408 -0.4933322188439439 -0.4794739728046129
Ni 6.350348670904428 8.10558118104117 1.5533982861719458 0.46148499242636004 0.942796532660344 -0.37446960547706476
Ni 3.386777870379631 6.844819259353983 9.845099575640711 0.34646977783002914 -0.44744728338637135 -0.1250114065770944
Ni 7.4145196584604856 1.0315973506431264 2.4312656779573407 -0.5933720430773651 -1.3301257677088962 0.1344931208152845
Ni 5.764569961685853 4.130735643173406 0.2813277985886413 0.19821637000585865 0.581328995869902 0.12436323147013421
Ni 3.2612095118674778 5.9359267526266795 3.632468349448395 -1.7851364652648223 1.1876905092283996 -1.3388963148126747
Ni 8.557951617998421 2.987322217710527 4.945634441655907 -0.5967730983391142 -0.4853057489950416 1.6511303113882856
Ni 4.372123436717654 2.9062263722979926 3.9945120449109006 -0.2762645204595371 1.2980178314307582 -0.5208520215307675
Ni 1.628515038971046 5.107768676848299 8.19835812725847 0.9027783403961936 0.3997196382931052 0.5462861453331559
Ni 2.6356381435012133 3.1353168070418254 12.008965812414855 1.0669535616569432 -1.2822911647241206 -0.9502689297779892
Ni 9.057398605600818 0.3362887447630972 4.412652825348864 -0.5723923555019045 -0.8103888336191787 2.0557921241780144
Ni -0.0236754274779962 2.2084277134340358 3.1550954452390565 1.6111789678063284 0.25881007242851556 -2.9935230693899926
Ni 7.1832700039724955 7.134710727322777 13.071768058527944 0.5157116149804086 -0.039861612081628126 0.7261710640196785
Ni 2.5960771602917383 7.0065661323776816 12.65043941718015 -0.07572413030619216 -0.44425140215689296 1.7440065279937318
Ni 3.535662095313672 6.724004891093987 7.3244514673127865 0.0713797372945674 1.4777628821053066 0.9977230094948946
Ni 1.3040945891707911 4.665786588960577 4.299562532868934 0.24329269351920682 -0.5345050935378278 0.043276294190131924
Ni 3.6867148070293982 8.971289292885325 0.9707351549704756 0.40398946931305263 -0.5424929968393108 0.4012404458130057
Ni 4.732444389903597 2.051518234000252 9.779914306960983 -0.7961644624896804 2.4321923710188886 -0.9759372810783707
Ni 2.766080963753395 1.1764226131396522 6.921501214791658 -2.072807170678772 -0.4570765789460193 0.9829345383318103
Ni 7.447408374649389 8.158523766441903 7.247262604922297 0.02445299083604176 0.3159142736406753 -0.2738183729118897
Ni 4.2474632478833 1.043283084966656 5.298333256474598 1.182568614620802 -1.103731392606925 -1.227290383008209
P 8.630929538535927 4.091563875540131 10.913449070418404 -0.8424857141537233 0.2716517042778741 0.5012015942896917
Ni 4.403807438027842 7.652284040331062 4.92553331055268 -1.8340956687723444 2.4564072777021955 -0.8764299323096518
P 4.9925515992555605 7.463672025512032 12.781067578182904 -1.5217547143052241 0.5673036281250875 1.1745488296401192
Ni 6.578456799670232 3.2650831335544215 7.892846140831514 1.6441446240990718 0.6388787692599126 1.756925035827613
P 3.2506080209347914 8.200521980521392 3.127833674237503 -0.32007971787227457 0.4438199710464292 -0.6093601909755054
P 9.631880796072064 1.649986764924748 0.8869870834172632 -1.0503228950787975 -0.7342690105364644 1.0074374085691813
P 2.264159677130869 8.562659273062936 8.337395198114649 1.1855886323940485 -0.4860485406983371 -0.48845097949224264
Ni 4.731100669461955 2.5562010978062926 7.146108256779168 -1.5419507296371249 -1.9221510669503798 -1.707726462615775
Ni 2.006174619372948 3.1864801212370724 2.537479828591071 0.44893286679296235 0.7766302491114947 0.4739083057913774
Ni 2.427685821360053 1.091647753828274 10.15548046358518 1.9683918430854745 -0.2646570181275958 0.12843123089192077
Ni 2.352363340327819 2.9452962025184526 8.619714569718848 1.7409230039724015 -0.5170197922688708 0.6526213156569857
Ni 8.066316743032608 1.4031036181260563 7.469767882798328 -1.827572008721214 -2.0059515465068034 -1.9544418086632855
Ni 4.248269480148286 4.425344033244244 8.219638952239084 -0.7254737808423376 0.9590649308030643 -0.5383216390704406
Ni 7.454738601334489 7.478962637434177 3.5094085779952264 0.1723299891574 1.3025509434144211 -0.8104749655750817
Ni 9.013797194028886 7.221515067852913 1.0612917189959301 -1.2894151773634115 -0.45902418959069335 0.6222866692291864
Ni 0.17078594142906808 7.57616459407137 12.205158263932258 -0.2563107030454295 -0.6753573238019207 0.5469317493369549
Ni 2.638501658097542 3.895918179236915 6.204425264460767 -1.4685786445028772 -2.1322659881660377 0.9044022491528618
Ni 1.9464022273136574 7.1153796870381765 1.5309924428353638 1.4624784451424104 1.8079007555445314 0.939687297607401
Ni 6.5689580862034465 8.888136165141448 5.077929742710049 -0.429991292693453 1.730533947428594 0.4380689274952648
Ni 0.577626496304691 -0.10359621253190837 2.3353064310527287 -0.16771434476225955 0.09659994531393686 0.9421699548199387
Ni 5.887432345239662 5.6434405141498845 11.876751134587211 0.20311355019715988 -0.3699251806394919 0.0036882474848646154
Ni 1.3967000951938129 9.215985418827275 13.850108393960225 1.193465464038964 -0.9139667529128452 -1.5726846683858722
Ni 4.035553900717441 5.369404947392477 5.593632040841315 0.39398530691248923 -1.0753273875429352 0.49095497686101897
Ni 5.848612725032473 6.5843228344258184 5.999376305177308 2.827174237516692 0.1428044688944573 1.9951822238054413
Ni 0.4666101668236549 -0.4815189767996218 6.818894721867802 1.1462666948659743 1.4710749285621696 -0.35058791376346077
Ni 8.370368244345062 4.7192388614253815 8.910672673707182 0.44465223713973745 -1.6793615383198368 -2.0023717995753447
Ni 8.166317345003431 9.411510643642618 13.617634563814711 0.1607746802196328 0.1135982796441463 0.02322965995190193
Ni 6.496017233816054 3.5527968477040015 3.1807030500417603 1.0133887410566094 -0.5199408225704077 0.3320430608817378
Ni 2.274056873211384 5.012966882931006 1.1007757857939175 1.586874586733009 -0.3824420821595801 -0.4418116823671488
Ni 8.129054587101043 5.515851941456503 4.209625006950388 0.3577641197969258 -1.6460330993710361 0.7285339078249001
Ni 2.0808020725905396 8.621245484318568 5.02279550293381 0.7965123327474024 1.1467606037832572 -1.0384539115553533
Ni 9.429859377949192 4.684821084044264 6.267860916455101 -0.7282462013811521 0.8537106363352652 0.9230291202254297
P 8.034697610985122 8.815528926105085 10.866696866086757 1.7696491682625006 1.1279704676599476 -0.053167842272231015
Ni 0.8016478615203948 0.48871761155181664 11.650448224731973 -1.560053609885423 1.255145200436948 -0.04920654363163784
P 7.182547175045267 5.362528805546277 2.025060841856178 -0.02152707543849841 0.2926663588563282 0.14129600266973086
Ni 2.9663323777083117 2.1651784492881894 0.6683600607469412 -0.5661916260078312 -0.7731181221931782 -0.728397639357352
P 6.328191184173612 2.0581070976830667 5.447202654148594 -0.41366324495739076 -0.1165712462295412 0.13910259456283788
P 0.708886669266893 5.661983856244558 -0.2659167151786258 -0.5526033458004354 1.1345182960807945 0.6825291589600117
P 3.237856577295476 4.64143281433549 10.077261106621515 -0.04794258931754969 -0.8587237732791404 0.0899328177064064
Ni 5.848575656882359 5.309873498308929 9.512514865777785 0.6919401678612663 -0.21988691300075675 0.9058340965033819
Ni 8.095415240872326 4.575599779732514 12.944748481938817 -0.5463380816170139 1.3402068060939822 -0.046924175355364355
Ni 4.847670734533864 9.238235575933375 7.3826651436597714 -0.3581276737839316 -0.5645497195290341 -0.5397779119009929
Ni 6.882471232832571 4.228929172826156 5.781265456497327 -1.7538872774425538 0.9057988723900722 0.1355164198734763
Ni 6.375184331481002 3.521603999382828 11.072559471265224 -0.4883255096579719 0.08111290542193128 -0.18586710441188634
Ni 9.923051115219803 0.7085085741357273 8.858616943797934 -1.1108530912533707 0.39783784788936 -0.11195791582724589
Ni 6.2679461732003645 7.792244108125088 11.033117106136114 -1.704616970452516 0.40308855476533806 -1.4213701051378747
Ni 6.225873822820647 1.1309955951745916 11.248746242165943 0.1877977457756959 -0.43719012443473737 -0.094934641796372
Ni 8.038802908610279 2.0642140754143954 9.67032324785184 -0.9197393937305643 0.23844924938397644 0.49075905880012893
Ni 6.332759833675198 0.415296726620445 9.086724145859986 2.7373607189969693 0.3369505254856842 -1.3308755013907274
Ni 0.1613437568912059 4.8388670488817205 2.3099703504496127 -1.0406612036193175 0.19178835499232777 -1.0661086971581446
Ni 0.2918014044034336 2.9108598910622785 7.736394453051641 0.9260223985257988 0.668827750213519 -0.03146644603939742
Ni 3.122732170078024 -0.34730817908832234 11.992893062525301 1.1468526492764315 2.156906412422537 -0.5664335668153084
Ni 0.8459053793493498 2.687718894411789 10.46123709980289 0.4023575901365844 0.841735209140944 0.2797877031214472
Ni 5.7717797168830804 0.3609909599992592 -0.2789118819049426 -0.7889946842141187 -0.5318712554594065 1.234916789205215
Ni 7.836679553074592 2.9905378797329423 1.2262764949321119 0.14038788903316465 0.18078403346202415 -0.47911556102392966
Ni 1.2598908201595018 7.9771585749702165 10.158654423938716 -0.05854916118880239 -0.7859533262846335 -0.42505888838884215
Ni 5.137163719888929 2.1640849388598182 1.462972387375644 0.6484016211486833 0.13789726140082703 0.4021809553494041
Ni 4.39149154515237 9.11781969028711 9.85352238605043 -1.5819151858452047 -1.8544971152468321 0.2990954023111236
Ni 1.6278200111564032 6.522141012609099 5.933255992410945 0.09360538146198717 -0.38328283289332055 -0.19752037238009854
Ni 3.772425637131162 5.042556533759737 12.60253439337995 0.98950010736447 -0.49968052965947496 0.2465232846413625
Ni 7.931277472166256 2.2965387062557 12.22217995846474 1.7999241650969582 -0.5713572293691709 1.230843904687422
Ni 1.7203328468041392 5.3657630016437485 11.422599573016967 -1.6666592602618198 -0.2854207330375084 -1.9506859411652793
Ni 8.259247197339954 6.533001980592586 10.066234258666265 -0.24573909817717032 1.9299237689172635 1.701211801425709
Ni 5.613526517007654 5.7086526572384475 3.893465194403102 0.7377978496253292 -0.2066246486742119 -1.7007009232275612
P 8.68134222269136 7.432849858692001 5.525300612920636 0.022459871665412932 -0.1891887125859516 -1.035285798240017
Ni 5.8346751005895 7.417216366381299 8.632382610020407 -1.0877293607517138 -0.40946026261963675 0.04167681091349597
P 6.864706321890298 5.650631735272057 7.580891709914694 0.5716300234145832 -0.4766964100594759 0.8888434754826563
Ni 0.7145432689743335 6.9428923175188615 3.5896898508090005 0.12457457614999191 0.5787082704176033 0.4135845692006555
P 4.812937877876775 2.4569696599503414 12.772563217842933 -0.17240249426654825 -0.28433315640028456 -0.36630763849156267
P 4.014350918852068 4.518107078905251 2.2593380375047527 1.3180711505372074 -1.9296054663458964 0.11365998612001715
P 1.016872028010225 1.8797444263706378 5.750382127229607 -0.3205016359010416 -0.3985670127459007 0.18557219887928686
Ni 2.8740604850363183 1.1724563210774233 3.0679788055442083 -0.27741046113852225 -1.134677447366478 0.033997954211999505
