# total energy = -340870.4132774717 ev
CRYSTAL
PRIMVEC
9.26244523822107 0.00000000000000 0.00000000000000
0.00000000000000 9.26244523822107 0.00000000000000
0.00000000000000 0.00000000000000 13.55652486844566
PRIMCOORD
 96 1
Ni 8.617028875804893 1.5217919801789672 10.26886466215509 -1.614787511093193 -2.318303299607201 0.659258104247213
Ni 2.899478835933116 3.9570092688987413 1.5444544051648395 1.0173279282100158 -0.01399554294814364 -0.3145153364106197
Ni 3.73051469327462 5.439093145953322 9.577427749585965 -0.9698563649916135 -0.08983383023469689 -0.6026534683792912
Ni 5.2579382402134724 4.379830635711219 2.7820162092519376 -1.0983876117965083 -0.5284151785900061 0.18380225146305762
Ni 1.1039630713986899 6.656447073066669 8.201548923159988 -0.5906721276476988 -0.06014093115595449 -0.5081230039998733
Ni 0.6277464859995203 2.4610502487416808 6.588389403524554 -0.10762740677269207 -1.7868575617209872 0.5165261404619039
Ni 2.646438091996774 0.6226373211561773 13.387583726530845 -0.8306666100316082 -0.5852342444615791 0.3470616457777571
Ni 8.388265001075226 2.9805530198957353 8.363806587940108 -0.3882160085288798 0.7368036040328602 -0.046997966016093254
Ni 8.229247339671108 6.3786941249932 6.653759111432263 0.17980110072346456 -0.9934410942900891 -0.7418432233392966
Ni 0.3859660968493494 2.3030051440970816 13.271607722324932 0.8757326491323112 -4.583440042493751 -0.9672636645637728
Ni 6.760881144148417 5.3267952587874605 12.012084660363348 2.0467161300186754 -1.4366972224132482 0.23420692916785468
Ni 5.0891764863235 7.571020924828243 8.26512820038565 1.1014806488995352 -0.9506826202766402 0.6207082689984729
Ni 6.437816313526664 7.396988839546206 12.874550773438928 -1.1109381947680093 2.1250926103460497 -0.03939341419595796
Ni 3.6224960558506436 2.0254189200395305 9.683900484884573 0.5234529494887243 -0.08521330074355002 -0.00890038781342338
Ni 7.072858827711647 9.15658484109571 11.291283943612994 1.5591732641629985 -0.10256207643464273 -0.7085798333004765
Ni 5.032888606060637 8.423712379348384 3.9081017050738334 -0.12068963927328892 0.2819723694775918 0.6551908761563748
Ni 3.4493531653201686 0.17551222404557118 2.512186356912688 -1.0421802113670051 0.6958153345459565 -1.279972543893273
Ni 2.8647631908409306 8.078686290852145 9.448992830168338 1.507873842558074 0.6960030250767304 -2.3774687542237634
Ni 8.978162356727841 6.999259437129335 2.7824765527847766 -0.8951917862981873 -0.3878300859443708 0.48854868141237157
Ni 1.2122410572918718 4.200806092396983 3.3940656291528115 -1.203578641213566 0.21896131586269385 -0.9447184322734051
Ni 1.7923202208960045 9.10093606956053 7.092109894082937 -0.5363022946475667 -0.5391706173342972 -0.20426051931740952
Ni 6.691190505494841 8.538742687886229 6.4892914271967035 0.37636553694819697 -0.5204936097500843 -0.6964359988490909
Ni 3.782551111131583 2.444627933173793 12.271122837650061 -0.21903459230279052 1.4462288160527672 -0.4213410732176227
Ni -0.11483672343047562 8.357680406599666 5.452868254646252 0.6559308396461929 0.7642876683857418 0.462740462100016
P 4.063490340398144 4.677692352593422 12.911329165105828 0.4746703807683825 -0.8485134084050417 -0.4529412166214071
P 6.748756603213073 7.170605413266031 10.475140245871067 -0.08244910773485155 -0.5252167262573664 -0.08595120735083905
P 3.884799245115744 1.9567564128174468 0.8932498501257065 -0.5500870071364848 0.07972553815610141 1.3959874033987119
P 1.7110330006908236 7.559127945026117 2.6214387520544555 1.719250918315607 0.09897564463496503 -1.0804364266347264
P 1.7195544503932811 6.659309168673255 10.281756133563656 -1.5677388943448227 -3.0572656018542763 2.0214918082342477
P 0.08440959052550531 9.350253310474711 12.070227808425562 0.9019332187870789 -0.1888012473395458 -0.4313022981953927
P 3.911632549233156 0.18676609512001227 8.204517536887856 -0.22929175125442447 0.4596885626475696 -0.06895724389600383
P 7.560702560732006 3.792091429820204 10.465420235743068 -0.8007520818603628 0.20657554060383132 -0.3622638074394922
Ni 8.62533728926479 2.076797704278152 4.169173915354741 0.5632004045899912 -0.2520997502878755 0.01723307604883484
Ni 9.029846801662313 4.249711803732826 12.701257831294127 -0.7081062360981676 3.442101381057014 -1.8420257222526986
Ni 5.213006117923666 0.7115141890637428 12.965745105167748 0.06708676634616834 -0.7060280134129002 -0.17859808155429888
Ni 6.587914240079189 3.4232886441650434 6.681631661915563 -1.2952798636743046 2.057328358316883 -0.25140966619938643
Ni 3.1905233930533523 1.8063620880144018 6.771904380334171 -1.19665286062801 0.7802269653238176 0.2903004297273129
Ni 5.1904798508841266 3.899341284281894 10.88568609388934 -0.45496981701566164 -0.8131406853327028 1.0281183339573003
Ni 4.8296427682116985 6.317524936042083 11.304650578466925 -0.5435718317257865 0.5604398111257187 0.6812500351372719
Ni 1.3310226561878655 5.862359110141581 1.102880291539758 -0.8406491751656167 -0.21511494553341015 0.2657435663235552
Ni 4.535726853039547 2.73417197415077 4.846498566220972 -0.43336329448947947 -0.09780887802037348 -1.3237075228873785
Ni 6.151995775571846 5.246712156475017 4.909901856985387 0.9585429968613233 0.7674364984273687 -0.23248171894663192
Ni 0.624266585289506 6.66964605766015 12.357599805972946 -1.4095060067104368 0.20504033490622756 -0.2159461831854539
Ni 5.828217736659779 2.846516173543277 8.854837528398093 -0.11088653713993808 0.054357748815274116 0.17696183150245653
Ni 2.820071892129673 6.415577182292315 12.76951464341081 -0.40043029120688456 -0.66734602346167 0.5459130782644533
Ni 7.678344878852563 0.4280694683357522 13.386065611741463 -0.013277433835196488 1.021704974231789 0.4977833126367621
Ni 0.6377860504913612 8.775787188739807 0.7944065910443975 0.5997877167957218 -0.27350572676747736 -0.7424152937926827
Ni 5.505013969358094 8.715062597164469 1.4543576732074768 0.6996745603910466 -0.8127120824357165 -0.08460960572128008
Ni 1.4589833384046584 1.161742205359483 9.123459557866472 0.47096696377486624 1.347030513884035 -0.29404806969520325
Ni 8.676336313244931 4.138238274201222 5.262819548901728 -0.04609859413027544 0.8378854963775506 0.7599648726406718
Ni 7.6808086893100125 5.013937642917998 3.1431070829263743 0.3435186656215052 0.12185743432914496 -0.713895589086435
Ni 6.68619804746264 0.5425551450882679 9.00780959173613 -0.2277606593218787 -0.4047739128875609 -0.794201939446671
Ni 7.7555566231130895 1.6368963882794438 6.383496702896161 0.194394168046291 -2.525268362339967 -0.04398154778727264
Ni 7.992878997326529 7.586276172284707 8.56654484378503 -1.6701191937859623 -0.7282384880716684 0.7262908774269944
Ni 3.6181519689914556 6.839315531192341 1.522709888511047 -0.2759601018452409 0.48742202400709606 0.6254627529643227
Ni 7.239712517863895 -0.30055430973927244 3.4604245662216333 0.26068492085372524 0.6937283701099407 0.1833718487938584
P 4.133847875115391 7.962322190186957 12.915776065108165 1.2401245586583995 1.6688092167252873 0.34195826311292077
P 6.873262393322238 2.9522655118617083 3.030289572577568 0.7442145517849506 0.046244118569204226 0.9240585899312086
P 0.20941740517149016 3.7844499124239785 1.163299222419247 0.8252156142193658 1.9157888721777778 2.073930742760254
P 7.625493365806668 7.145513448870425 4.662726093431215 -0.29521509342011093 -1.0201330017589787 -0.6925983702705556
P 2.409189817345964 7.243167409971522 5.970103579183827 -1.3650549754859136 0.7721627002584444 0.7888139356618802
P 8.710199813366872 0.23910724742829134 8.135405801067328 0.742228117482541 1.9382893672731394 -1.1215794765319396
P 5.5382754105336645 6.622861446304592 2.7443690002132 -0.35253886684224445 -0.23420564361627408 -0.024668963501589772
P 7.863862396342258 8.334320519480539 1.3344423510032433 -1.1310503921368522 -1.12079708983996 1.679151993412192
Ni 2.171543257546018 8.728493142891168 4.411957427334017 1.175164608847247 -0.10245203321933967 1.1494906011199106
Ni 1.8625758687146345 3.920505971858106 8.90858935112994 -0.9394186173270466 0.48557931437140245 -1.0623913962075575
Ni 7.344794960118655 3.693789097546094 0.8148654802865584 0.22918993556923753 1.381643475972214 -0.18281006275311742
Ni 5.951398997086933 2.01490604459139 1.3340051635837258 -1.4100269122109135 -0.9812669208214003 -0.2941426862915386
Ni 8.72966021100259 5.841898368410355 10.318006565846817 -0.07116736417344517 -0.039824588196105605 -0.28841992487514845
Ni 3.9421986188180576 6.38376994503336 4.629417413784467 -0.25672285088218366 0.19724089346646675 -0.8835218061594269
Ni 7.914648384079839 6.260977707310015 0.5838406426521412 1.4009581171404257 -0.8015897472703098 0.513985119207605
Ni 4.881957059428524 8.633117743340947 10.780473977399978 -1.0458538035638505 0.20373498583124267 -0.41678713529835315
Ni 6.236774937665969 5.282252159201462 9.232088590437614 0.6721982093476488 0.9295571511519347 -0.6206607035899891
Ni 7.088382686082645 2.4084766090556498 12.208925517267451 -0.2516991724153471 0.9157883795026163 -0.1587514791420169
Ni 2.152518194840749 3.7382210477881466 5.668348856529947 -1.75111280002121 0.5310965820769111 0.05753126144724931
Ni 2.1760170186398082 8.429334683662939 11.559472490639987 -0.018810447838283735 0.8750795889293445 1.5302180145812292
Ni 0.40053221837335434 3.3756889376205557 10.422785199894795 -0.4754861918014585 1.791432325575863 1.119951196899897
Ni 8.138845873262428 1.569928908552523 1.8688622903592627 0.9442494630567867 -0.5894431403366042 -0.06216516067483487
Ni 4.1449628095099005 4.494286672638683 6.016738138925057 3.2051536559192284 0.6904003341779722 1.9234425320682937
Ni 5.592553340160187 5.54158210351603 0.7089271880834206 -0.1468452146227342 -0.021744847876259323 -0.22483448681401924
Ni 2.2088153375489403 4.538181401051667 11.433315206528702 0.4284784555933523 0.20858305795216334 0.07740691732525379
Ni 5.378572328175218 1.2944915718112437 7.064034496046938 0.9858054321217021 0.004106823079521959 -0.5989950456910974
Ni 1.1307778506254444 5.977185644882195 4.9192291394314465 -0.8516121019350238 0.41091859233271816 -0.13449826302160708
Ni 4.137988188177346 8.398731564296723 6.222878490939234 0.5825713529174353 1.0930718560105497 -0.4505660315210111
Ni 0.3369483099250287 0.007233969801760064 3.130757464569541 0.24418795163996657 1.1297435003999705 -0.10559829215780522
Ni 0.4357100594874447 8.56782676621853 9.87469481747806 -0.5576568490639429 -1.3709615707783358 1.3141404480242336
Ni 1.1746262668117855 2.1907072569312187 2.179604363715636 1.1626371658041976 -1.342143875215695 0.23923266451722025
Ni 3.2988384287278496 5.986355465757666 7.351567660143043 0.05751094973227515 0.9587656543950906 1.157628913956329
P 6.139009827220927 5.7434848867923005 6.932264170066427 -0.9142277198837158 0.1327709959178552 2.0564220444525296
P 3.2786926101378007 4.383100278912271 4.005899234077526 0.16026097380800786 0.5325574828931539 -2.303983026329787
P 3.7160004414444563 3.698948279594213 8.099644425897525 2.2104614628308576 -0.2550107532870834 -0.6546357749838532
P 0.36508761883379576 4.722967185360392 7.325620772043592 -0.24863981676373306 -1.1037738158090862 -0.7676779250142134
P 5.561107338269053 1.4750444186047251 10.891475122219815 -0.3677245734437473 1.116756087001367 -0.6957325450241632
P 5.721319855120582 1.139225200765272 4.862006678434912 2.099765187324855 -3.1015099163846327 0.3062248142670533
P 1.8755525546202247 2.20665718778734 11.311618716087748 0.6205187786954861 -0.6191051861774113 0.14216940641361966
P 1.9001536094134062 1.6961575134928382 4.7217778873801795 -0.7925176097657125 -0.3147035411620258 0.02698655589117288
