# total energy = -381175.783486935 ev
CRYSTAL
PRIMVEC
9.16290390043963 0.00000000000000 0.00000000000000

0.00000000000000 9.16290390043963 0.00000000000000

0.00000000000000 0.00000000000000 13.41083605881157

PRIMCOORD
 96 1
Ni 6.68618015391426 5.624676060497012 11.547078692931127 0.39503071745786805 -0.2048089356217118 -0.076589563630281
Ni 6.855556432890314 3.27809301799491 6.351358481744178 0.04818504434565895 -1.4709486873969504 -1.843282220367619
Ni 6.664711470027817 0.40033551891343516 4.479795955433197 1.222370319998772 -0.19793483420969782 -0.01067933409071709
Ni 1.7501513004891585 1.3258263828206673 1.166265406524579 -0.49048446498250364 0.04137547762299326 1.594976389904537
Ni 8.988927864059239 6.912109875889513 2.4854303581948223 0.027199443232927348 -0.3384235104867849 -0.9554587015090449
Ni 8.578383953887636 2.5801821150590674 2.474835292391197 -1.4381342119700908 -3.479729475822433 -1.0677287492600709
Ni 1.5747824823488994 3.471750992361093 10.098145030772894 1.176883905531199 -0.4521189778304278 0.32071452324279603
Ni 3.6777972128282017 2.3720284266901737 3.2999914420752385 0.7465272590785272 -1.2640658999653456 0.08018936516639738
Ni 5.042245235675057 1.8503293290553033 5.446154287117605 0.4718894755891357 0.36475880594720406 -0.6591375195089487
Ni 4.669021833172887 9.002369844111056 6.569459418609497 -0.14939883428252335 -1.499697734505185 -0.6551407396447297
Ni 3.9815108261871557 4.177487015245302 11.318007927491822 0.09719592702672294 -1.460794372571768 1.6443523692345035
Ni 0.020853853033356764 8.323142102269733 13.206937821894293 1.6060650436185309 0.36276414411467844 0.006107398449318514
Ni 2.0841024967867643 7.929952732124132 1.261734618765823 -0.9248173224741041 -0.49282622574180285 0.01102977545160036
Ni 3.0736319799061 1.3992578948419871 7.852795583368614 0.8226092869447703 -0.1600624846439566 -0.6342227585451399
Ni 5.9047402188363725 7.414649341425982 10.168525295788585 -3.4295682815870094 0.14790528045613238 -1.9896970323211536
Ni 5.875263156923148 6.587358235128394 3.7105500128931146 0.899166454675219 -0.9068537960171478 0.0570257825657405
Ni 2.8725612162679877 0.4851885906720363 5.089693501048154 -0.8316014631410517 -0.20014983958314564 -0.37900605989483765
Ni 4.3842112906025505 3.803961236913746 7.885451256651965 2.062632029917983 0.3072925934099353 -2.6275381043451715
Ni 3.616790598523492 6.931855933838844 5.003341378208108 -0.6298729662168765 -1.4449651188489951 2.6336424174706963
Ni 4.955555001680334 4.59151282890681 5.212845678614928 0.18331862695841977 0.7594311116243889 0.8444076137667845
Ni 7.48361851923787 5.238093144078311 4.940833880241171 0.17631879860181893 -1.107656181582628 0.6184680668140445
Ni 3.452298147337227 5.21356405028232 0.5898152090917314 -2.0171034493585647 1.4844554636341338 -0.9476050097925809
Ni 4.62755053002733 8.546817749880468 3.9898976321458672 0.7431429159873266 2.3615675096124753 -1.0421449872536954
Ni 6.098508148049604 2.252278435349192 10.141059491285978 1.2299769287014366 0.5020464587884902 0.49888528745168914
P 2.576315369604488 0.6425678795445815 10.323487410606823 0.7202248737385726 0.6273476286918616 -0.1712375274241696
Ni 3.4437216692673545 7.564893477015398 10.361868982550286 0.48061734238043674 0.3100866112153047 -2.257592354880389
P 0.3251099103044223 6.972429272400162 11.563118356244493 0.09949089370848671 -1.0121733805922697 -0.1665504063611454
Ni 2.3448329278532287 5.628341222065334 11.608660737602062 -1.051145390980093 1.175546417666698 0.18813893116519856
P 6.192061397081009 6.811061371450892 5.881912676298474 -0.16980825117681078 -0.17522016622100148 -0.013458439497751015
P 8.573848316446838 2.454989358789129 4.758191548968578 -0.3698184798582985 0.4729251159425017 0.19162251883842482
P 5.065958831022096 8.908752454752207 8.69904657045913 -1.9976101165206435 1.0288492985860538 1.7596797157546147
Ni 1.605963844391394 1.2844925232339228 12.316632509042947 -0.39957385674386026 0.6496403786517909 -1.0262185458314261
Ni -0.030836836855072217 3.7444756646598893 0.5327642204096323 -0.3415150049279151 -0.07778718348280797 -1.272602476681447
Ni 8.484464188699398 1.4552157490863342 0.026692455411692777 0.06245749510427308 0.561168461761627 -1.0095670533176742
Ni 7.389103165294783 8.006527120190286 11.519157492103652 2.5711746379537783 0.3879031052741513 1.5906726203228605
Ni 2.365421972963274 8.40304262445914 7.596595292000594 0.4204296171469469 -0.4065688000044546 0.7402198288032606
Ni 6.9169295633518555 8.80958234561735 0.40151386835765046 -0.16475860456804528 0.139148874419741 0.2972362376151978
Ni 1.2380549261632905 6.887883157922908 9.468841370944068 -0.37537257690730835 0.22638949000596492 1.7638860405264785
Ni 1.9671380282377067 3.576180608346491 7.66441360908003 -1.004781716113889 0.3049678019315005 2.074124861048931
Ni 1.271371244819332 1.8061916208687927 6.299244465694608 -2.3662183781209247 -1.265490548227014 0.03536372421127458
Ni 7.871832432554475 6.578726779634997 9.485699281577563 1.1531189419011172 0.3572856374986105 0.5175820925302441
Ni 7.508679061461269 5.147591142052534 1.9882099583843789 -2.0838359176891075 -0.7454862194085226 -0.23642424853414767
Ni 2.577433243882826 8.219665428292098 12.324611565777182 -1.1403001928698941 -0.43064101046230996 0.25322357947967356
Ni 3.9026273863329584 6.746527039136672 2.6318627257531833 -1.4942390253834588 -0.04057123655414303 -0.8298405145858869
Ni 6.286814986526037 3.526462691672211 3.7564955620231992 1.2379931141376936 -1.571614832360461 -1.2011643753451184
Ni 7.394765839917839 3.3275543733594075 12.195371554845424 -1.517791101671786 0.545224536837861 1.0628788773669373
Ni 5.80800744214445 1.5551188905348552 7.795718938555536 -0.04790710809392395 0.3326845511204787 0.10195838141237279
Ni 1.3483121490423193 6.178188760544912 7.437300956208601 2.1206214619485735 -1.372797852656126 -1.5499183212236338
Ni 0.8120889324025835 1.2095674578735123 8.63626968311692 0.3084945841378365 0.17152626230918203 -0.08095401124656382
Ni 8.02469715866524 2.5726227193244044 8.298129207146724 -0.2081498270694867 0.390839819304972 0.3245426387396346
Ni 5.816373173424142 1.6763166206953235 13.430550245467975 0.6053698388691896 0.10098290487298092 -1.091574702639733
Ni 3.996299753115333 2.549129033671464 9.539020052073502 -1.7721721917946704 -0.8416593615976861 2.014226642031402
Ni 5.824060849813697 1.0848236838956928 2.334826120481319 -0.18296664293563975 0.16212168116583048 0.04264071748866205
Ni 9.054946586808628 4.734793157516415 8.751241220063202 1.4986086152060643 -0.5779549371913466 0.6443428776982774
Ni 4.426809630930366 4.382351221106627 2.4520636435672163 1.4007169476638974 0.44777124238469335 0.6065317203877748
Ni 0.8701212680946007 5.7974792655394465 5.143471500449741 -0.11965914112624554 0.5197163652644275 -0.7504859866159592
P 3.1387802267830134 4.9802673535547415 6.503437030698539 -0.6119858015238105 1.5831318318611252 -0.17018620334151982
Ni 4.0669182536329656 1.766681179162288 11.861347971606845 -1.0066005144901826 -0.08443759891979007 -0.5390598027880459
P 4.4522825038302 6.55845843616218 12.12904220965312 0.2583974103711292 -0.6085477223765391 0.24263012023454344
Ni 8.210163496926224 7.399182359607666 4.8109762895851516 -1.7304786687106262 0.7680782457764256 -1.266743446797509
P 2.2994399018295675 3.364847392317078 12.747496074949323 -0.8593413522584812 0.7394916923879845 -0.3049719156965587
P 3.1776584281189826 0.13560548028553984 2.554965803469016 0.023168210586347195 0.6169506017282536 0.9497166568189451
P 7.337882532377491 4.172740631014325 9.875793422778715 -0.1324750619439912 -0.2309488272418732 0.8373612484429643
Ni 2.7533976507779374 4.695621743254979 4.296563533148104 -0.3076165524082573 -0.012932391790951922 -1.3147821953732903
Ni 4.7153769641082315 6.30746817196353 7.492835484291807 -1.3508763699926865 -0.513388880384503 -0.4168444708988498
Ni 5.594420151750518 4.770299410209528 0.008508672580858162 0.5987754734811236 -0.19220255971161093 0.16253640010574588
Ni 7.692715986710608 6.4555223735158735 0.0982538187427763 -0.01907887100832198 0.0081550250069666 -0.28137741620607026
Ni 8.225923691670006 0.9874495039293137 6.3223780492234605 -0.8532146705354532 -0.39156641305835144 1.2906318233793321
Ni 1.813824319834822 3.724537185728221 1.9173339802665714 1.119543419938517 0.4266992522057425 0.025823388821007143
Ni 0.8114310359010699 5.916551201990289 0.17424452982917626 0.8402653094636369 0.5063435435019473 0.6292972962190646
Ni 3.0519525492294792 5.2313492467925995 9.14808109113085 -1.1520295654916803 0.5478879426026371 0.2248730533614385
Ni 8.278592063406785 6.512607264942479 7.049272133551198 0.5532376369503246 0.29709534116195935 -0.9511425906321943
Ni 8.77523978172218 2.288526883259891 10.745888118451946 0.4870741537493741 -0.9160948549994418 -0.9337377648921854
Ni 5.595666306683748 7.090667384594211 1.0866773393588716 -0.5136606459886509 -0.6426408074055061 -0.04585999575690812
Ni 7.660123537464309 0.2944361731391404 9.327960806871321 -0.3861987209885349 -0.044400637602562236 -0.2859778910925591
Ni 3.049524379690466 2.8797174442301348 5.847513302398994 2.383363522441644 0.5300917949614806 -1.2914987993653178
Ni 0.07682911679515347 4.677415053164342 11.491758576799667 -0.6693818229447762 0.6388977954233062 -0.1600761114907114
Ni 1.5502167369372253 2.539242260340917 4.036111654360832 -1.469986066373365 -0.4336538291467048 -0.08362178788671405
Ni 0.06017462262870097 0.27645122532338723 4.2198801065252916 0.5992030479368454 1.1431888272715989 -0.1754353675556011
Ni 0.6283314757228292 8.938907571555571 10.520733578148393 -0.592719754205347 -0.01965479811645002 0.896398919232411
Ni 8.763639545358442 0.14398953737307507 1.9352776950146808 0.20285978231514093 -0.10000614278200841 0.238026560024261
Ni 0.8370624270387337 8.050444918682699 5.939941346828923 0.8280993635250641 1.0464014485372042 0.6071693539717737
Ni 6.813113861929152 4.966229784748069 7.767355169468689 -1.0006687223867798 0.04673365661111307 0.998593842135622
Ni 3.8455424949063524 0.11409464704106147 0.4908659259413662 1.021816817219305 1.2206309687101624 1.1015618957594318
Ni 3.761894345013337 2.7997711075211242 0.7559872205666798 0.9131853946621306 -0.8014604207812972 0.004489403229921301
Ni 0.07113345571798199 4.197737032910278 6.462708839060959 -1.2020002409828525 -1.576007305001202 -0.5170673576773546
Ni 1.6999660757149173 7.525960298255905 3.6726375816303976 0.7694954378389264 1.846405596487949 1.039906327731164
Ni 9.143038745103233 4.377898049801117 3.304363063535854 1.6714124586760892 3.060491564990742 2.1041638306131825
P 9.10673531976901 8.353737038461295 7.977409244110757 0.47099241769616296 0.10085537815618113 0.6811952706399365
Ni 5.253770872686807 5.043967861612168 9.813500336763525 1.528862271884283 0.22874050673664476 -1.7029673506642349
P 6.469816503632327 3.2653382557371518 1.271746007589693 0.4382563609157226 -0.2374632313216233 1.4791440787235495
Ni 6.438552675454544 7.746914563402161 7.850381158185482 2.4382156943948328 -0.1379715662821882 -1.1085748367421553
P 7.137159959088369 8.060789837209285 2.695149070553389 -0.9855354662897672 0.819827096213943 -0.04017297267445985
P 7.175699132979267 0.9703331994052528 11.538241072099511 -0.2888660112736315 0.20299296545889556 0.9795473670271324
P 1.8955390970005481 5.890354459680711 2.3828507325110344 -0.25859692797644496 -1.2167264914494333 -0.844162587635514
Ni 5.093300936321774 8.69905939852462 12.067620515800797 0.37586082939763654 -0.26370776684044905 -0.03165722189396483
