# total energy = -340869.86364792654 ev
CRYSTAL
PRIMVEC
9.19774474338382 0.00000000000000 0.00000000000000
0.00000000000000 9.19774474338382 0.00000000000000
0.00000000000000 0.00000000000000 13.46182915423001
PRIMCOORD
 96 1
Ni 5.61305262306926 3.4657562852070782 7.906119421743013 -1.3700871385931823 -0.21157273670810658 1.4987736800290188
Ni 1.483725028574182 6.043175967826955 4.713470857508388 -0.5072915092375134 0.41301918361548867 0.08364441359453337
Ni 3.423023562177734 3.0720744059341563 10.41705964342628 2.0902263945964843 -0.1350633914964577 0.39231408985765337
Ni 1.1892040375878206 5.600359735040741 13.51433035187154 0.5465363136707491 -0.17627946072345124 -1.079325967179367
Ni 3.1057289546996256 3.9797538661474245 8.373903852965615 -0.5656360106146774 -0.8361916536148953 -1.813174345238645
Ni 4.229950924228403 3.3091830729538434 12.546640204743731 -2.0367680176670278 -0.9141436448103418 2.3272126862816886
Ni 5.277224559520525 6.145169761557562 13.275275442020812 -1.0315294165213782 -1.9728951302724667 -0.5882218663349934
Ni 2.75880841074336 7.94205961012811 5.65738759326858 1.1368752263487452 -0.15755437351012222 1.227989980178395
Ni 1.1250497665741148 0.8721209782435211 1.908981846479785 -1.856472750915964 0.20661462137188286 0.6996606764339757
Ni 2.19870253437768 6.195049132411659 8.772710715723674 0.7008495545357543 -0.7228263159171616 0.5639768777446996
Ni 6.574686055148677 1.5443657610176746 3.8546737325968317 -0.5230307743496411 -0.8941178365077181 -0.2861244439727524
Ni 6.421828731854517 1.1865826802775834 8.15972608387629 -1.5619343718479035 0.03877840631977838 -0.53551707974211
Ni 4.725801354385947 5.698646837557223 7.775849000718151 0.26593562772970325 -0.701098694432083 0.5768066825195163
Ni 1.1702014965248364 8.440513002105996 13.015220240904352 1.314711490036355 -0.05071218164288686 0.03894064292925552
Ni 8.608813339168186 2.0767496341094756 0.5096231334429816 -0.3020010059936928 -1.2318726030622524 1.0203026945676235
Ni 6.9233449729001535 7.3699414788600786 4.458302418282907 0.166547578147668 0.9784042545616246 -0.8750448790366672
Ni 4.022091086143996 7.198237976167053 10.942179137557991 -0.18610930232967948 0.26454286114723474 0.9119911172437132
Ni 2.8287204700946402 2.0669448379946926 6.3135446003538345 0.41984083452301246 2.461547427142238 -0.5720686536138987
Ni 8.91989027106131 3.580672910589908 12.44831539147296 1.1305963353185688 0.7745895645323821 -1.697544894097083
Ni 5.091623264210766 7.1131956263759815 2.6127390232209717 -0.6737562978633881 0.3652493724303774 0.4487778292723368
Ni 6.035964935787566 6.022260295814745 9.83935848097469 0.20012901364753918 0.5003127639268351 0.3348190809649782
Ni 7.862655477990287 3.3826086708753365 7.405284733598038 1.2799463186410278 0.1605309396399429 -0.7934486062204142
Ni 6.338892665656584 3.4062192821573696 13.309495652100596 1.006141315465577 -0.5195160763281633 0.620520578467699
Ni 8.5374112451353 2.0216459441248 9.208281884814191 0.06832886628338555 -1.5663695248011218 -0.14050230312384188
P 3.7287749997458493 7.564979660486693 7.854129168423303 -1.3612299453128685 0.6204696706251056 0.15946213205579635
P 6.885247913324703 5.217761138430403 7.527221997699829 -0.7209609805736488 2.0703448251812087 0.6443534192212387
P 6.4434986189524786 7.879864458788371 11.4761422634574 -1.3087213338911912 -2.1405899346507007 0.15852162251939794
P 4.430940046836502 1.6478219961950455 9.029306644965116 0.9330865044614316 0.8337367643164997 1.2938793837823523
P 0.6613813262158327 2.946690746800273 3.058824134561777 1.3631371896379103 1.1689469100723093 -1.9103113940029748
P 3.926544911622078 2.937520595086916 4.57026380821388 -1.8437236787804119 -0.07710275582127367 -1.883365204431434
P 9.002835535004193 7.220901219719421 3.683668338745374 0.6527411290643017 0.22627738990813284 -0.5037991798135388
P 1.1892316308226651 5.288344633162901 6.76471698442549 0.7510716839161 0.17923262981450422 -0.3189258067734895
Ni 7.530570896635471 4.161317351424922 10.005033781628665 2.7156045582668007 -0.055530943187768876 -1.239387423382059
Ni 8.277372599959746 0.1451505328020632 2.781658368518177 -0.555507663931424 -1.39424419545536 0.32541784225573633
Ni 2.2132349713958384 1.7331402783345626 9.048624668679825 -0.8990957493382838 -0.23113574644169868 -0.49937508260391417
Ni 1.6031301534917342 3.5242815363124844 1.1072309752859641 1.1627317824005328 -0.9035818101340954 -0.17394232794984238
Ni 0.1487155787439861 0.4216172702295996 11.28054209961445 -0.9424481481819897 0.9636178402810696 -1.092682333881615
Ni 8.484312663549332 7.2124944808367655 12.316712217205104 0.02115786502453776 1.0876653402829977 0.4928753338121834
Ni 1.9043838937801791 8.37380175799669 3.504490748507439 -1.3548345833094861 0.07685130193209991 0.023372356177353296
Ni 1.9887548081900315 8.549165963179101 9.179607914938172 1.4735082205940107 0.366686104876904 0.4860907067901822
Ni 2.534751343805171 0.4354019305834693 11.330646815219778 0.30651252071080115 0.21582971221224764 -0.38672939668102424
Ni 6.237000047120406 1.149423790686849 1.375502521964653 -0.3354310035173642 -0.37417881370952333 0.1237615933303933
Ni 9.01230921230084 1.7636951870524884 4.4451091729292065 -0.7393700792084557 -0.5907544029488601 0.9041770205159331
Ni 2.9990351133004878 1.2363700736821983 2.9576848113368586 1.2371564771690113 1.0129791643230168 1.4584176448094752
Ni 3.4340884493504205 4.557464226343963 6.0415074968933515 -0.5826181469949708 0.22014736575099506 -0.8576477666061424
Ni 6.835092610122159 0.3402310240554384 10.249015923448143 1.130256435480647 1.5132829293887875 -1.1155489540671433
Ni 8.18835682435105 1.097723266333008 6.82907820470053 0.9651679583770088 -0.32856127298072446 -0.15589601197109282
Ni 8.138459058007058 7.67433165017586 9.944872251696973 0.7265112209679165 -1.4724304141487996 -0.5029445451227273
Ni 0.9622956697156888 7.608089491058913 7.312842797996138 -2.2432430281372526 -3.018265052221363 -0.5946671077397049
Ni 3.075854679107867 8.806150957031852 1.1533825001125548 -0.39108895920130066 -0.5928606506585854 1.1451438941154406
Ni 5.478894315254792 8.186958767118925 9.044707349106385 -0.7300176914592782 -0.22352682374618923 -0.6357268538944922
Ni 0.5287461649647873 5.094768892983052 2.348174167756408 0.10319996712895776 0.13591545508410785 1.9452177189618565
Ni 4.411799539599295 0.44123054155714464 4.863327876400446 0.31803980462411036 0.6785321219854765 1.540231175842857
Ni -0.06760158582029162 4.089639325043588 4.943870689362857 0.6928230846868519 0.14488963355826015 0.3134411295098343
Ni 1.7025393808918963 1.4546417590479686 13.384154667619642 1.3497653963166947 1.2694963269522974 -2.539118380849182
Ni 4.604391121069687 2.8647848280365387 2.298082328994008 0.5575879434992204 0.3446368383863484 -0.13984821447961077
P 4.876000529390078 9.183221708928322 2.926521011903362 0.7390875149710303 0.8270758073565563 -1.8550236771742632
P 8.491422520394291 9.095309662713412 0.6021579662688579 0.1692264105314118 -0.10376843803791806 -0.1392738300333795
P 3.102215416129413 7.139832295745973 -0.22071368664951807 -0.3575021243847908 -0.7589886247703316 -0.8019131920479995
P 0.7565954621451202 2.640635783648867 7.266789689040493 0.6176265447493557 -0.10898417791090263 0.44901745608696864
P 1.6938659074057423 2.5887696998859586 11.350449560093255 -1.8910101225712013 -0.8784839866252031 1.3757361093488436
P 4.3020980356020955 0.9361556785729 0.027852611252143878 -0.46368817072526597 3.205650650160305 -0.14206373407369083
P 7.08977816773786 3.5626085395116402 4.486867854768536 0.05353756690682392 0.5271946759193437 -0.2974732933266683
P 3.9131621927224454 5.176647218511942 9.95082319267846 0.7283858122828101 0.8144779160868877 0.5664667340460889
Ni 7.482264340167516 3.4246423652886175 2.1291905769316464 0.4577108700959085 -0.612180691143436 0.6107616993087224
Ni 0.8032528629438621 3.786932341053327 9.507484527979187 1.289921684686185 -0.313100458340964 0.2176467108163284
Ni 4.90591159596163 0.8775329313710428 11.438422311424823 -0.968911484579841 0.5059640486753416 -0.9212897689368197
Ni 4.1314522735781125 0.46340262552927924 7.372343929840548 0.5128427780730459 -1.2638260160403976 -0.6172023127277436
Ni 1.3735360440947275 7.372158135392595 10.900258575407573 -0.0476350853794599 -1.1627526083361395 1.3921091513902282
Ni 7.378559765876544 7.784401063970988 7.412258463817764 0.9552195889150452 0.5865989860195898 1.025660616445427
Ni 7.284935920048801 5.330773830608955 12.22743338609089 -0.3950304603475519 -0.29569640393190366 -0.004293999389663572
Ni 5.622158390567979 3.9486930814573475 10.934600195720673 -1.080437712186307 -0.5007516512364666 0.47382911581400977
Ni 1.717991592404875 0.3734919093371248 7.162594874943782 -0.9525975779111658 1.7737094543748035 -0.559432710017443
Ni 2.617512652849088 6.582798466192992 2.39784842889816 1.6110506697585805 -1.566000314387161 -1.1064634468261074
Ni 2.679579035759552 4.3667673803329 3.4480322306918936 0.5735845760377929 -0.9361597440701168 -0.41563245286861966
Ni 8.314651060234807 6.028661926298693 6.078245129765459 0.03341765622849729 0.08983948666165173 -0.8523163270908998
Ni 5.96997111578422 5.187712105684628 1.8732136559252188 -0.6869136611809524 -1.1642651883259238 -1.3325379766948149
Ni 9.017634706625849 5.633572792048697 8.367792871222031 -1.4011491501053095 0.18886346803604892 0.9421838387770097
Ni 7.248660013973093 7.389275138741198 1.307739055833273 -0.3091327319424676 -0.1308267277072908 0.14518556753212417
Ni 5.222433592864089 8.308654130528579 0.06448630960633576 0.9580161778235758 0.02530196909989836 -0.518969459796074
Ni 6.998830865690043 0.5542450732846864 12.513322293443366 1.1736656557042173 0.35101266000570513 1.9382014355450232
Ni 0.6228124223245393 7.255917034737225 1.3804297539334047 -1.770753971290905 1.9534416495335454 2.413150009675457
Ni 2.1408211254186473 4.887727654199035 11.563725030403162 0.7354532606525528 -0.3148146128185933 -1.007872953444703
Ni 9.018563678865618 8.760474955619083 5.327384461595543 -0.10487144129410972 -1.944329402819632 -0.7557711462742983
Ni 5.507526895278543 2.6502382293747893 5.720348916762505 1.4589933148072873 -0.03798676365641845 1.5559095058100623
Ni 5.666620289647585 5.532875880355787 5.125335758769409 0.3020516567259701 -2.2471955850270975 -0.5226695343554806
Ni 7.647529421396801 5.53301384653001 3.3731037212458648 -0.09508916509636527 -0.9852166494977677 0.746502833598495
Ni 5.330111592972684 7.380371721631339 6.334019700383026 -1.0282651439478097 2.185314531251585 -0.2770379082904519
P 8.25719274754339 5.47476452777305 0.8644840906130292 -1.1647552405884651 -0.5407392473729978 -0.8422196049765303
P 9.42180201513972 5.51434242428516 10.689460057812216 -1.4101210145866168 0.6992179324696023 0.15977040732483452
P 3.9533931291258786 4.5135082032365075 0.9694009276881745 -0.09972512120647987 0.06309872823269777 0.39101593987152017
P 1.673630868519699 0.6538511324267402 5.033364747708858 0.5294970988002752 0.846470152722768 -0.9154667344971394
P 7.540274517555822 2.191004021856035 11.141844704668046 -0.29889537048517556 1.4774666910211265 0.9525523264955273
P 3.7297223674755138 6.354813962161921 4.502201415371683 0.1306459791550524 -0.08634921412020612 -0.9284518339028979
P 6.667831618239115 9.02617021393778 5.646349379556244 -0.0516218379413498 2.3706728143478526 0.8549681628914502
P 9.123022468242342 9.162094488782303 8.6795007684186 -0.6156455097635849 -0.3391058812657902 -0.22649644789747447
