# total energy = -340892.25597122114 ev
CRYSTAL
PRIMVEC
9.05750077134036 0.00000000000000 0.00000000000000

0.00000000000000 9.05750077134036 0.00000000000000

0.00000000000000 0.00000000000000 13.25656792506319

PRIMCOORD
 96 1
Ni 6.3556936107312705 2.1410482731049383 11.323773567561206 -0.14643718055103813 -0.7855275516011245 0.25061750931539417
Ni 4.6710709187921635 0.3172851593665108 5.909884326272941 0.49435526079181963 -0.9158225751746615 1.2116575615669585
Ni 2.815650933948547 1.5796190849686447 5.101339343348836 -0.6336283194942507 -0.6066525622363552 -1.1238597879256838
Ni 3.4891938671965783 4.209962609703989 4.860905266913661 -0.19265198854420368 0.29489910484158893 0.2082776108966026
Ni 4.5726702299172315 4.539474489423249 2.063835795891008 0.9227005332414172 -0.22797946020090412 0.9282633720411756
Ni 7.254732084317143 6.2683430728529705 2.6817113291182975 -0.33142188235797115 -0.6577113285853834 -0.9760036155399321
Ni 5.09319574436435 4.50002001586478 11.347609286710991 -0.07361042639729903 -0.853408274603498 -0.2848630607618255
Ni 5.516787885068876 7.9230397820929985 12.52841121295961 -0.04269933864073936 -0.37290817452721586 -0.19698095493686077
Ni 1.9999142953758144 6.584884611402413 0.37359383044508965 -0.019666882301308065 -0.6556079090891354 -0.7336848558982203
Ni 2.8572429776998076 1.6325964072467631 0.7305825446425344 -0.49963450691288785 -0.18292730505727203 -0.9472468551222138
Ni 0.6382712135668118 9.048850903631898 4.55267670261398 0.4156962162270196 -0.5758594881148985 1.647862696380607
Ni 8.674703659886896 2.3754473367458053 1.5462195507062813 -0.27797430406179224 0.4696253621453073 -0.47863450762245313
Ni 7.036482544632831 0.7392858971775051 4.952772780449354 -0.9408934021003602 -0.6380750424116947 -1.0780108479123691
Ni 0.6312054571795388 7.398221012258665 2.4538970685713255 0.39611238055782105 -0.1358581194836112 -0.16809641069202663
Ni 7.617213267009963 3.915666293160882 3.9409521181914555 0.28124423306231566 -0.4250863991926679 -1.5580221812776909
Ni 7.546003195587401 3.949912703749627 12.576904166583276 0.6524994453671408 -0.1951133056005027 0.3815596795546267
Ni 8.5886936321295 8.924301209898541 6.8237254734438935 -3.1926892049036306 0.5536001624960659 -0.4816244434887125
Ni 6.894469989324467 0.8293419105498167 0.4667891736005428 0.21607628100541496 0.3093533325937059 -0.7859258154808078
Ni 1.8969486260891584 6.4658509356665546 9.24593940415766 -0.4586598642727391 -0.05490256557515061 -0.16300176977793862
Ni 8.936854906030781 4.8137899591642475 1.4037115501032322 0.2376432085429133 0.2792436576925191 0.41879593819826577
Ni 6.6401987688912945 1.7822897232478687 7.10940448370979 0.03524776745870059 0.28664534947322895 0.12473861253168195
Ni 3.238826429615495 4.13853515826182 0.07077440563326907 0.405037965182225 -0.0521730824591295 1.4318370661074695
Ni 6.114537651480987 5.784427976707811 4.740495756803713 -1.0850836955987504 -1.0139320151545892 0.5105249285731466
Ni 5.458530039814498 3.1146390359148146 9.16421266853658 -1.0903102341050126 -0.9322874055989041 -0.7426060696472502
P 0.18100147332484365 5.619952819373505 12.589987726513305 -0.12260639668002755 0.5571210311651308 -0.8213365908799338
P 4.06494296412441 6.006237114213169 12.435151561548356 -0.4787952015700335 1.369432792838635 1.6308211675172881
P 2.3794235796044294 8.43543166080653 1.5115664583308577 1.6788953973166958 0.438527098078606 1.2851659151687544
P 6.526074258598203 7.909227093347208 6.009957935548757 -0.6554955518809872 0.535996847592006 -0.6007012297489267
P 4.797214732669298 1.025743852513656 12.586647320212027 0.9179527341437869 -0.301031700101888 -0.020426643285468046
P 3.8885753082174985 5.95519809710987 8.227370903791162 0.23141214003153693 0.3986354040899908 0.9452460226421012
P 4.66906015361081 1.1399589378149169 3.863016852412336 0.06846076387555952 -1.1160876001794326 -0.02249278178587739
P 0.15388331587900897 5.637497198455863 3.6381589601320043 0.16179000885802455 -0.8664162568273918 -1.1336081255616992
Ni 1.3669942532916344 1.1968038129418568 2.83739618190979 1.4995095297537788 0.030018914959593464 -2.021564056233079
Ni 1.9009067539461488 6.465787533160837 4.645260664464291 0.03696089349506537 0.29215779465102587 0.9788451987537852
Ni 6.101485792803817 5.768369027759425 9.153686946837247 -0.15803696957349558 -1.4252344731892874 -1.1459370794406976
Ni 8.594952365193986 2.2406536095885197 10.18376209624155 0.7754501127604645 0.9817477171125609 0.46753634082676254
Ni 2.2683242745841863 5.300322673045494 6.895603082676662 0.39003120736074764 -0.8945171288286659 0.5222730702480102
Ni 0.7864537384316564 0.15441317967679832 9.125768106319198 -1.1199982480877486 -1.9356704415930532 0.9417400663713716
Ni 1.372274776267894 0.9016334475699185 11.449710870419715 0.010434565069762675 0.9899845032000564 -0.7212754264902739
Ni 4.167772770898813 6.930618475084763 1.9108546070933634 0.19075579996275535 0.7220997221637822 -0.6440063202944651
Ni 5.734792872231132 7.948074714350944 8.218952862531925 -0.9993201787786853 0.5998188271439735 -2.3563605114902386
Ni 5.261610914554013 2.7631536592137254 5.30843366502704 -0.01170237603859275 -0.6777358513364263 -1.0707490241436333
Ni 0.7719970613777831 7.224135846557615 6.815850882233669 0.9678205655085074 -1.549318997076738 0.11453930340117693
Ni 5.065923609404628 4.603873320231494 7.06089884958498 0.6957076053234987 -0.510522100359669 -0.41507246660009156
Ni 8.139840121646605 7.378711155499036 8.808405958195744 0.5533417666283567 -0.5003618719972157 0.6302216078055469
Ni 4.727879563915836 0.15780793098297696 10.408274897740759 -0.6890438201500778 0.5241947127507552 -0.04614924486255278
Ni 8.263031190257427 7.235602642591825 4.66428322767997 -0.7124262036297602 0.5690095550726006 0.7741283086252475
Ni 7.3009253384833945 6.155160542644837 6.8067435651622645 0.5630535945994819 -1.412527310035264 1.141081551120609
Ni 2.34363739387681 5.3215806274627875 2.4563489340424636 -0.8778784918307203 -0.4821600042772083 0.3267815553724824
Ni 2.4452897255450137 4.993626637884035 11.356968402305107 -0.9315772669057569 1.3295030465232331 -0.8014411375075875
Ni 0.9863708964625392 3.530749680944571 3.839725489061647 0.7576061426005082 -0.7718893919923997 -0.9789819814419656
Ni 3.3981388114841615 2.674589416225959 2.9886537283019763 0.4600042941157755 0.3009378548365011 -0.19252831848214583
Ni 1.1888241547221574 3.3067848582447867 8.113987297064893 -1.244713463580663 -0.20911759029939472 -0.08851099765821531
Ni 3.7050522266652264 2.5096523263499906 7.179650837045433 -1.0708305281138462 1.5569392326261573 -0.3797390814061202
Ni 4.132367000205503 6.84931834775216 6.310086376867872 0.5597594972292425 0.747832351043196 -1.4396771309771785
Ni 0.41992385287367645 7.356737658517207 11.133846832931377 0.7285935574182419 -0.17147458313564018 0.3455248974182566
P 0.2241686164681648 5.451918064218152 8.020157023102175 -0.16887108407452206 0.34864673087668985 0.43669852951029947
P 8.672955562229232 1.5774815147758534 8.017453359108327 -0.629504270023548 1.4054233520006312 0.8181651351304876
P 1.765171046703905 3.068137826720788 10.579285041914465 -0.38259043481198624 -0.7756012936263481 -1.6623475202603437
P 3.9386814027366555 6.072845975220741 3.9922420280673836 1.0426787482699784 0.8543634394279157 -1.1990252175149287
P 6.989546575399592 4.021494132705683 10.32063633133648 0.7457237893406253 0.23708579337754654 0.33991063655527265
P 6.316818817225083 7.728910367084123 10.2044285958555 0.9540294252616859 0.5476814830187858 1.2174682547114646
P 2.4497369584461177 8.379121178227788 5.977625374882626 0.03403677786973493 0.2877411536405689 -0.2891943411473277
P 6.728518459357004 4.059254853611389 1.8406481067613147 0.11877982384508577 0.6625707135602137 -1.037437040255065
Ni 5.432498782466692 2.9419396678387524 0.24295840191284884 -0.2879126462214267 0.25888257753766386 0.44416784130415116
Ni 1.5735052719172289 0.9914974419249113 7.089188141886442 0.7588307590362287 0.8588140190001017 -0.906874107732122
Ni 7.056037688896544 0.6288088424633839 9.315960225722963 -0.360541682542063 0.15593637829072501 -0.3066709006655364
Ni 2.717585372603841 1.370399873598793 9.189465886564214 1.2451263827483654 1.7374525289252982 1.4038364671294854
Ni 6.026688951057757 2.1065210799908693 2.545075306294852 1.2946586851505382 0.46717124417785993 0.5606416427238796
Ni 4.1777813093015 6.613044381442193 10.315121219089063 -0.2749730553416232 1.2919657116994072 0.2731372876844651
Ni 7.9998111590171455 7.4463797441021855 0.01724819880564562 0.02042638617515192 -1.0887349191980928 1.2284692338076584
Ni 7.619740309737882 3.826141955086524 8.11071301051958 1.0772279469997577 0.35416688936397067 -0.13024128751746603
Ni 3.056770663195563 8.670156794476807 12.554831942842544 0.8576444241720327 -0.6487237803747924 -0.032433695048673175
Ni 0.0473526142708162 4.854458137832182 10.274396883916063 0.2725202229257565 -0.34430079520316836 -0.0342118699950185
Ni 8.68510167082471 2.236523389216008 5.807357945775904 1.0032994751414075 1.2414702740530168 -0.17595113084975506
Ni 3.6053472576726584 2.4468838456887902 11.595228678544222 0.0005378747813410092 0.41448779774121525 -0.9044374732661715
Ni 0.9637090294186251 3.4600377720669386 12.55440714605423 -0.6153107521319855 -0.4189826002877752 0.8761206285993492
Ni 3.252765923372723 8.384003171168104 8.186845833636134 0.23021734839248736 -0.7440407452112476 -0.4077543356721236
Ni 5.454463221947704 7.928673547601118 3.9116818985515223 0.8172655061343538 0.4761762758899477 -0.4747850519693758
Ni 3.1095577779565264 8.416619231609804 3.8380154329074134 -0.35257383384523794 0.4415635709120847 -0.7009071472465671
Ni 3.123470099211304 4.069082241997738 9.148994255664006 1.2023478541302584 0.08778980322147462 0.17286940660063776
Ni 7.1257985601884 6.120524659520966 11.24317358504175 0.9769024732051176 -0.31414509755539444 1.5839399295847174
Ni 0.7783952799548497 9.041043337927722 0.32420780724087667 -1.1626191680820688 -0.4210299697351072 0.3995455746090861
Ni 4.736339269678832 0.43962663440070526 1.4152979051482262 -0.6369422143588321 -1.6104390043165102 1.3037763311810902
Ni 5.895635971737857 5.635169420745917 0.340656228724389 0.6097872512105951 0.4738975071581 0.27470103262715917
Ni 7.786552302282951 9.021995413709755 11.592576642305032 0.034057860915657476 0.24150037750547437 -1.2045186365293319
Ni 0.24095578848222957 4.849340649870626 5.692238016143034 -1.3037213095734386 -0.07399789164370482 1.009668869002861
Ni 7.8850073361627855 8.921248832123242 2.4617843402826924 0.5217033137874694 0.2513906400359928 0.6852020778064845
P 8.485102995286477 1.6247978990434018 3.5890039031986225 -0.4569732205989355 0.6982833364704748 0.9308367891953065
P 1.8516248920013305 3.2661891395833864 1.6183879057152735 -1.1329149561494167 0.8952897453286324 -0.03256687819242778
P 4.861667908482445 1.1169981732440448 8.108857128602194 0.3060736334011696 -1.5664913950909667 1.947088710732324
P 8.743794276118301 1.6069093349300005 12.674259619863935 -1.3510368068299505 0.7543477835642105 -0.2990298391805108
P 6.324001415372895 7.853505348321565 1.4947575483148323 -1.158828847801701 -0.5333023314789782 -0.6838267947255126
P 1.8281659648855282 3.251651850772243 5.917042469168546 -0.46325622539416994 0.14332717416714671 0.8788511401566349
P 6.955997592373751 3.856131340291319 5.926878915055712 -0.08771626967106184 1.0032850769637045 1.5870797607652796
P 2.522984967552486 8.309858469480861 10.41681249801078 -0.5439562116483987 -0.08234806338061301 -0.48888241060270643
