# total energy = -381166.18358785514 ev
CRYSTAL
PRIMVEC
9.19361598329328 0.00000000000000 0.00000000000000

0.00000000000000 9.19361598329328 0.00000000000000

0.00000000000000 0.00000000000000 13.45578629649427

PRIMCOORD
 96 1
Ni 5.5841378685168905 1.1811130126725753 6.37205464413063 0.8344980679625564 -0.22556262322929538 -0.3641072884061342
Ni 2.887549230925483 7.010380258690138 12.340220876052092 -0.10202651564614687 -1.3534433593889141 -1.1072216651483706
Ni 1.4644142828853501 2.6566699578814004 7.7616338139410175 0.3239566843291776 -0.013592136862137881 -0.45417714591103714
Ni 6.614852520669888 4.756390671904618 11.419791000054161 -1.1357264574562829 -0.019438825450902007 -0.8045051211448919
Ni 8.24559770021886 2.383518439488028 6.988827665220731 0.6359705944741822 -0.49736319438020793 -0.015406821473373463
Ni 7.514705245832503 3.0664569939740183 4.807941114297513 0.8324473560811146 -0.6021081373987824 0.21398314592181208
Ni 7.712128951058825 5.328196798860768 4.434771330488863 1.168656375415084 1.3127451103386036 -0.38335225267867523
Ni 1.9906200755804138 5.707939098589429 10.028287606461346 0.32126345376773063 0.3495144781936239 -0.7841772082208173
Ni 8.635820721934948 7.585018019306049 1.1723579323667623 -0.5842327997802583 -0.43646455912262255 0.1557520301940608
Ni 1.3343522004676922 2.5018035000934984 11.94490275247159 -0.49709245721732453 0.529282668796624 -0.18127434283488134
Ni 8.791349120058898 1.6946040347460496 9.328021844317721 1.2104452864264121 0.16550576714671494 0.877304107384489
Ni 7.08231110854069 5.458672593988456 6.656213678695534 -0.4272749222035545 0.6323813344610271 -2.2704347580606963
Ni 0.19723983291075364 7.753399092288265 5.0829773239254665 -0.13797876537103976 1.1121964926551426 0.3673849307161415
Ni 8.386499055639305 4.782096021621149 1.5502946059565361 0.640383121719581 1.9374445027743405 -0.7582808000700296
Ni 4.054366171062577 8.45350212743261 0.3225819129877579 0.5735886898028508 1.9104299218587102 -0.9916657475572213
Ni 5.834553575090168 4.401700975172219 3.7556582395282847 -0.883962236130955 2.080943169522345 0.4577129269784376
Ni 4.153307864070199 0.6315260163297709 2.268901631578158 2.5197705724501898 3.2856713509593223 0.23818134043457045
Ni 3.335204770409515 4.513670021737898 4.230512171931267 0.06353555865980026 -0.6610715033068679 -2.5953106117700337
Ni 1.7339159358146794 3.151663425008644 4.7571316773363606 -1.2784715338677144 -3.089593367452705 0.931315528603938
Ni 0.42352873359665916 0.3556633006433357 11.159139121673164 -0.23926557463768472 -0.5305265685060541 0.6074105234483024
Ni 1.1265948711063978 5.6643337789522645 0.6999890343086933 -0.506562601491289 0.5530694868035765 0.9887596296540198
Ni 9.58949287386458 8.955574678709256 3.071095173134244 -0.8767117252161288 -2.6501126472115777 -0.2581199883400264
Ni 0.9452875743396889 5.101059327438512 12.121025769300834 0.29141011785172394 -1.1922043379383533 -2.037081949363021
Ni 2.4627306330351084 8.006122396421933 3.95567822185044 -0.8842699971793611 1.5013368127705047 -0.04940554701632137
P 3.234893228650904 1.3782241349624305 4.2915072158133585 0.25305311534008035 -0.17609768372994836 0.5206177940327743
Ni 2.2633854621110907 8.105900708465393 9.9492482528909 -0.08897096801376934 -0.28278098142181624 0.276704179100117
P 1.6275825757211875 7.298269143176357 7.986870045620291 0.9309748574350676 -0.7013141528769987 0.33319722909083904
Ni 3.976110113556455 7.729909403974338 2.4049928872233197 0.3297786903275933 -2.27302925826075 1.0369035363490982
P 2.308618051741039 9.083108516787842 12.74514540875949 -0.672184582500894 1.0132252188955517 -1.0206780756291711
P 8.525828302761635 8.405116127590656 8.984791989653154 0.13415862029400122 0.9234790632786547 0.0732720692212738
P 5.901547453267696 1.6571032759857736 1.027472983229518 -1.0665349860622857 0.4275729130599475 -0.26640485405663794
Ni 4.501001219195201 7.948487619106862 10.831961320157761 0.011282257782038634 0.6564823412742887 0.34666183923617716
Ni 4.707149665795267 3.4150053553664157 1.8888154906193837 -0.8375335123547705 -0.15333236500897462 -0.12993146958653107
Ni 0.9672603160501719 0.21742993252179613 7.787751037644423 -1.3371605630684906 -1.3208703105488993 0.5445151694756623
Ni 2.2140065517650642 3.4612308555004354 2.470199526493517 1.0673932202975231 0.4493612125796325 -1.2517647140004893
Ni 1.5304979931008111 0.7256612870084225 5.726984593036054 1.6093198031104026 0.31809611178334246 -1.6186230827891994
Ni 1.0093119146207783 6.422457723274375 2.9549310796888606 -2.7062552558414166 1.9356784120128534 -2.1423249150639365
Ni 2.9164723461644706 4.349803014102899 0.07683012769888492 -0.432566509619797 -1.3395113226888544 0.7204714425317398
Ni 6.816109963675823 1.2050807690069807 8.548029965505002 -2.48118551308814 -0.317389315524305 -0.8542850207814966
Ni 4.822428414041187 0.5841320076303105 11.843850205281239 -0.5641871939832929 0.9244460551776144 3.0085966758936635
Ni 3.6521546743713977 9.08938775636452 7.0105052918647255 -0.5650168889734398 0.336674131895846 -0.4713091776056334
Ni 6.777193388085666 0.039598741880917214 10.656955327645598 0.46907154652436633 -0.8069852072542683 -1.4154213437536074
Ni 3.509754759579067 2.224000012116234 11.03063627649153 -0.3051817177145196 0.7021685304574938 -0.2904968620088352
Ni 0.6452530040485668 0.5047901841007544 0.5388745952377605 -0.2088525095634661 1.0148462994387426 -0.9163401382410282
Ni 8.019149749979988 6.059383448952035 12.72089816650542 0.3103825451891687 0.3611860009942812 0.07489674930889037
Ni 8.699780706905589 6.5027547634833125 10.339520000770612 -0.10621818512999125 0.5439531263246051 -0.3855423183514586
Ni 5.763928218680157 6.262139451329856 2.4780039869278383 0.3660716112213566 -0.10619633075312035 -0.6072714267672767
Ni 7.836012923673369 3.2834722944242065 13.036571077235676 -0.002935428479240106 0.19500866170183834 -0.19308136277213844
Ni 4.137007583295017 1.7560081945302823 8.374463693223744 0.6400049124445558 0.3995656292137441 1.1604015916054595
Ni 7.4577599897008175 8.716503894006578 6.259698546340679 -0.22461028661835508 0.09348968181972932 0.17913364234279472
Ni 7.526859205891608 7.3600686284390635 3.308132330026729 1.0605795398097992 0.8980238564303437 0.649504624404875
Ni 6.38104967780826 5.163143814790349 0.5249710900960185 -1.4592941338771577 -0.8781628558403586 -0.14885324619169849
Ni 6.000820116443342 7.518897534627474 12.932706202978697 -1.6917789381475832 -2.2681464762471517 0.41411267378998357
Ni 6.591822513144884 7.585008825690271 8.399653281095103 0.11696565345448244 1.0620044451817838 0.39374799409070255
Ni 7.132967931479921 5.29489752251124 8.765152831259797 -0.6697628604332788 -1.4126738629154576 3.1270026613390987
Ni 0.9169767539115462 5.667744610406068 4.836722647853512 0.3352016611153776 -1.623368825004301 3.7813545865339457
P 5.859091335602837 3.3764841052547316 8.94103313663249 -0.3511977794333177 0.16211911006266919 1.3027723153966078
Ni 7.538709776630022 8.921190555697873 12.895164072947418 2.473527996542882 2.114113485626727 0.11677230649675373
P 2.7333998751683004 5.741550957875422 2.170902284187826 1.4934849208262535 -1.518214819472766 0.5355245359412777
Ni 4.889964715549642 8.785281333645125 4.513555101540668 0.274564764159611 0.5498589502860788 0.3990868898051127
P 1.608367918744238 3.451439654696392 9.833892278272444 0.9482696399597734 -0.19407663680587223 0.43979902281249417
P 4.171180253143496 5.053169782848593 5.976548970788248 1.3676340490669994 -1.1293462649615518 3.581530248611019
P 8.719969887155054 1.0084201338902692 5.191874783459567 -1.149191838932569 0.11514685507818878 -0.4968841978612605
Ni 2.0765895767246505 1.1100555563209757 2.4487112883345583 -0.3525784618309283 0.00657302523182739 -0.4083981399037096
Ni 3.692349162554758 2.620134528777861 6.15843086854111 -0.37000694172002085 0.2964577075779604 -0.12663068734807223
Ni 0.6048433852559908 7.502440962384059 12.314613898024389 0.05087184714920271 0.3011134611824169 0.3730251597210543
Ni 6.061976048601556 3.492682215078495 6.896211179868677 -1.5241108732422268 -0.9278054585681506 -1.1208672809562632
Ni 4.963697514092769 3.0991311044506107 12.920003384057619 1.248968639312591 0.21716437186327117 -0.16951308853389516
Ni 4.16459762424613 6.184490172465112 0.7182990394930439 1.0943936601457667 -1.0219880526898464 -1.06415183054209
Ni 0.22281095583691984 4.0636976910776985 3.3907636292818126 -1.346830996278719 1.0853271790681243 -0.5716364511724864
Ni 4.522983154521463 6.705133827614216 7.614494590214899 -1.1663598660714236 -0.5080988356301571 0.005499589661990528
Ni 6.913580678158894 1.0283243120506018 3.6970710036185674 0.8165332559540196 -1.4412845846736144 1.15453999061836
Ni 7.812642752364563 0.8234749233600297 1.640341475698513 1.8779417194230172 1.3437618704350922 -1.421058744545043
Ni 3.145724349215769 1.9213921487687249 0.3188024175412393 -0.7408793167641305 -0.9443453652047027 -0.33561483739339615
Ni 9.318557016873813 1.8720224320384764 3.1850785409169795 -1.4602117605954208 1.683432623065417 0.5245186717490773
Ni 3.5096260489581685 4.569659141828627 11.379261864256465 0.39626973207129174 -0.18582005322403483 -0.39503508833324225
Ni 2.60311714597196 7.291236027105847 6.030317832668483 -0.9092459503984083 -1.2560720831265917 1.0932029822717753
Ni 4.665429037392686 6.055779551566885 9.913213875847287 1.163843270297157 -1.3871824035125722 -0.015173108196012577
Ni 7.049609417216762 3.2093625576341633 2.1551867173761527 -0.04762377252555024 -1.641060328746793 0.6704115497608711
Ni 8.790494113791503 6.738102133795719 7.326957821212994 1.0544677704851066 1.3475339358830147 0.5674072435824873
Ni 0.3041358422898864 4.768333178800818 8.529232698684394 0.7001579277853683 0.5084929857447823 -2.179093232932221
Ni 5.275122054971806 2.4226556618568678 4.206708981319296 -2.292567328293677 -1.8159917600827822 0.4130497797431079
Ni 3.801679641392023 4.404348736516412 8.599552827050562 -0.295927031885471 -1.3065744627515177 -0.8652209509677099
Ni 6.1724189549480135 8.696066486131096 1.899069130297083 -1.4894125505290927 -1.8176465220773856 -0.35696707781692716
Ni 1.8232227194864916 7.838145842533968 1.1443725659371764 0.8948639706451235 0.07547833284397323 0.6098731260561819
Ni 4.301600886576513 6.4589563779148005 4.462274951451659 1.8950776077723555 1.9726925273433575 -0.4203072326364697
Ni 8.7414461736135 3.9562702907065717 10.367306785099386 -1.05407439170143 -1.1327043828005072 2.598063234814506
Ni 1.9990690084808045 1.1784192832494909 9.557321654171067 0.8001393879770284 1.213572004980852 0.4189957129138977
P 7.828777548055733 1.6579031205584982 11.635016303512288 1.3951019154699653 0.11960257685669724 0.16413588338238183
Ni 5.892114803479012 2.2697658314613314 10.828449358930394 0.6120894169812103 1.6946331197669264 -1.2044453600892353
P 5.876448882192541 7.143126876915103 6.069824638391615 0.5439227873073019 1.4094826096716693 -1.5628476276907923
Ni 0.7391759022027362 2.9552969855968425 0.7811134999376897 -0.40732213323071137 0.00250631136162149 0.13955999381523063
P 6.6384249515258205 7.106398381880215 10.939823578555208 -0.021135753537350695 -2.323805974592985 0.04384836464351803
P 4.700870426218589 8.74534426670356 8.843734342764476 0.08405630432097136 0.5944755605541892 -0.13067066174540073
P 9.074153935019638 4.338779868784544 6.4138883540072875 -0.2674932020248103 0.2055779525772524 -0.7125940966661921
Ni 2.1498718880946335 4.581362614714587 6.4894157463503666 -0.01636815694537826 0.8384598808237818 1.6934437274445158
