# total energy = -340856.72467530955 ev
CRYSTAL
PRIMVEC
9.42080821585571 0.00000000000000 0.00000000000000

0.00000000000000 9.42080821585571 0.00000000000000

0.00000000000000 0.00000000000000 13.78830509379505

PRIMCOORD
 96 1
Ni 5.419592981548937 2.4987468404845226 2.6831214730400204 -0.3679742275607082 -1.3679739489049214 -0.6568217268915786
Ni 3.1667198079728993 2.6583164856853307 5.691095014427683 1.017038679104371 0.004278829881011986 -0.48755829247464416
Ni 1.4402060166533002 7.066406737539759 6.4409583550951846 -0.5272316998048663 -0.16380678217773725 0.5956898925772645
Ni 1.8519612700947772 5.328597397477937 11.871744198579597 1.0397453766732674 -0.5165035147540846 -3.2879110389231183
Ni 4.382164188352679 9.129507155600088 2.198214587881708 2.4198492760725037 1.341694189272786 1.8322007657424768
Ni 7.7303381784139455 9.427402524055323 13.228637300052041 -2.3540166938484104 -2.9274832562511 2.1582235885720635
Ni 4.131834479279831 5.0514749105711605 10.692499272780294 -0.45185749663892505 -0.1862129177870793 0.8187058381253061
Ni 5.801766898000774 3.551578654692903 4.637241042555806 -0.47136394210296884 0.3357691035830733 1.702078006080746
Ni 8.837697629086035 5.833938957178997 7.148505310574767 2.292205574078884 -2.3383023684369473 -0.4314712196730892
Ni 0.7950935817569816 4.349059469186565 2.110382511123166 -0.005400602190281022 0.7773830681171192 0.7263201880030331
Ni 0.4735736531842556 9.555996552688635 10.003153318276505 -0.1303896401698722 -0.9618208962816467 0.9977906295080364
Ni 8.24236851176553 0.9580584861460278 1.6547347713223146 -1.0258467643143043 2.149873673945472 -0.678119202817774
Ni 2.6204825209240576 8.432348525056327 1.2814804758455718 -2.190939847858162 -0.820669132499264 0.044072307728866035
Ni 8.29757444640225 5.924011302070067 2.4930218154881514 0.44808774518384764 -1.056922402673186 0.23423084042725464
Ni 2.2294813074151216 0.8993461267871615 8.083835155440156 0.6548160093154594 -0.6849557661236333 -0.08369994942281714
Ni 4.429390698648561 6.6450139975567515 1.2669243854689176 -0.04553423698637319 -0.4517060586627253 -2.260439851631513
Ni 7.870529221644151 3.1431583672687298 2.970138634545593 0.053761252881855806 0.10826298347416194 -0.8554687566769525
Ni 5.214464309060899 8.068422713620075 4.282757706936343 0.13755376201847921 -0.2830635456592415 -1.7885668311026102
Ni 3.0012998410298715 3.352714819497256 9.24846369769187 0.18168340534784191 -1.3605416609965924 0.45916534315424795
Ni 1.5087800777831077 8.300136906166957 11.77420586338143 0.7535664253134957 0.3919240535080863 -3.184387627016471
Ni 2.355710713250854 6.9183587404721765 13.256365564116248 0.7451653457339941 0.029591083393555487 2.620539304429835
Ni 8.674350239893872 1.3215792028400646 12.05186062593786 2.444061611652649 1.9620247632168661 -4.6043809064114765
Ni 8.163469245113223 4.5919844232040425 0.40405939542019104 0.34350889542949226 -0.5612733627706075 0.4583983830812363
Ni 7.122611277820077 2.0274991847852166 7.854907637887393 0.07905730844448319 -0.365110532859668 -0.8339169986481056
P 8.63459443030907 7.75846871097798 10.773960999197309 -0.4607522280253936 0.5672630046951391 -1.0814504697215375
P 1.919951241131159 7.92549021527395 8.59582215307513 -1.784641785016591 1.3192415166962246 -0.039110849958532645
P 8.644128287963055 2.3889755861522626 13.742017635184077 -1.0849569402128991 2.444203279436836 0.8514223545217209
P 5.243518080804864 2.717563946936239 6.816400162179888 0.6696055089198081 1.512944829323078 -0.6304825747764174
P 6.98851549733901 7.384980779463866 13.636453713686075 -0.2077531058517003 -0.6477601309099424 -0.6228610536754177
P 1.1475580382309412 4.138485569698521 9.177978154627287 -3.006181638694268 0.13790651737220763 0.3690983138628224
P 5.93244292519291 5.054856980628256 9.621203617054078 2.717089627452759 2.0827187733655292 -0.9407669038248249
P 3.5595957622655736 7.128706540569215 11.072697645803235 -1.7000627754229303 1.0701754110283506 -0.2830715160790415
Ni 0.921676267891157 2.129055494577678 1.1293363114776407 1.4027686879866035 0.05782308165605525 0.8513040837763016
Ni 7.883200208348313 7.640105679787582 4.111010725368398 -1.3660865020742217 1.2861046249329398 -0.7983280457999026
Ni 5.661660642042194 7.7417373560437115 10.883164178809672 0.8295538365834036 0.186244285245647 -1.1692940089990829
Ni 6.852281193451367 4.891933527794227 7.421596633756107 -2.3181778297729303 -0.6392189262081507 -0.3906287317354305
Ni 9.063354242115611 4.086906646125819 11.979058506196285 -0.6518702964235741 0.41797935583424145 0.008660246778159278
Ni 3.8235856428782227 1.8626915703594908 0.8372978593301957 -3.1684892106186595 0.23755476259416505 1.0712753289607486
Ni 6.441515124845531 8.139757071481718 6.0874679726345455 -0.5599975813819775 1.06246827219208 1.8125009733207045
Ni 0.9663299555335771 0.041255602211794806 13.512703864505017 -0.9127843025689699 0.5753648078666672 1.9217121796407486
Ni 5.8819097113036 4.678269603295801 13.429587844210491 -0.7517393994070859 -0.32972366871994185 1.345283192175625
Ni 0.48729788621817566 2.995873455645785 4.119793744628093 2.0130747878151456 0.3300597119031219 -0.8599938982408157
Ni 3.5234669637447857 4.334249959075827 1.7823311363928231 -0.03345853676876173 -0.540153807183173 -0.350990291408202
Ni 0.2823887185555694 3.6842142099404045 6.337697821143034 -0.23571668094416176 0.09259956590529213 1.6184150805434514
Ni 7.905687676945215 2.5498264612354244 5.31060648051962 -1.3579170788895516 -0.4440020051502482 0.9168245340766145
Ni 5.218750776682009 8.715406120976949 13.875446422461682 0.21961746138945407 -0.24802609443913412 -0.6787079854417085
Ni 6.390595657829922 7.4014106685434635 1.9681697625050694 -0.10090294356466493 0.3678006780973214 1.0110294967958138
Ni 3.6489332841358806 8.930662162020358 9.62973792698367 -0.22392303074334338 -3.9246344524029246 -2.0076896122438326
Ni 7.22944324006929 5.853920490858943 11.65809440529311 -0.5947252146711499 0.1479757286827516 -0.1433829671057466
Ni 8.58374090894917 7.712523430564452 6.263158504413913 0.7257949116271822 0.3788145127093218 -1.5758859489319892
Ni 0.6899997585761091 7.724977738685568 4.055691741036178 0.42864763418136503 1.3751439842907995 -0.32575234277701964
Ni -0.04253212169016945 6.670902377826668 12.431218662890904 -0.5950466025663106 -0.6013969702643708 2.0968148464472796
Ni 4.173757074695087 4.835135476612526 8.108116345872352 2.7575814169192188 0.1870351565780585 -1.8900372171349709
Ni 1.3832666533522204 4.272958182497928 13.682410299069154 0.16687590802136423 -0.9471869484185558 1.2344069394483321
Ni 1.3622299891809249 5.598249183673635 4.330285683086897 -1.1445664243454161 -0.9486316512848824 -0.04270525217801032
Ni 7.909795149215115 6.7185622452886395 8.88376349584143 -1.9839760706769767 0.6938957489257405 1.490557976987446
P 8.059397579595847 0.5097307141289187 5.9179678537647 0.08300112358357964 -0.9376507267933464 1.2799512037370344
P 3.1988165006874554 0.28226907429449666 5.957126384124935 -2.6709645509599222 -0.9668918830466507 -1.2139149901425672
P 0.632559208291638 6.447327763355916 1.0390331567915887 -0.24781192154579904 -0.9132771830449885 -0.3956115296620025
P 3.232373418635577 2.2540790369947246 3.227373795852009 0.3533315379468689 0.7074673169625881 -0.8866269274473118
P 6.560716607944234 0.4549524841735154 2.8864846861166393 -1.250153917869944 -0.540835663741546 0.5823258125655326
P 6.3257051326118825 4.431105285697005 2.1303065778745647 -0.1257022619965319 0.9289475425923936 -1.1010836705714329
P 2.187671761695368 1.3539962030252095 12.390280541907313 0.7891538354998021 -0.2805181535295685 -0.004439780938908482
P 3.3660075795266775 6.64931930679378 2.8916416363931137 -1.734281587396484 0.5808158036789095 2.5398321190867548
Ni 4.7143324561608795 6.665136843356074 12.754071635789758 1.0632272618452914 -0.27786014708143114 -0.011365304414148169
Ni 2.4190656467716614 0.25791345947942695 3.8573196720159637 -0.5492727387653056 0.8875643516599165 -0.47795110840218324
Ni 5.7692556897360445 1.1225928971409576 5.004975686649673 0.683195588899417 -0.29527114346902694 -1.1512605485361398
Ni 0.4755520228555373 6.059058584154941 10.12064304056915 -0.030041283557096655 -0.44286969131801796 -0.2978340191001967
Ni 1.10995959366863 1.3459414122207054 5.892969739846861 -0.574148933181695 -0.7212391739356998 0.19749903222385987
Ni 4.844914275273432 0.5898490333310532 7.062108022868302 1.0248874857248285 0.017097321801918943 2.316147172496146
Ni 8.495750562616927 8.156252906217025 1.6624004827581333 1.2907750338254156 -1.4313896941574058 -0.6634734278801412
Ni 5.3916414443361145 3.0947071519382443 9.59249558896219 1.0321788771799192 -1.892885228106727 -0.36517789576249365
Ni 8.029590143215202 3.8586498900997017 9.250146253993256 0.22238371128068155 0.5906777840746538 1.1656800663955795
Ni 3.6185700200856856 4.991426680643781 4.250272876933898 0.9126973992821185 -0.5458351738386664 0.895471008101503
Ni 6.473291510089499 5.751459783502467 4.111451619180855 0.68045453581917 -0.5536009338270143 -2.199609093497386
Ni 3.6700264731549277 7.708858736268601 7.311938429119349 0.5603791330911123 0.030071365464083698 -0.5715161235445383
Ni 7.014036466098545 9.114330233978968 9.07444159100195 2.3972518503879616 0.7157221007722125 1.248682989751372
Ni 1.407591179501027 2.970069862647496 11.12466659082542 0.5849529657757344 -0.8663866891410368 -0.23813068970229312
Ni 8.95893400670377 0.8183931239999052 3.967722120481442 0.2685627809399052 -1.034062210245561 -0.42314650185747776
Ni 3.943785731620525 -0.05661717166889945 11.740865624016353 -0.42325423107993554 0.1419205236276072 2.7574117241105736
Ni 4.104966334982234 2.336661839558799 11.503568660673274 -0.3375837881943089 0.7558019995122338 0.9726218435518927
Ni 2.214351489833796 5.827325549992142 8.349011115774777 -0.977811358172632 -0.3155332361521727 -0.48808819683618526
Ni 6.127971794371255 0.7458792809818592 11.175696281294142 0.623367818108507 0.8053317308112452 0.36214733646628594
Ni 0.3218006686498888 2.078305602105323 8.83893740741337 0.2250383752947092 1.6370910596863997 -1.2837127276619955
Ni 9.192127266100133 9.092125389620822 7.813680298099474 0.8221423746106808 1.3205856894289452 0.22429609781204599
Ni 6.80694826555514 3.2382802652255465 11.874528989412125 0.05444053833706754 -0.8759087696988593 -0.5887106330459538
Ni 5.608122190414127 1.5085162951602702 13.645416670377779 2.691140511687165 0.6321746177668597 -1.7579329082668371
Ni 2.986735271926055 7.6094221082667985 4.892600520997688 0.6043555386720624 -0.22905778086674747 -0.8481233720554748
P 5.592973531216884 8.130656570993823 8.179374395189532 -1.5719871280982152 -1.419457204385878 -0.1910360502073355
P 0.7287334104974176 0.036920146389300294 2.1066876702418487 1.785084271870648 -0.05136138519111155 0.6786203108239086
P 3.9089852670218836 1.4341201747121193 9.510413973381507 0.4715657737011298 2.548065305629825 -0.07299978939649363
P 8.41498597598884 4.589695166870131 4.714125198385793 0.36713476237854836 1.0044114772586636 -0.18205518686496389
P 5.510871189858693 6.165965912867821 5.824138490659786 -1.5535062956852086 -0.3991923050347254 2.3157087994071475
P 2.156413520889117 4.584070944518916 6.134044447181293 1.2144068421773213 1.2256543900666825 0.30721571742541287
P 3.6883499446341794 4.725072177233552 13.056518196569735 -0.6698186533718786 -0.5975734827532225 0.900155815171682
P 7.964671355573286 1.5451632381187745 9.913997617999796 -0.8152003960752089 0.7442181513293763 0.4071946065139116
