# total energy = -340862.75899301853 ev
CRYSTAL
PRIMVEC
9.30417460222778 0.00000000000000 0.00000000000000

0.00000000000000 9.30417460222778 0.00000000000000

0.00000000000000 0.00000000000000 13.61760001074034

PRIMCOORD
 96 1
Ni 1.3168477515702706 5.298038957597542 12.892979973724717 0.3823700912710641 -1.5468281123340843 1.2237157782830732
Ni 1.231044652893771 6.318446400456908 8.056362949836094 -1.0187152954758456 -2.1154723136474662 -0.5624866663524184
Ni 3.3911855785741296 3.5734822726067317 5.675774492364173 1.9997130217962595 -1.0330988178910272 -1.0335554458124716
Ni 9.050570767281975 1.421333632955772 11.678971264625858 -2.049674184205734 -0.28960417499123675 -0.5904332721640154
Ni 4.361145786449329 5.621861452320694 4.544302186220135 -0.388052486367822 0.11624034525268366 -0.29913885395454937
Ni 2.5479761420359446 0.5648303916692696 8.67069341150956 1.3446877246834712 -2.3534410238505985 -1.4720064392375036
Ni 2.1720967901131605 2.2962237841972186 1.9417468252353491 -0.7067322385687764 -0.46019378441876224 -0.40693055421924756
Ni 0.850947718599478 9.719326929022463 2.595950327396579 -1.2977051852863457 0.6601942429082372 -1.0843126217606809
Ni 3.6505022304080836 8.631380482336082 11.056674568612026 -2.0494008759396896 1.1025947078993206 -2.898361142074163
Ni 8.928620950067392 5.215371365780073 6.276460381904798 -0.16511958745188982 2.924126166853409 -1.0751695218088322
Ni 8.635353364914144 6.733784757095268 13.05293269232123 -0.18725138635392266 -0.9117221798530428 0.08132862097716315
Ni 5.147655582634599 9.25824924977581 1.0379169691442618 -0.018150445656781644 -0.7692362706402688 0.16787272471699474
Ni 7.578054869544222 7.501648987270158 6.894169189395814 1.5598492071841006 0.1890727558333776 -2.643171954227687
Ni 1.1932510954415978 9.221144201248173 10.334028627264699 0.6403486689372198 -0.4091992956487662 2.9964045047028462
Ni 1.013708437107135 2.0769988209554393 9.187754309660626 -0.08737585561250757 0.608043786156927 -1.4237740865936772
Ni 5.184732718638269 4.918056464651516 0.527859323256676 -0.3399080654521114 -0.6927770619402649 0.6324219578909753
Ni 8.712875748146912 0.8639298334968235 4.318713167513736 -1.6676041406735924 2.0590255435136475 0.4893765766303056
Ni 0.6659258318101692 4.458076678014259 2.1552032001904844 2.2880023346308147 0.11768401967774571 -2.135630790873212
Ni 2.864941460037714 4.585134487114918 11.037650322693155 0.9994844722706916 1.6136210015889176 -1.2119095296767646
Ni 5.363810168239938 0.88973682273983 9.351764578824566 -2.350265197225778 -0.18102417449728825 -0.8185263751246484
Ni 9.13038197748009 4.97882202932905 11.055843705815256 -1.2370950278034565 2.378863577688761 -1.5567553987501255
Ni 2.4381217518740024 8.273151149735497 2.735095189792688 1.2058491824152975 -1.2657674560374848 1.3415311813323607
Ni 7.122829516156118 0.32414628000117535 10.387723019203765 1.7581841050456946 -1.5468365969745166 1.748971328198175
Ni 5.599968729355414 7.467102586772887 3.0357037687494253 -0.6930519128682064 0.562471753954083 -1.8860538070071906
P 6.992980454658696 9.39982157133964 5.638625714215653 0.9335958399976824 -0.6405461296600066 -0.23880971804718873
P 0.8824014114411365 6.270827634568129 3.7538818454270007 -0.8151931969863573 -0.36471432586251384 -0.2779439650444891
P 0.7838729930877935 7.717505839286511 6.60833563979261 -1.4791029410729688 1.9692356791430088 -0.12977591784527326
P 2.246018457754105 2.000890672270364 6.528317876917134 -0.5046142195156664 -2.210612386586425 0.5839916303037297
P 5.019202147335558 4.747371380589448 11.993714745719803 -0.9897903849113793 0.49719298735093087 -0.6532448081735975
P 2.6742430962908545 4.535924707359983 0.8247825186322201 0.9342064769984879 -0.6305447954729205 0.5509236441051673
P 1.0697474810594834 7.264094799956301 12.12976876129523 1.9513575133110068 1.119279367643853 -3.119199620354912
P 8.052372389326187 6.390739837533075 8.695613712907862 2.1985294872799623 -1.3737136796021758 0.44275270612417944
Ni 5.529712906528886 7.087715561004837 10.609785755715588 -1.703061710150254 0.008403650682662946 2.710664697763022
Ni 9.163653706049507 6.611676768911535 1.8200193777950417 -0.5915393607440006 1.1628731930744038 0.2631331252839017
Ni 6.5513950213161065 6.957633895141019 0.4016565678068917 -0.5249732427879926 -0.14201359756204573 1.5850501319297603
Ni 2.7563617418036266 5.930611184101323 2.6134896270403725 -1.3846771205922153 -0.5273096042306531 0.9532269839650486
Ni 6.699256964947307 2.815145517279459 2.7073426976291377 -0.5560979892172552 1.4632181515219123 2.198716149369471
Ni 1.4334197558337565 3.830900872810887 7.154401372015907 -0.16685019698975137 0.635116474004003 0.603625088263941
Ni 0.04991503619385012 8.688433681325922 8.549864747341012 -0.899282154317477 -1.600432785033418 -0.8934915157776289
Ni 8.390188362731777 4.190628177531067 8.195044464334341 0.04916900552548306 -0.5726108992706138 1.616888873706912
Ni 6.194710181708398 0.6303680675278032 3.1281807519065854 0.21703144582983266 -1.126661519040537 0.0034036263649102672
Ni 4.9204848542367 0.7156287328218653 5.245703905575699 -0.3546096333283441 -0.15965367924131213 0.6758347776589715
Ni 6.150636306363507 2.846147027232842 12.504660940287025 -0.2335890930781977 0.15332619436138759 0.3458141465239012
Ni 1.656254738842016 7.736104884423609 0.4164846309559632 -0.13684233777375143 0.060087966430831995 1.0943067568589153
Ni 2.2641988150316896 6.663826667857728 5.501115595306581 0.7839334676411273 0.11175942666319462 -0.44468977524589226
Ni 8.035829566788038 8.95658929908296 0.10541536843362333 0.10246848827957192 1.417661803048352 0.6061015748288916
Ni 3.931953513748369 6.911736401563576 1.0562741057403076 0.9341488842876751 1.0252829213910342 -1.4481250046342158
Ni 2.924041577451846 9.09591931455472 6.4085108111258 1.1956403602030956 -0.44641909923217316 0.7413457148775877
Ni 0.15480844042927872 1.0222310610919185 7.017938903173086 0.8240922992482 1.339602853961396 -1.4490449453453238
Ni 6.210443541051486 7.258316907495002 8.621234279873848 -1.5230148119645706 2.0469048489907133 -1.129084526659733
Ni 7.668156496911737 4.307656086352691 1.263273383484264 -0.18966616644300238 1.4742744093360738 -1.527222165177699
Ni 6.514159714343286 5.1784058798722725 9.858216857033 0.47892632783125905 -0.6825137323410438 -0.9201332867348733
Ni 7.188963589610093 5.006957853488423 12.11743049528407 -0.8707668204866036 -0.1135309167413206 1.571886597964609
Ni 3.4062676456913064 2.2703767870031917 9.861443544803658 -2.0748653387593814 0.5662463905051668 1.333022115420085
Ni 6.891006700430281 2.9511539423990722 10.18172952274011 1.517237028940529 -1.0878990535603588 0.7218120157200343
Ni 5.93693802286732 5.278574624217447 7.2886978289988384 1.4305944519496199 -2.307984691290012 0.23665101983297307
P 6.642166549258845 2.0865355999777138 0.8619759568190892 -0.6224550764862505 -1.6452545693337988 -2.171368610594454
P 2.8258639264830294 0.136054015575427 1.0270217806222297 0.7428945474219464 1.8624976169538054 -0.3593463766823811
P 7.571486122237173 8.189590357151065 2.137377331967289 -0.6521582599776381 0.31123229478397363 -0.058463543453531566
P 8.992373154809464 3.5766270836404184 13.036986267378524 -0.12093260852203044 0.0820816970931038 -0.25963462521233993
P 5.986836311546789 5.216273870721693 2.7967827981786195 -0.07616121784361077 -0.2247468121962194 -0.432006780461585
P 2.4981895034523456 1.3073667975959318 11.561805654019325 -1.5517967691932693 -3.886103643317578 -1.6943307580351594
P 4.188888296870418 8.10781596610056 8.72584483719974 -0.8035000769191454 0.6602574920460048 -0.055364849923549814
P 5.0493476732206 3.181153139892357 9.284901988495037 1.7712831043214976 1.7322522156712814 -2.5153379906001327
Ni 4.89629400013142 7.010072223501542 6.599021230544611 -1.6868455054017077 2.753756386746174 -1.1638152452726989
Ni 7.166689395483924 0.42058032863948036 7.797546862598626 -0.49874876187382494 -0.22446836172385215 -0.13407351677936263
Ni 6.6058802681009245 6.28330453278166 4.624441833783602 1.592141234448587 -1.1682771376987946 1.8832682738422535
Ni 4.426768130297232 2.16000136306052 0.8300672898367584 -0.1012040197448515 0.5102410787841407 0.30679019985222006
Ni 3.2755439917762312 6.781719864922348 12.22355298099154 -0.40197655264808185 -1.4919653988579336 0.645921792149623
Ni 8.506509154279554 7.8589479024051565 4.126010684546 -0.15822954520027588 -1.0561096769639038 0.04702393415802224
Ni 8.376018104730877 4.40718284264661 3.736615158100624 -1.8327995756687403 1.617754821251633 0.6815575390753617
Ni 6.72743930997996 2.2058244232407156 4.996433901535161 -1.4885730853469332 -0.15382113171993508 -0.8573009247896848
Ni 1.2730157847664332 1.692382849030787 13.289865360768074 0.41263660346508935 -0.5572665556040597 1.517598783155322
Ni 2.4079948343382718 7.085891942772285 9.688541275921096 0.9463050600342346 0.4135071789955007 1.5649572178346274
Ni 4.2365442794578225 1.9287833186873153 7.485091278052559 -0.8091202513194001 -0.37102792678536745 -0.24895863355573253
Ni 1.2537282307047997 9.011986354984053 4.911759399244419 -1.3634534353267485 -1.918465647678993 -0.18869557499961695
Ni 8.664363781491168 3.0839059063891288 5.63490869644063 2.7215849442199516 -1.9973722894782244 0.8052818514099163
Ni 8.769314871609463 2.0522404121961504 1.3595929907743018 0.11601074574038084 -0.0717314642070313 -0.8507996333360573
Ni 5.095514987863063 8.24692268138058 12.596715513914809 0.9272254176949644 -0.3359364823988731 1.9769299624634729
Ni 0.9872380602111643 3.25744737207055 11.090364054623493 2.1373308042834545 -2.4931570836277195 2.491651702726786
Ni 4.18243119965924 5.303286512103457 9.086125740311944 -0.2852703235025732 0.22823862739956177 -0.6702878796988134
Ni 3.2431561597991228 2.8299856758555832 12.44968629391531 1.9951089473653445 3.44850445636988 2.3798282555948758
Ni 3.6038231861595476 3.768600119315133 2.8805175788291177 -0.20213293145144545 2.6172344084263184 -0.598392379110092
Ni 6.339399401781945 2.734990052619077 7.24738171102195 0.9666170321187094 0.6885828213532592 1.2593975479553987
Ni 2.655913872218776 1.3309621845232364 4.4773446933091146 0.954019655069673 1.327307838644127 -1.3441660478520463
Ni 8.907733077964949 7.373037381001969 10.552836763481896 -0.8437776934922695 0.24636233358346601 -0.2397258021035549
Ni 1.5142730335933294 4.342872387425187 4.710600351931957 -1.108314383991917 0.29145536926736254 -1.3343909707431536
Ni 4.812165652892978 1.0442261299784121 11.831569963574365 0.6878641980196798 1.3927791808740593 0.27867030168755236
P 4.632585777859892 2.3534630666801752 3.70372862236196 2.142912669246606 -2.6158028181861144 1.6604557025542694
P 1.3240119660552963 4.293262528160049 9.29523799612025 0.15102968501772698 1.1713264660480796 -0.08612938479991618
P 3.992858641045742 8.303054767079487 4.254805583054912 -0.3551567640810658 -0.4869977919854838 1.2689720790177115
P 3.484999571629339 5.3190105672718895 6.788754751379656 0.4145122232212475 0.49494507185701864 0.8324499271842761
P 8.33712665466931 1.636613626143459 9.160913626613352 -0.8818210214182363 -0.2963808315934379 -0.3627723716447946
P 0.30502527066588203 2.721359436748217 3.264165916589559 0.6510439438675367 -1.9446371638680382 1.4320800353562109
P 7.087101485477549 7.8549843240017525 11.977605497720617 0.5658638103547674 0.3454079122244181 -0.3836880387515392
P 6.944031191794125 4.2805995464534 5.573792364378569 -0.5267388193288476 0.9237544284272285 0.784422491462404
