# total energy = -340864.73361974244 ev
CRYSTAL
PRIMVEC
9.25233251113675 0.00000000000000 0.00000000000000
0.00000000000000 9.25233251113675 0.00000000000000
0.00000000000000 0.00000000000000 13.54172387015127
PRIMCOORD
 96 1
Ni 8.518511249848414 2.8184731988062985 6.751280636368281 0.18999398209606633 0.828271113216238 0.502279914955535
Ni 2.2260463665593333 5.377103899458235 4.627627054822653 0.9234572089017837 0.24282218164069147 1.2380003132265454
Ni 6.334063368964269 5.791367822416625 11.787758999798791 -0.06235002299213132 -1.237954033369642 -2.911536760224173
Ni 4.425455268648277 3.6513126315390543 9.047442101747711 1.2711058375312625 2.274450049867676 1.111177564472325
Ni 6.730201973097548 3.6689568290885615 1.4207298464907203 -0.6170925266227566 -0.3369687803181293 -1.1023365691419273
Ni 6.812038851611126 5.837250137911122 4.97780192293787 -0.5034687930573135 1.1690608099423543 -0.44389376170715816
Ni 2.47599812156717 6.9548115901462335 1.27128340072307 1.7680913368570774 -0.055570281066136554 0.6641797099185465
Ni 8.43151156995433 2.2191256220564326 2.1653890017377204 1.9064146300517295 1.0594045456650918 -0.08751778050701056
Ni 0.3795787799203217 3.5551994044051876 4.673939603765526 0.7824077750252203 1.0749702613138326 -0.23134889089376934
Ni 0.689602227120047 5.667525355610039 8.75568553405611 1.0725228282146047 -0.7882428936497586 1.9739865635644327
Ni 4.518320927171826 4.753431941293763 5.205031800472145 -0.03165310812890678 -1.796964568248002 -1.9688721251560024
Ni 8.170262717302052 6.471201437175491 2.020221759623267 1.1523545529312669 -0.7023899024396807 0.18589667209824112
Ni 4.585474354447298 2.944850804642021 6.988531714933428 0.9385794092552028 -1.052945163192993 -2.2986369315265254
Ni 6.202421186093587 5.5338661643147145 2.5504618165321364 -1.7799343522385926 0.6430226162249572 1.15123329484263
Ni 1.2220017783697945 1.1590026482625073 3.7351054530846017 0.5743425372497398 1.7597560775185048 -0.843545008656173
Ni 1.0676266152268832 1.183956188268287 13.324920194985369 0.6801963970617769 1.1197876747388391 -0.17917632265527209
Ni 3.1461260398239745 8.898088179302292 3.7019682252274646 -0.689551870134748 -0.5272334995770791 0.12855850049840442
Ni 4.86371048906124 5.620079395969833 7.209261829080956 -0.5036695962142099 1.2170334811668913 1.585699078367669
Ni 5.0405410625096865 0.6686688254652171 12.353233788279782 0.2579104434323816 -0.4920410108363462 -0.21285905961969795
Ni 1.1220025717022135 0.4920307005270122 5.9709657684330075 -0.20466341118278297 -0.05536433570291756 0.5906237909082667
Ni 8.2439667957915 9.028666343967314 7.687027283786347 0.23507621914668547 -0.5341713643474929 0.34477490662610943
Ni 7.136277582038467 8.382215143869498 1.4352060454870283 -0.8224082266775579 0.1840303083134637 -1.8479436303990302
Ni 6.42743790576009 8.182207478202113 10.470582180782557 0.21818844225241132 0.4908413341012902 0.08221796556065196
Ni 2.028222251296607 7.834199506293553 10.452057161205406 0.5784491032189457 -0.7229422726697357 0.07390456059895013
P 2.6763666281912566 0.8146900578438652 11.801584759839814 -0.022822140100838113 0.20587774320585833 -0.5266061504057252
P 1.6290396298619192 3.249927955035261 1.0430320657113608 0.37179051598300483 -0.2959825677137548 -1.8269996811575115
P 0.7482546115489079 7.69649704581672 2.43505932717949 0.4930892495952024 -1.3049204720878622 0.5635395330969649
P 0.6192373153299269 5.0351747098202715 6.6085504585614006 0.18428639018832776 -1.7806740586180947 -1.2577553843662856
P 8.413876624737046 2.2720859717016246 11.34201956785054 -0.42961976828664716 0.5273000911489564 1.12997464257417
P 8.043098663227365 5.175588103638481 9.695684553363925 -1.5322818390887933 0.7355807873693525 0.6459387614304875
P 0.4185431266115859 1.37875479089405 7.930643041687785 1.2404714004748572 1.0174634253466155 0.5575635180191881
P 4.380285382734961 0.5767644842596521 6.422988459193988 -1.2055252234169753 0.8333680681231712 -0.8452419367426218
Ni 5.535744387756009 6.447682008664297 0.15070846388288525 -0.48488254541469394 0.4373323064395565 2.4238429706129287
Ni 4.139761754262493 7.016219319111142 4.915103493627835 0.5713523442731644 0.5599433311052743 -0.1260413905035055
Ni 2.825856559920356 9.306550889956778 1.0800821048656597 -2.2138067251540066 -0.8018409440491675 0.1707713864210285
Ni 4.207026209524643 9.002667290420321 10.161546882664261 0.3828591150923406 0.6121434101475973 -0.41431347694688
Ni 7.241254543442092 7.824234744489242 6.062494464950315 -0.6486016529746313 0.354227567398577 -0.3881172781674864
Ni 4.186337994673726 6.86219574459271 11.60555467179515 0.5693893070095226 2.7990795361630054 0.884344302060722
Ni 6.39981969407405 3.799599760079146 10.463134053342936 0.2640736348203 -0.5328631870590307 1.1908833051340846
Ni 9.181265059323385 3.44840898588583 9.381367098779444 -0.6376307557854245 -1.9156078665152236 -1.4831177186593167
Ni 0.28242651587779777 7.706452555288807 0.021999270326934394 0.44680347915478535 0.6754794512020817 -0.4468752129329852
Ni 8.526162928596941 7.1137759100718165 10.912516128487434 2.021627305370848 -1.512510569999137 -1.1085000176401618
Ni 7.9566911325955605 5.3566932545740125 13.28593364269677 -1.0900122432486195 1.039868532514693 0.7488847035671102
Ni 9.267228478008477 6.38829128812403 4.89357239131139 -0.2737533240019092 -0.950786492844356 0.04176731374477323
Ni 1.2815775455545235 2.585277417454549 11.127315497679938 1.2495895607260414 1.2110698073842885 1.0448839834514132
Ni 5.480267403746126 6.144575605034583 9.566740350569507 -1.0195897276609989 -1.214905636190611 0.39412157538003734
Ni 4.016196857422602 4.229888722447995 1.61914333531606 0.8323483686094052 -0.6663978006157878 -0.7230448596858708
Ni 7.410692503444258 0.5020019389638786 3.240033510955847 -0.70931876834903 0.9264350605831851 1.0053625283180234
Ni 2.159170509250555 8.63534970116209 7.825369080419797 0.6633088772778188 1.3988454416727971 1.32895334466735
Ni 3.840957685116534 2.845397485575605 11.39573953397125 0.9853449475455158 0.24886658806255846 -2.0178141022723444
Ni 5.581145581974904 9.316358362113295 4.6559428923583175 -2.481670680254674 -2.125354091537553 -1.0325064357226668
Ni 0.4955743437684707 4.8645802082902145 11.19377777573834 0.19657086398263565 0.6803470637070282 1.0663465242005636
Ni 2.3513229448605033 3.584362755572491 8.997215816274453 -3.3026077217033447 -0.6587202294658719 3.3750680936566
Ni 4.672325997025812 0.9419059249790029 1.693582048984024 1.6912174092171584 0.8544408296330704 1.3565870472242185
Ni 0.9081173329333573 5.417379301625517 2.758246067433061 -0.816056316317601 0.07295479509117113 0.6895963502194381
Ni 6.902785726055578 2.3871202182317903 12.982422912148907 -0.42379364852317336 0.6504039962906928 -1.6112064786101543
P 5.169509321367885 1.8680181188531242 9.684999960112656 0.4074627725736337 -1.5390093876206141 1.3978805066563667
P 8.576699167199674 1.6841372682506537 4.817874435227858 0.40930522509901124 -1.0836814159345851 -0.2476085472857413
P 5.136182420700174 4.109441861567299 12.906345610444227 0.722879280642284 0.009807473008725044 0.1797108550025034
P 7.492261064323365 7.382139806203681 12.604825981790778 -2.0627562142006735 0.9932274356173862 2.911020482709387
P 8.196150742862368 4.200151726682858 3.0017665263126 0.8981377563003886 2.803806252214713 -2.0439920462192926
P 3.576803600146194 1.6836931563039435 3.540144934644934 -0.3477360461369624 0.3164860869837453 -0.4870656691089418
P 4.155638756357383 8.211426343362755 -0.14958893168388662 0.8361325182421858 -0.841501495863583 0.7409680198231948
P 2.3175796892427507 7.478687892952034 5.9261021347162774 1.6459760208808556 1.0461520515305593 -2.1738630948815336
Ni 0.3536065581367756 0.4640294422869339 11.208565778330568 0.2715673720941839 -2.1187653825764414 -1.3673221742535355
Ni 7.866573416742282 5.6471979817158235 7.297215424427245 -0.49298023482116393 -0.07199603072232762 0.8072963107367839
Ni 2.160179013462876 3.5274424077358 2.9829435816378664 0.9400783623982326 -1.057152002185489 0.9841079898146213
Ni 2.5900331162172376 1.8281405669714375 7.355877986421551 -0.07944528791152124 -1.3972667843317679 0.7040058407765488
Ni 4.810093223828206 7.797199429733259 2.2076934403615343 0.09578027762611892 -0.2683727764162862 0.08498344412093106
Ni 7.179745038822729 3.6551338447472066 4.662185440909263 -0.3104139126477364 -2.062681652208996 0.373178397469467
Ni 7.989425884000992 1.2925878209000474 9.470471684254292 -0.5549890724237926 -0.271189677039791 0.29482505707054385
Ni 5.180269783743385 3.098587556861536 3.410645591917128 -0.13888507923539306 -0.43906214464646964 -0.08083651183209303
Ni 2.625478800964046 4.2587930083130505 7.047559744050548 -0.17041888817761616 2.1437313084931597 -2.162918165834256
Ni 9.087233606939723 8.647109415417686 4.413829713209916 -0.15543784138775166 -0.8879186496755418 -0.5828276919026156
Ni 0.3824331244111571 0.30778253233528347 1.6831546705685574 -0.8960420501136245 -0.17596655746872275 0.3959884533854471
Ni 2.9496435127336014 4.616747237361475 13.116472551864048 -0.9335518741336244 -0.4773661824329907 1.9168157707803957
Ni 2.1896569439257663 0.9110651259796463 9.641544531360283 -0.3863876970708894 1.2043895671506353 -0.6471687771828467
Ni 6.624392301793843 2.9792694805120616 8.333454427820383 1.2299355339405398 0.47044785804660266 -1.1979476681800336
Ni 5.768977178436651 0.748946685999198 7.909937247405644 1.9147018097611863 -0.4675386548196077 1.4459696488541098
Ni 0.792762955708271 7.104773390818712 7.153577592829274 -3.6423694913855784 0.9383600941555452 -1.1144909451162741
Ni 0.8340006004267582 5.610623512437794 0.5560864469741805 0.4446424669477246 -2.1180501016769715 -1.3455917245549793
Ni 9.132875361796419 3.5666167823685293 13.407700811385707 0.4958331308889268 -2.5493716831460738 -0.687194682756481
Ni 8.052212210467147 0.11744077814140176 12.851894710077888 -1.4774286386943394 1.78387611049516 0.6023343944769755
Ni 6.624577348438305 1.617872064868602 5.697043996334711 0.05867925900876346 0.6205514317056344 1.5170105147520196
Ni 4.3813771579372895 8.084512102258092 7.738647895725629 0.8331762638273393 -1.48551167281279 0.03490992450330762
Ni 3.498686159186314 2.099668760723611 -0.09508159209098763 -0.8939219184468281 0.9874175138038286 1.9532094789180814
Ni 2.6779117676725193 2.743621831121183 5.199372148851257 0.43353118752591147 0.12424598916597956 -0.07940569292283743
Ni 3.122893433611697 5.132296441166458 11.067176263462818 -1.1027402323382491 -1.421633128991274 -4.038374399831258
P 0.21882043277667346 8.161306459710064 9.343721209429976 0.2434834693737742 0.8796001025075174 -1.5976066284385324
P 6.70912516029326 1.3083445426760365 1.250409213994468 0.6150662402213471 0.017765808623853276 -0.5672871730648552
P 6.587743813858028 7.356825425241198 8.306086954337589 -0.010210364874098545 1.7016326910132114 -1.5439577327648246
P 6.858874157324607 7.664261920351337 3.579063944908305 -0.2659752227183871 -0.6532144691562943 0.6109396196474833
P 3.9750239790296766 5.884400022920189 2.839469516320246 -0.8774264918949662 0.720153654181005 1.5789735867183776
P 3.3215965204356204 5.878672829274072 8.97920522636891 -0.1462219792164385 -0.02108407436380885 -0.5254144440904693
P 6.312866275841081 4.239316848983363 6.4669851493814114 0.2431016605543233 -0.7732093963554039 0.8296481960694229
P 1.7041870721781747 6.48258180580994 12.16929649845075 -0.0005800408731860978 -0.42123488665706166 0.8119420370389113
