# total energy = -381170.4880227889 ev
CRYSTAL
PRIMVEC
9.21901458573545 0.00000000000000 0.00000000000000
0.00000000000000 9.21901458573545 0.00000000000000
0.00000000000000 0.00000000000000 13.49295971849440
PRIMCOORD
 96 1
Ni 0.9314523689174125 8.164340977557728 6.119785696036377 -0.6260885594737797 -1.5734950801023093 1.4682390017752713
Ni 4.410238345783249 3.06247371118259 12.932624650435317 1.2039421952005716 -0.27966403305938936 0.5465031464399686
Ni 4.111228823103537 4.801760680946494 8.435474965498381 -1.5793427971323382 0.17625220702994163 -0.10754873101595672
Ni 1.8611900011011988 6.288621809294192 11.443271622415043 -0.011861270213960218 0.6445161700513481 0.36293280848205883
Ni 0.876146577849155 3.8473714034631588 11.35249106279306 2.0215391165324155 1.8269729416846343 -1.958369425852466
Ni 0.9617091751526844 4.321320949031512 1.6881315791121971 0.24668269303736226 -0.3946905605096299 0.8322570944471797
Ni 5.746534526100946 4.675395646495892 10.003126929142487 -0.037363785360438884 -1.5655058912492459 1.3273705735612622
Ni 3.253353410482196 3.8357462259303503 2.123966952219099 0.7965449857575506 -0.23570691075214892 -1.379060031515754
Ni 1.7827361860304598 8.474763640432219 13.147877580790626 -0.1891483462663194 0.7261355827960526 1.3152601634509735
Ni 3.431418679353092 8.282307489619441 11.639337939383134 0.414495253940383 0.9353722151718149 0.9253940209131805
Ni 0.004557880866154328 3.2362521382194203 13.403434199597902 -0.5961244090115217 -2.7354979547566183 -0.5768653036715936
Ni 7.574877177837041 8.802259918525396 10.974809234394291 -0.7877849801767336 1.632666191145827 -0.2396514972221937
Ni 9.149014718320426 5.896924312851707 3.031301456787914 0.5489464657741384 0.8688714032361036 0.939443299917395
Ni 7.584520267210013 9.163497790409277 2.676855233031249 -1.3976041130665284 0.7665839206190863 -0.6809816119672336
Ni 4.623824478281355 8.661743696515032 3.7392093135316142 1.7989851982224567 1.6294829083218387 -1.5535312353858728
Ni 7.467696912970717 0.14382861399096586 0.23652857247284617 0.7382971578592511 -0.23739946796322342 0.04082423310521356
Ni 5.559093519283289 7.929329854903994 1.5348912730171516 -0.018131676603704256 1.2672368414941595 -0.5455374400925894
Ni 7.009788452974994 4.86173037154992 -0.023289074927344385 -1.0613662973771527 0.754180661858727 -0.2397373720677807
Ni 8.9342946470146 7.623949993068714 9.336143200539858 0.006596422270595092 -0.3467330587937448 0.6329274367724842
Ni 5.076266062561807 2.5392485320592306 9.296973450895608 0.0606500095818891 -0.24332766052220028 -0.6076473220494567
Ni 2.2465540344469046 4.540392395274282 13.143843339959254 1.3624759019048276 0.4952314927491858 1.079713946646405
Ni 1.287665877791476 9.172062255062711 11.112721084752778 -0.14802483675313216 -0.701792635175314 -2.2694641666173108
Ni 8.30077317605736 4.300522851875274 6.718293349174737 -0.8804974175108062 0.27543533969002243 0.46064732701641314
Ni 7.552880608770204 0.8158689721548519 8.77327072681095 -0.19979065647151398 -1.1757549341330784 2.3208371217726484
P 2.3464881537614537 3.5001187768744955 9.076485042093923 -0.36361672192296085 1.4146767522780992 -0.03873881133109457
Ni 7.858979553751842 4.340708536939123 4.313955878190148 -1.278293099308321 0.6255599406638195 -1.04356989262568
P 1.6126453648723948 2.6476457068655463 2.982402880934012 -1.1004599209445047 0.08798906371647428 0.456926169411084
Ni 4.577240797017848 5.115041238377028 0.3869155935191967 -0.09283045096917561 1.8466200264916004 0.692929014137097
P 4.524591004083771 1.8233275077409727 11.198131568313809 -0.1400654726967394 0.310961043400458 0.6382699320313201
P 0.7381867886142447 1.1849107399796717 12.846606633805761 -3.2639347306131787 -0.8603078299368087 -2.1133586097385733
P 5.947564360581855 7.92151213044101 8.377508566788594 0.2103532624787087 -0.24057272348488246 -0.012514587527242962
Ni 2.378607200965502 2.419097113514349 12.282479452176602 0.4427411361599537 -1.3844112685253385 -1.641386087517328
Ni 0.8498345880026925 3.026519553864625 7.596266213835351 0.09958988118019624 -0.5515286246790179 0.8484537588117
Ni 6.673607863037325 0.4502797253340266 4.915660685625397 -0.6115165751968759 0.25795543773770413 0.5270830900421439
Ni 6.886816015932857 2.461384733929094 13.074246232307841 -0.07819187512039437 -0.1731087763049535 0.9290190192602774
Ni 6.792099858936762 6.692626690357059 10.358882252986113 0.8476770285466757 0.6463961606828803 -0.015599397100153782
Ni 5.581560258099669 2.9168040599566503 3.0258502533976293 1.2238990979384727 -1.3413895135481737 -0.4860768228331112
Ni 2.8136893805716663 8.880040745523258 2.1011102490810396 0.07588508136408867 -1.020795832153958 -0.0440072588188855
Ni 3.5083974520723245 2.615830887146496 7.428954003706936 -0.575478450626396 -0.6807625539778921 -0.14707044325966287
Ni 2.8817533660789825 8.293296555138163 5.002177450950057 -1.0812589225360216 -1.0106492306382595 -1.1163053726171936
Ni 0.3417479529131358 3.1890507829712202 5.217161186076215 0.36791792040147603 0.2300854508003134 -0.5119308077817377
Ni 0.6505379282848036 0.38288504029370585 8.576205990551184 0.7616959963991656 0.5806065158815807 -1.0000508862971227
Ni 2.743707840007391 1.5039531815957776 9.824089054221066 0.04086691341769091 0.41507220948977547 0.09312767049462027
Ni 8.928394477608574 1.7207567502231065 1.7876683588933089 0.22140694918970902 -0.8393217146034448 -0.13885705421093503
Ni 5.6522885388543935 0.31525619228008345 12.235091872831525 -0.10391704780064039 0.07353200775087981 0.29452295244909277
Ni 7.554051423636712 3.1735628382804046 8.947775612205897 -0.07880225501088364 0.11463494843877677 -0.5330755601801528
Ni 1.835515045170293 1.6034816642636622 0.9205868381956295 1.7729851746142689 0.8873784609013556 3.136018491684464
Ni 8.097189674505406 2.0106947624410547 3.9206902273477167 -0.4184321271009439 -0.2310231321232344 0.005540213091938846
Ni 0.15904920725557103 1.8487627692897586 10.586859267426101 -1.2696318240888973 0.15368949123807724 -0.3184840912503805
Ni 6.777275683304125 5.903174804816214 5.7103425182038015 -1.0627454371128664 0.5406605716162624 0.5542244263436261
Ni 6.586718649518909 7.279186500448217 3.726391195497025 -0.8649445573778717 -1.3971282018713747 -0.6737588689665494
Ni 9.02179231550301 7.650049023675678 12.16585983816211 -0.4576355367732828 -0.5126558588732203 1.4965825859149708
Ni 3.2780234938111383 4.437526629286115 10.874219643134792 0.763416321524382 -0.26144673872041424 -0.3547345889419826
Ni 7.9601213639916875 4.211255132565055 11.387882860214512 -3.0342897097843937 -1.0472213733353384 -0.3549199654799113
Ni 7.610951182346066 8.546091157142245 6.897601341226777 -0.20792562687382254 0.22151082175742495 -0.20162616701835598
Ni 7.840366363078773 6.894541550248872 1.3053479479801573 -0.7123069044430764 0.0917942963951774 -0.4659507415071975
P 5.470083932384584 1.1423004540505346 1.8453240768078096 0.08296872768374743 -1.5293731500824306 -0.5269442504714344
Ni 5.2373775634050785 8.026249356412652 5.858305860286333 0.15920862128409355 -1.0746162204085234 1.39950672940588
P 9.005659039783412 5.925208249941838 10.929702439285231 0.4737185583780745 0.9845273367402271 -0.6653459623125058
Ni 5.792223962938854 3.777297672751915 7.202622583390346 1.8886169397486765 -1.8217451176267916 0.3983114450916688
P 6.680595876177586 5.282062127641021 2.302816759240702 -0.8464264439690261 1.3680395120355344 0.5255154884447079
P 4.4101184985921895 5.995309637697174 5.318803588814102 -0.07031324370326601 1.0116535035330578 0.7820730173936208
P 1.5593594599242313 7.507098981785328 3.161521883184765 -0.2856490469982306 -0.38758711669562923 0.8073832140236353
Ni 3.5189440048855944 1.6127191169899702 3.195672801228014 0.5869921076929503 -0.49256628721219686 -0.22603622043160426
Ni 4.820272462457898 4.867713512088217 3.521244149052474 1.0091549054809201 1.6353072283130998 0.2669249882261661
Ni 2.1654543621581515 4.777920308940273 3.996843898251576 -0.49056879716619384 1.146566228384264 -0.39483068563192003
Ni 0.09167388214611374 5.385333530275853 13.236512875692634 -0.26903663525253024 2.6223035954191096 -0.41100266740609215
Ni 8.629375735914165 6.540549823916764 7.326002500882087 0.6892155698412518 0.08834259040115107 -0.5331166978307335
Ni 2.480541846469281 2.723296941468423 5.051049291661338 0.23372613287669425 -1.5388111555668789 0.17283341115637973
Ni 2.2496608423997646 4.803678236003452 6.345280029818488 -0.4116508425130524 0.3343943347227338 1.0880432924477068
Ni 7.753938100295203 1.8395714116369353 6.860360209457123 0.3393102839671124 1.0289531711537698 -2.083365920031225
Ni 3.9213816534499855 6.669099764850534 2.6610676703627836 -1.9397556674060206 0.32235514417001254 -0.46556379048142404
Ni 4.761685624059009 0.03988145757885037 9.93950835252202 0.6863068808348889 0.4098053046638813 -1.454715770477856
Ni 4.1124733900876205 1.0526455361230451 5.571472812218306 1.2883412275729424 0.9950634603848605 -1.2827863591929842
Ni 2.970265126184055 -0.0341260267035669 7.120828719294916 -0.596192800355612 0.519917168421324 1.7346119741527095
Ni 0.9510704321924457 0.5341082259730665 3.656012315399313 0.4650611398133926 0.5513756440409214 0.16001389079420827
Ni 0.9071519680778166 1.1285917791962234 6.121094796123339 0.29454197861248627 0.4953412788541727 0.15492850585150092
Ni 3.835285275195505 0.6600869837078673 0.3104558513274003 1.8734587439509993 0.7254452415972474 -0.5340662062281963
Ni 4.392408771359417 3.78233125477643 5.573199533671038 -0.5679947406548411 0.18281314807691096 -1.1414641312710083
Ni 5.509753352625405 0.7094004152231305 7.489942395434371 -0.34541793952674704 0.18433678381028898 0.18372383281663845
Ni 0.3543060947332721 8.49636379186709 1.571916679842898 -0.6270694353298104 0.6784549888906379 0.006019209610886408
Ni 8.621050965642853 8.029457573527178 4.369047788117436 0.7786009996846203 -0.5292268758580241 0.8643866279918727
Ni 1.8117484252816485 6.346609411737782 8.925970798644755 0.6852326739341038 0.5283997519710384 0.31185964395532745
Ni 6.308719261333465 7.2478326314640125 12.794672236412165 0.31958966560973345 0.6140917921232198 -0.07418609639511095
Ni 6.732812375420908 5.509080364552531 8.214244426013593 0.5301036220360226 2.0348222067945665 -0.4374379787794853
Ni 9.12256536515498 4.92981279508663 8.983545389229924 0.1922472969066173 -0.28414572297982676 0.6199616206404355
Ni 6.911661260541041 1.9687574645847923 10.841836010208942 -0.4081178896591294 -0.10802129977700108 -0.175535126358259
Ni 1.7516588874871626 6.714623259423896 1.039438375668246 0.9984722289560933 -2.1875048540346844 0.6356618049845117
P 3.757439915094762 7.652399872423391 0.23166646412169367 0.35478883921868576 -0.9794707481529261 0.5484031916761587
Ni 4.403038295304959 7.022197246757041 10.206183103053776 0.2350726196022597 -2.962867806397981 -1.7831302334680712
P 6.331545541723024 2.851238427432197 5.091095769603264 0.6841235000303251 -0.8701065611947854 0.9129514242744534
Ni 7.779327266770505 3.6339512132295972 1.7492951321188737 0.10486089977114843 -0.2938562653993714 1.083754949484998
P 5.4808517415505795 5.545541567678826 11.8810641923421 -0.4965610101938868 -0.7351236452272759 0.1736145122967784
P 0.5068558966275187 6.069919123639299 5.562634542828373 -0.0519023452962461 -1.0879329921220877 -0.934890647549706
P 2.550965899739008 8.612560253106993 9.16205685841215 0.12095240601637235 -1.6993652351352733 0.5546432590485997
Ni 3.426560258607818 6.773809333778084 7.250549475095193 0.6338070111639601 0.6638421240734697 -0.8153448920728733
