# total energy = -340856.830662017 ev
CRYSTAL
PRIMVEC
9.42186340460981 0.00000000000000 0.00000000000000
0.00000000000000 9.42186340460981 0.00000000000000
0.00000000000000 0.00000000000000 13.78984946919030
PRIMCOORD
 96 1
Ni 8.179467998893129 6.287642677583531 9.13556852015887 -1.945181209296966 -1.1396749005810694 -0.0709508772872649
Ni 0.5257475005818617 8.26465106352232 3.9352785704690474 -0.3205954811664285 0.84066357334332 0.2822539052737526
Ni 2.6160085658100893 9.436090151175973 11.587127886761138 -0.2701211265659606 -1.669046529547074 -0.2591530575902311
Ni 2.863106348463025 4.220900467119973 8.354235080423196 0.9196576326500355 0.1345738534545489 -0.09472226867524977
Ni 7.9781227836375335 7.42833822581842 1.5839847870070218 1.2387569888869117 0.2968814253789403 1.3275929739847137
Ni 3.3919649482530003 2.764939956429892 2.6758929857278733 -1.0675428585015099 -1.6056950618736217 -1.2967425642627604
Ni 7.964734316118666 3.8709065171387116 8.300771660233849 0.5753262413192479 -0.8017051898022516 1.288589596138323
Ni 0.13875577843093787 3.808006158830506 11.021150914953337 -0.9759941024582354 -1.7089407946388502 0.5958166479631158
Ni 9.020755580333805 7.786595149771566 10.764659534751978 2.8191063729068935 -1.4907299837889358 0.37517922994957964
Ni 6.180092109865112 4.226563006865814 4.48611366602803 -0.29241104831241255 -2.612959435200048 1.6251829953949042
Ni 1.4803254487645299 6.271248635723693 3.7609609118106544 0.2833620507362668 -2.2396673949708523 -0.4208409936527527
Ni 6.2571817940589005 3.2815124466881276 10.181638412527828 0.5290528121740049 0.5310796127960467 -0.6920499539662532
Ni 4.7960769460955595 3.5824844427632194 -0.0945898527860092 1.0739608462127117 1.128714544914824 1.3359390319565636
Ni 8.880539413116503 5.123194612378152 2.239830315982462 0.21679439011836213 -0.0383109797650566 -0.16695252689557052
Ni 5.112123923191192 4.1410219114373845 2.331284572716199 0.11495967876804716 0.15332105215506497 0.1223217755600732
Ni 2.648919133750557 7.913526489964517 6.586018008177835 0.016963367327215945 0.1830365769416267 0.7645674044096896
Ni 7.286341326468066 3.81997192501556 12.321174879780633 8.201819084502003e-05 0.3187067487841479 1.8488702559783576
Ni 0.5763184087878925 2.2046971305277787 5.809043122329723 2.2425233763624086 -0.9161573328062609 -0.8714479057140282
Ni 0.005578685163913784 4.723858365144033 4.8425540547682004 0.38979415164927705 -1.064010162757903 -0.6129774760131185
Ni 0.8152257658151053 5.856865673058446 11.77979933481204 0.49897990404802456 0.6790879944889465 0.8114170177733767
Ni 4.885245458832057 9.143173848083734 8.656632604391042 -0.28863409776848353 -0.14209535864257464 0.5017520674765229
Ni 1.4690192129991244 2.4904528176352625 9.224554248750493 -1.5600590092020616 1.0320480080290095 -3.9842675906845253
Ni 4.509492135031946 5.197467159493727 9.987918311109684 1.278544810307811 -5.985680883001343 0.9981999491313132
Ni 2.8244201784190626 7.575592524799688 1.903274769394698 -0.7211782387907774 0.9682427406475905 0.029397736435826792
P 5.564392197533684 2.027274025779154 1.278136976758099 -0.8600499482897317 -0.25618343343894584 0.09882909175477173
P 6.33692844365756 4.089616226157341 6.899323223100356 1.2974233923798688 0.23644070359437988 -0.15480432156881083
P 1.7668537286493164 7.247476141024484 10.441673355455327 0.8124986808733297 0.4409444492708471 -1.2736198622023678
P 1.9209954095843436 3.624873405020352 3.995953484704095 -0.8766952701558965 -0.013947206208711465 -0.4801265187869474
P 4.79084781205406 3.200663439102341 11.688800154067861 0.27016277843717346 -0.15528203253617773 -1.7937987689255108
P 6.201573957819382 8.03844155144597 10.30940170323585 -1.8201088675749493 0.18226884553766673 -0.36504445550842296
P 3.717169976318611 5.278919166320335 4.366624655527656 0.4320517747669075 0.2988272362514015 -0.3379170031640116
P 2.921022541171314 0.09570445919521542 3.3677290897035403 0.36297831700801353 0.3479535614644072 -0.1539751407992961
Ni 6.453919718240092 1.701447154746446 13.17609024406388 -1.2032413124788053 -0.9148830940795275 -0.6561606962688119
Ni 6.709845786653182 5.733128344469223 3.023217721882186 0.33774499636252153 1.86055540562577 -2.8299335454293844
Ni 2.756535654510941 1.037516725012427 6.489475003163351 -0.089430167038375 -0.42774800518523104 0.7772092615434163
Ni 5.849422401179555 6.108759184048542 12.364116905403957 0.16528002428915406 -0.8417730043574148 -0.5230922237151959
Ni 0.3636707265121476 -0.04511847600816406 12.698300026853612 0.7094761198625007 -1.1731702041250376 1.1721289073447168
Ni 7.90588535895973 9.050161215186998 9.083911271133047 -0.05486425613804744 -0.6247004208770015 0.3520611558748775
Ni 5.1382319059461405 8.147876491791958 6.475092529083442 0.6206722735542151 1.0757246229813537 -0.08951681321491035
Ni 7.344785143512074 0.291973174592143 1.2452330041218278 -0.0018650782331967877 0.09791429324998621 -0.38913183547492985
Ni 4.962825079909014 8.407948179985697 12.205712773585372 0.3822507920843804 0.8376276147304735 0.2731933377333811
Ni 4.665442813689438 2.7113766644912842 7.239739849202006 -0.04693754509180304 -1.4746986413576861 0.5411318548257261
Ni 1.3147456259801678 5.980659532826498 6.606137454722374 -0.189389515742848 -0.9170165954827627 0.2557172924358047
Ni 4.024388667654089 7.060254298612509 9.854695050713286 -1.2087838395635893 5.758013040503586 -1.2043494579413192
Ni 4.153487036368744 2.3543163171566435 4.817938495134285 0.7836807282003729 -0.7422944519441023 0.3474182577862275
Ni 0.6998833172816944 0.8903161306510452 10.387893360664549 -1.5644311701278284 -1.511348945590868 0.8791157066719311
Ni 8.148762146926915 6.775902469112563 13.123798903648881 0.5793533602007699 0.23522457179909168 -1.6080141969251014
Ni 9.337612837659293 1.2295248738984246 7.828193617711434 0.7145825878511306 0.5084611040655824 1.6640151377707537
Ni 5.874446869673652 6.485756193782847 5.00004803460767 -2.0989953990383654 -1.283779319233873 0.3331283235261166
Ni 0.4786504333147517 2.9425420765781354 1.7879370317928562 1.9131295801780601 0.6516602372952971 -0.8584972590906312
Ni 2.47713030315836 2.96832029412326 -0.007824857335974326 -1.6325049829776141 -0.3973061437556061 0.4296688763570278
Ni 3.915255226928514 1.4931014951794381 12.649373233765134 0.5738146897707279 -0.5846233503504576 0.37631102956117773
Ni 0.12242203649518218 4.4656616277147245 13.654681319640863 -0.37492366229534785 -0.8615414452335936 -0.1939704502453111
Ni 7.518637362131458 8.839007840404914 11.695709206306837 -1.7707547426218535 1.2175878110084641 2.6811404630516598
Ni 8.040825282819844 0.1780524852062319 3.4874800279991454 0.35841126646262145 1.1990424439061094 -0.36780196364890205
Ni 5.765030773053941 0.8803270713523096 10.89334616804751 -0.439186843149792 0.49808438881694866 -0.057512235283855795
P 5.019158399610147 7.405311192309544 2.913133615166002 0.7221683706181885 -1.0858568263193493 -1.578912651573455
P 0.16336380057434274 9.153189288599256 1.579613042511065 -1.124685883371405 -0.4331447507207702 1.013087664876423
P 8.257226635369705 6.5430128560714875 4.4083804685819254 1.2138250015319223 -0.2961507178605029 -0.49718887358587266
P 0.7616163067471218 9.140026945795697 6.472927384934367 0.489147491338635 0.2622815759168838 0.09688199533072991
P 2.0663559140749057 8.212689488317144 13.485272451677284 1.50997674783369 0.17412796159808722 0.05990696076827748
P 7.3675954741687795 5.265134980549679 10.825514406572957 -0.08320269807142446 0.26928988891391686 -0.47044451561249295
P 0.6118567343575031 2.195548501420938 12.92797018926049 1.9604941855049522 1.832765122886379 1.1641188925560466
P 3.1157630303672845 4.956879884269038 13.42681732839751 -2.1530929522137177 0.06975917097200889 -1.518572974143133
Ni 7.118792334287896 8.23445399216555 5.087144679640157 1.58090268542029 0.4730243605245273 0.4540645315925728
Ni 0.7816236331203205 6.725118626799618 0.6083395528481481 0.33695566769200674 0.24931216024040936 0.31192700685815317
Ni 7.691245894816647 0.43605324788227307 6.574007017049719 -0.9114357589608755 -0.6929063884292777 -0.3061744206450921
Ni 1.2199428390872435 1.443429432716757 3.3080057836454135 -0.29641836969959273 -0.7718932486471416 1.1022368103392695
Ni 2.151812212735095 4.839634219381784 1.7933423546750336 -0.35269159037002484 0.1578572494625217 -0.0728213548371004
Ni 2.557140764924879 3.4438699922793488 6.0771450644758405 -0.75519059118048 1.0606515306983153 0.16655426301588735
Ni 2.288514025001984 0.5759160952319068 1.2094016586086305 -1.3095098912307577 0.23564571849691032 -0.3915952094137578
Ni 5.98204454670776 1.6697520071507597 3.3032891989586117 1.6161807918962938 2.4751884149644403 -0.47431608275275733
Ni 7.712859648854847 2.7357416025657324 1.2990158254715476 -1.494962790923361 0.9038463766493918 -1.0047382644704632
Ni 0.9735893836221974 5.15632188317079 9.330170507966715 -0.23926634596863308 0.7477991838124154 -0.26126213351343397
Ni 5.926775897541203 7.5358982153999765 0.5507945815474898 -0.2337587858868426 0.12343557744954227 0.4476419158956807
Ni 6.584139288668149 1.4026798746456084 8.673594784598091 -0.6638194983656504 1.5321818231758193 -1.643035193084977
Ni 3.442550931440052 6.7164505127128065 12.1258832115911 -1.7229296527187745 -0.3979226942936824 0.9505316965210725
Ni 3.300601141405387 7.572586950458717 4.315725866484429 0.6772869367244658 -0.027209213424940235 0.4226698193313753
Ni 8.397659505439176 1.5679110884938705 11.975491432184933 -2.016407194622489 0.572667206429846 0.3739106476498012
Ni 7.972846540280345 2.8265683632144896 6.010816090171776 -2.5477521452647798 0.9052928792879311 -0.5903728512397252
Ni 2.864227550176427 2.9102533516047653 10.648686763574645 2.577860020393754 0.34041817231931054 2.031014403012702
Ni 4.450143819126706 4.908866069718617 6.445210147955476 -0.6305543085546172 0.18711511788637453 -0.7449300897947364
Ni 8.086050225881467 5.6272360246630635 6.619927293610913 -0.6369339868287159 0.973934134605413 -0.07998573379602354
Ni 2.102639509018719 9.121494141003568 8.83285347940328 1.2906081692302482 0.6964830500369423 -0.025579134020684978
Ni 0.3794014692070816 7.647481340541391 8.579630543524436 1.5991001822649233 0.22708034542540245 -1.970645672116658
Ni 5.247940080323126 9.202541007715249 3.9913754014054197 -1.447011716965379 -0.615889507453591 1.0230334632352251
Ni 4.493691670549793 9.45370903524373 0.8978828289370429 1.1699416698854108 0.15683266485274927 -0.027479436367191388
Ni 4.105303628281841 6.008067732694469 0.9764856643507687 2.4287812884548106 0.4613592654817732 0.7997076997562486
P 7.1679933035936845 7.638172539761206 7.570668659123854 0.16218158786948844 0.20523471030522075 -1.313969469664008
P 4.273945556586001 6.635413067864263 7.59622075195367 -1.5053947848899623 0.5399550609088055 1.734649512258864
P 6.025027086342576 1.4721472715608868 5.601340033828715 0.013808109527685896 0.06912822225622933 0.3481538504006714
P 0.6617643433986301 3.9199190491817437 7.4156290746317906 0.10335629020116394 0.27069165435744996 -0.31400240132994306
P 3.5492912189286163 1.459474865640495 8.725692034632452 -0.4795372219423806 0.45248098915553686 0.05602228100189061
P 8.409173022193615 2.5441103282052486 3.3016488525863146 -0.1348384199698452 -0.4267576162475037 1.7584155043302103
P 7.1280163382998385 5.366165618976715 0.5052389310897301 -0.0074865381850322665 -0.6279500381625508 1.1065398085899976
P 8.153425969180145 1.9710820340250894 10.004494194928082 0.4568094413275617 0.6321257668067952 -2.4158190718671877
