# total energy = -381171.09569748124 ev
CRYSTAL
PRIMVEC
9.17695133369319 0.00000000000000 0.00000000000000

0.00000000000000 9.17695133369319 0.00000000000000

0.00000000000000 0.00000000000000 13.43139589731580

PRIMCOORD
 96 1
Ni 8.076928641491895 8.322595632048694 3.1351026553320733 -3.062756706875835 2.0468441709561076 -0.34810885609534886
Ni 4.547372163903488 0.42986308946079305 3.8277596798575555 2.0513695696302863 1.297565831495004 2.2686637822032028
Ni 6.4843604853011145 4.639334394473892 1.7319385179982556 0.7261011300136915 0.07856108553435502 -0.2385181549486989
Ni 3.032743856453796 4.406891390969476 11.928409823175757 -0.15764204812792207 -2.102758465625224 0.9931009373418508
Ni 0.7935254864868215 5.470490888113392 11.108610724661887 -0.615268071819508 -0.6102248529686459 -0.40048479859390385
Ni 2.542070615845241 2.11547085032326 13.082771205639244 -0.983327660005171 -0.2578114559606721 -0.17908453427241416
Ni 4.55030878837036 7.111109562143373 8.551528451620051 0.9519116075877349 -1.3459375379301723 -1.2111340849633205
Ni 5.173478854143618 8.401370583372548 6.655592304879011 -0.4253527654801771 1.0551370286379893 -0.20095408065199588
Ni 0.504067001262931 4.60787580487252 4.08153267163807 0.7324281006729837 -0.3847337064072342 0.7847284527385969
Ni 8.495562813147483 5.15714388054664 13.33348093102275 0.3388953079168809 1.3904361345631795 0.4391835007156823
Ni 6.438604205326658 1.161150491152836 8.018287921669035 -0.30114071487592653 -0.6403175585889681 -1.216349053505357
Ni 7.98318608233845 2.1692294319699443 9.65107590301907 0.15568415307060282 -0.676439501122506 1.1042561547621434
Ni 3.485736534371793 1.5707178347669568 5.693850545063713 0.9087443281716414 0.32490696405758884 1.057681392326398
Ni 7.028342636934864 8.318713781581549 12.269271166606813 0.8726069590191359 0.0981973717080438 0.3392105251644545
Ni 2.206056538174817 2.841239233407874 7.345872498976617 -1.747227606034191 0.23265526841001868 1.0624309911962413
Ni 0.5607484419492993 7.602939098635759 4.251654997784576 1.595200332989885 0.4168519270980175 0.46892576497512145
Ni 2.699712288007539 6.4932529512648625 3.747130984338988 0.2673129676932041 -0.7841777224414495 0.7137156118651451
Ni 1.7043158941067362 5.833833927228648 13.170746050800721 -0.7442986268583246 1.1620591818135406 -0.15826631197548227
Ni 0.9845217064219156 2.4463091273708213 11.169831085539863 0.0391023653181004 0.3826606259282893 -1.186781367150569
Ni 1.352416513460824 5.466636568500622 2.1536166844527873 -0.4031160655691638 0.34238583756864266 -0.35241159723576077
Ni 4.797994708248137 3.4993459533854554 6.517169004462102 0.6533831335236747 1.1160876001794326 -0.3986420889582102
Ni 5.496011990120806 7.026580662254741 10.89589816679427 0.3955446809798091 -0.4398064790116619 0.5643175489135701
Ni 2.173606837815876 7.308845335229939 7.7956358076762005 0.33433057136433386 0.25084505194516804 -0.38790876170110616
Ni 6.5569318174387 7.643235092492124 5.136783896039755 -0.18400691127469598 0.04191669483844394 -1.631182664621765
P 6.584242424980615 4.915964419253279 5.85739116162384 -1.9486568265503923 -0.8697671755774956 0.7679995700196902
Ni 8.1387354095681 3.716481801856298 11.417613363407959 -0.33356489684290297 -0.6020600577696663 -0.1255233132165064
P 9.00523234327612 0.5646000084766317 4.944365248628519 -0.37252945103155843 1.0916839745240876 -1.6318555223190734
Ni 5.163118075946433 8.403646467334376 0.4289196988508102 0.45815309983964964 1.2354456651254917 1.0733273263937708
P 0.36302459889962957 3.1628913820450006 13.09436169533193 0.12261333865856303 -0.17602183618669037 1.4065996316969196
P 3.7257688767327823 3.651582401138416 10.10465407044015 -0.20465004144634433 0.346209582190107 -0.16341751715911856
P 3.3482658015163254 -0.058490217818932544 7.510326222206914 -0.18472399194637865 1.1812630084355011 0.3724541177089327
Ni 6.753759072330829 3.2793010113021173 7.937041617317277 0.11597963539212928 1.494551157307239 -1.2748583625951593
Ni 3.6416621166112626 2.1589879541417263 1.754717546909727 0.49790209760281345 -1.4134865886247399 0.5434404483542448
Ni 3.9625801091316704 6.409926232017356 1.7771083907744838 0.4968263480401315 0.3878254579586805 -0.37268166033870653
Ni 3.5347322782112687 6.01583122856307 10.597425162152227 -1.397069323608981 0.5890366489268049 -2.123261984895214
Ni 4.5037082288616785 6.084456471573296 5.445679164453757 0.06454908752597915 -0.05798197583142273 1.4350668858986768
Ni 0.2906781020727885 0.6264866160305316 -0.1762222457812878 -0.3367643776168071 1.6566653822739017 -0.167191382379254
Ni 3.6714046162898053 1.528448796346911 10.738401490465023 -0.397675868390199 0.5576000276840783 1.4802293413679282
Ni 0.9810987035277173 7.450372280630275 9.895526947507557 1.3731452086932157 0.6679407196228755 0.7015337250869724
Ni 4.942274739086164 1.8859644712857169 13.017454253629976 0.16094385880764542 -0.7353419318856691 0.4705422175326219
Ni 5.450173117583218 2.413767657497291 9.913015463902928 4.3741499311722345 0.5549769882389345 0.7811340505191192
Ni -0.13708621858933667 6.486544599748351 7.934865762126354 0.601567434403964 0.5160119198296469 -0.32278991771458604
Ni 8.538923908791148 8.458368628884251 6.494294535255456 -1.3790888278711604 -1.253373453248506 -0.08154536497365956
Ni 5.269121042249071 2.935697594775119 4.053152031556039 -0.11852297063927329 -1.0573301796345662 1.4882558112168305
Ni 3.8026717299590054 6.7467937661734645 12.88648447318805 0.13784378245507226 -0.3518590671664005 -1.207817361885262
Ni 6.587647073971895 0.862675651120501 4.89888703028327 0.4768478480356755 -0.28750924013542095 0.1904084439256656
Ni 7.809273675239386 7.088910516564108 10.02524774485592 -0.0842149413860227 1.4230832311742394 -0.8751253545656155
Ni 2.0411283665540916 0.9108592347558572 9.325069290914659 -1.975735170824423 0.43354764258614364 -3.1736764112465536
Ni 3.427628077733554 8.381061989793833 9.89954369916115 -0.2697837978311999 0.15735871255954834 1.202737119148877
Ni 6.81641929689272 6.265022168480118 7.617724085131316 -1.4263338769010532 0.6540498205733962 -0.9164856626799571
Ni 5.211278717203142 4.8020325668900865 9.029779770733736 -0.5860842511667004 0.0893419781999429 -0.16156143778698628
Ni 5.78037818498011 6.022218386778517 3.474540653591842 -0.381012291691589 0.5600448896801452 0.08554240194819461
Ni 0.3071700015397151 7.666562903100843 12.42608324235722 0.21637581452370477 -0.7490047740847422 -1.2926097730413093
Ni 7.254903214554075 4.27657868025201 3.9546062560089656 0.5824116874111195 -1.1068020611124487 -0.5160926524689112
Ni 2.642310456631641 4.169814026978277 0.7775823687171417 0.7364359362807962 -1.320685191121287 0.8216209548895721
Ni 1.5999831329696328 5.237946938142928 8.841297117803256 1.2608160255694802 -0.6976287336056115 0.08797286576655816
P 7.48259255720274 5.67870673976611 11.4146849981974 -1.3013330118469202 0.06174349975638398 1.7182145066312926
Ni 2.836274502668568 8.301424405032837 5.191584061677033 2.2006444767404356 -2.4582687563909666 1.0309367772427018
P 5.543952384542499 7.969769379305426 2.6549572134372563 0.3663379775088659 0.48489720070271336 -0.35566712805858103
Ni 8.21154534244362 6.072480549919332 2.9228058133655495 0.43153009793548264 0.06973963058798312 -1.0593302407837302
P 2.756352432412342 3.4248291075385664 3.7806690711409634 -0.8281299596526835 -1.3492928275556506 -0.5496139241548083
P 4.300062499035531 8.924732125077979 11.828923410104139 0.3314020848636292 -0.576582225213536 1.0506034024336939
P 8.724647052417914 9.374898301946612 10.757595084441474 0.32625139390062524 0.20192338654380065 2.595217280725279
Ni 5.555304273497252 3.9032970027066827 11.832576754479957 0.28205207367559165 1.0666424581744276 0.11376103047425569
Ni 3.3533314787216804 8.59861997803179 2.5135514037961797 -2.350398894590165 -1.5895978992014432 -2.594280370733306
Ni 1.2531861373349114 6.201297417548985 5.864926356466806 1.124620063130476 0.12520732463798437 0.8479865893672944
Ni 2.6940042242000555 8.88652847615426 0.17547432423738124 -0.037631694309844865 -0.24700176693967782 0.5832059011776407
Ni 9.114373826977728 4.170355467114358 6.605922972802447 -0.20334803480546912 1.2568094755132484 1.687517591768068
Ni 8.727308368341017 8.922098340009251 8.756007448638673 -0.13439181935072986 -0.09868768108090101 -0.7449141489551364
Ni 8.054968196650563 7.7153292231538435 0.8629702312623343 0.4650472558563217 -1.2314900229118533 0.5603251399247253
Ni 6.241079502123648 9.198425525390492 10.275971235666615 -0.6858718501799994 1.28756038354286 -0.16860651755922576
Ni 5.798034639587181 1.5241080983068152 2.221002121320906 0.46835986516932243 0.5096034452001417 0.18973121535298293
Ni 8.714965368628693 3.7983677397247453 1.9298495708576886 0.09184057625208053 -0.1317798356491795 0.026980128133269665
Ni 7.645272375716018 4.806942235920638 9.253546884328836 1.4827073705947755 0.10115259768162578 1.25988425778383
Ni 7.352481739417372 0.6878427957901024 0.9382175624453579 0.3122571365040622 0.23255422405578013 -0.5770923320807352
Ni 8.328936905506847 1.6591285851227362 3.110146853534533 -0.045748924100340566 0.32702015374584975 0.4901160258994914
Ni 4.321398911177651 4.243541654999695 2.520307475460278 -0.6512971975289235 0.4430095593299918 0.6517455979202517
Ni 8.192310452185605 6.167590474840163 5.488766786943944 0.6838319369318352 -0.13440107532211046 -0.34625946159143595
Ni 7.128041037585184 1.550262409964898 12.020226140217964 0.4891053252467899 -0.7819503757728276 -1.2739191386103415
Ni 1.9077230231949502 0.3573862799232344 11.515031291620724 -1.0789732118256383 -2.05084069371001 0.348085201946265
Ni 1.4288696960655571 2.3974785686576072 2.0828330224594103 -0.5368270568027851 0.5466484137685812 0.5035700945218683
Ni 4.117799066108799 2.0832413967993344 8.228382295285405 -0.5231575297354925 -1.4398028579217654 -0.37839825110750963
Ni 8.981684285832387 1.6949278727642034 7.59824784104993 0.4349146981369993 1.3347100446454692 -1.5592979626663208
Ni 0.9002470080886967 2.6205151969165716 5.326045672149102 0.12688445523009118 -1.9205703527268212 -1.4138992506821262
Ni 1.4473612532553948 0.3442375438728129 6.412054367060692 -0.11411841381367442 0.9999616690174262 1.5264523768912097
Ni 2.181324653992875 0.7806961083471724 4.010467277234902 -2.0443201189826725 2.173842268945927 -1.9186769923588503
Ni 7.260840702148033 3.1151161727495684 0.14341464431544687 -0.46255277156924207 -0.5960742724998767 1.126931227762156
Ni 7.393521066341915 2.8185905172071206 5.7259790521215885 0.12228989388087326 -0.7924993549332675 0.1995641422830047
P 3.5566376613438457 5.287704368953499 7.538747240875364 -0.0625780798425374 0.3780907471694198 -0.47532601207451036
Ni 2.6457701673316754 4.365934656608064 5.685912482051697 -0.06419401817940558 0.5615446141541232 -0.4121156979646129
P 6.558207413691498 8.337930317936644 8.378531904276594 0.2709261389657592 -2.135609964937606 -0.4768635317649594
Ni 0.8314593330376467 0.08516210953930181 2.070020162832387 0.01876313954011607 -0.7230649142905289 -0.10973211182052069
P 4.770078421909929 4.579069354242793 0.42678697533174415 -0.34260463844766803 0.1226123102172985 -1.637322973191548
P 1.2026853734561636 7.312846486066053 1.1488019852696372 -0.3483639095289484 1.6805807554389185 -0.14088488327424123
P 0.36019626245997305 3.5102573486701787 8.802520827108497 -0.28453575932939384 -0.9206688475233692 0.05170925544883352
Ni 6.197222851101199 6.264031057722549 -0.06963562536585949 0.3919824175498475 -0.7003589880525809 -0.7590971253237379
