# total energy = -381171.8731280788 ev
CRYSTAL
PRIMVEC
9.25586533447512 0.00000000000000 0.00000000000000
0.00000000000000 9.25586533447512 0.00000000000000
0.00000000000000 0.00000000000000 13.54689451420743
PRIMCOORD
 96 1
Ni 1.8695367450999525 6.446451183921766 12.286044320515751 -1.713390602880088 -0.05491876352506671 0.05818483587084818
Ni 3.3229575431473735 0.2432608069320735 2.2563301101238253 -0.41080006447698286 0.14567382002245235 0.6687917547692611
Ni 4.159863649349808 5.456249432656627 13.447014014222226 1.6817909736969356 1.511182852326649 -1.3308197084521274
Ni 3.864138745367595 3.0199575288512306 0.05345725142251256 0.27438941492401137 0.4762243555190637 0.3248180038882083
Ni 3.6109815670008487 7.467743387533582 10.118961117095441 -0.5357934733319483 0.6618047819284667 2.982385821826251
Ni 1.0923309716263214 4.860643741065031 5.340592764809687 -0.6941536305728174 -3.0682840644519676 -0.9874103147149769
Ni 6.966214313283934 0.1901201061110067 8.690008199601289 -0.17427425736796437 0.17889221575594996 -0.30407460069326986
Ni 7.502656512348008 7.688107034294413 3.637612543330665 -0.8758352361484465 -0.0849883292169375 -0.7878862816412883
Ni 6.069256151462199 6.956236490232515 10.642426592673347 0.0011567393122625242 -0.2844293156585166 -1.20640222670529
Ni 4.978424630053253 4.874731168415922 6.532177159374113 0.8759267674209883 1.168954109161161 0.8336591170010287
Ni 4.484152154386455 2.5413459776770115 6.706565996414442 -0.22116886503697392 0.31507223735535417 0.3001703805428572
Ni 8.999265179002032 2.522066009758547 4.547462274675604 -0.2130567774528008 0.5298220862398617 0.5454564503430089
Ni 2.866106531856165 2.9412363924390643 4.98930767675442 -0.4577196118466569 -0.85296450219786 -1.0638235006683938
Ni 7.326970928545616 4.533634011559816 5.366805376017124 -0.5424670286973818 0.41339944977304294 0.9858640532737795
Ni 9.15013578729343 3.6372959927292188 7.146922129727976 -0.4830300655869874 -0.07072667709160078 -0.3223610577072835
Ni 6.455272023780767 4.219147468129341 0.6253188711460151 -0.319080844294115 -0.6246178884655242 -0.4334717950428857
Ni 1.7860210703384027 1.5268105559089222 6.708056190766277 0.9505946885485242 0.8209774077683021 0.13111366282009032
Ni 3.494635337171226 1.298829331809207 12.095412365040419 0.18290493645976885 0.0741488153992723 -0.7247888389601711
Ni 8.402733900856502 5.635785456523387 11.251657843925418 0.07125401034998051 0.8897407904859451 0.2544026873894393
Ni 0.06185509822636428 1.5568458395841112 2.3249725345501946 1.2853034691878833 0.11434518511249986 -0.9499557694129445
Ni 5.726011633800965 -0.06261963271991455 2.7550722432595753 0.20849049823835705 1.3521840330605164 -1.825996693814294
Ni 4.07177557701182 7.185744932146222 6.409063040662119 0.5849457666868829 0.041365964541296506 -0.28975072787143
Ni 8.745126878888115 8.211072693133195 7.816896849755136 0.23536649669359466 -0.8748782715518159 -0.7509518705087841
Ni 6.578319500260878 6.33245594393914 12.822799367835056 0.257133456057041 -0.32964679273541936 0.1451017495690662
P 5.107099672781288 3.732150102776472 4.6339046541206965 0.8788262004559704 -0.8406954550225199 -0.6698417933003302
Ni 4.8711584043177325 1.4741539368555634 4.482532377917068 0.47926211390412293 1.096483195684944 -0.9693755687004532
P 2.1843379879587657 0.1816463612097323 10.132589453515578 2.1654836125685866 -0.29003997697707473 1.1764051661225674
Ni 5.805260354548876 2.1491842106403163 9.570664005448569 -0.42481360514725547 0.7947722101278442 -0.788035662734959
P 7.974872260434536 2.1212129849804024 8.585913958986104 -0.3410277808788514 -0.46499172002803785 -1.0840902213372297
P 7.579739360559709 0.898990749894175 3.2117381372399967 -0.1901557044849112 -0.2549963551093802 1.2712441628813396
P 4.585105879824138 3.895627199932461 8.754545647660958 -1.1440118373935266 0.033162088574265475 0.35157161783296875
Ni 8.930938379590556 3.7101396545238985 1.1994926060812472 -0.6334737961942575 -0.6482607246954448 0.6065574314193876
Ni 7.025229711962825 0.022953620951032618 5.775650840688496 1.2824809121374237 -1.8692768446591679 -0.7759005700343218
Ni 7.9605071571174655 8.411471437925648 10.557989033704079 0.09072137504597279 -2.440766742951461 -0.38846463420457616
Ni 8.843581520630176 1.2515781382308282 6.562386453321442 -1.0419205299477152 -0.5402329971605405 1.1674818954910087
Ni 6.75869780789172 2.31032882968039 5.826790423379957 0.23212664960005827 0.3870232737723593 -0.0407949225291749
Ni 5.71116522547585 6.138610351948545 4.221876097290341 0.44232230345498014 -0.6996627333165047 -0.11157996366253686
Ni 8.031471878207658 8.589693128885822 1.5226435652431074 0.28409970023323977 0.33785478246750844 -0.5776798291530889
Ni 3.323846106239151 9.473378379524128 5.572474410647684 -0.5453150396691383 -1.0996554227653386 0.5857366380192944
Ni 1.3609361895782415 3.747126093219139 3.098689772302045 0.446926634996211 0.00919580756665513 -0.15522341138410042
Ni 0.7197823836675074 7.3440387446001765 9.803156538412162 0.6230261184983722 -0.10111737356831617 0.786392213594265
Ni 5.008274796417655 0.7984415057805605 0.5594430249293575 -1.1873917470410582 -1.1132339327807215 0.27547287779617724
Ni 1.1457743392505249 2.3270541787099943 11.02360997759382 -0.05010745817935241 -0.8866690935391568 0.381254232499066
Ni 3.5156461519455497 7.238697738896842 3.553838629920567 -0.20858228662121497 0.32388495055097766 0.8115327174156346
Ni 5.180082172559058 8.424855419495547 4.648061500463132 0.06516512384342325 -1.0641402605778638 1.8836148585483947
Ni 7.051146135473004 6.100392883136571 8.422118460055561 0.76438408475429 -0.3033212674670131 1.2804854789739495
Ni 6.486547593438228 3.8208675739711357 7.855857564569919 2.1496155351880786 -0.900965455557171 0.3899196214835478
Ni 1.681577883592384 1.9744982603161751 0.15190819081835655 0.3804854726538415 0.9260892472079921 0.24397789251168947
Ni 4.244323422396372 5.180813385936667 2.161217761428025 1.384336963643977 0.4070315985734861 1.4157815553065036
Ni 7.343529671995512 8.870941859164493 12.885115408165278 -1.1396625592858953 -0.3271111707977592 -0.6146366088830962
Ni 0.5060996206529789 3.919294448116578 12.625191266502714 -0.7822861618456914 0.5103989445182435 -0.18190734843318995
Ni 8.684065933925028 1.516388451311615 13.097517159389161 -0.3877095012061064 1.7158231235809804 0.5979352369680154
Ni 5.061616349520925 2.9286391594400096 2.1798581490377202 -1.0750162840604194 -1.0216072723116598 0.9743791925626315
Ni 1.5220160175595394 6.417285951607276 7.774616981557942 -0.6666628813517164 0.2919924727177552 -0.5560293407628488
Ni 3.4295388348329823 2.9804534947292876 10.451930698421442 0.43671215635705435 0.039696804368989695 -0.3129760169479578
Ni 1.481762258328909 2.779666003584181 8.718036811627547 0.1131961591097212 0.8536504725212911 0.2715246917817066
P 9.114685822277721 5.358674098140806 8.64579107874671 0.7066877584840863 1.24876680771443 0.142068104949065
Ni 0.5923069011133715 0.055115902527163974 11.746783710394945 0.6860397432164315 -1.2251849066294318 0.11403896672599069
P 6.429577741043532 6.817694694839533 6.534778057590671 -0.42880909945989376 0.5387276162596077 -1.1907935736337556
Ni 5.613164121145218 9.552701147196354 10.838165934753292 -0.940227229271271 -2.090177543636419 0.41046247863190605
P 4.848824000771282 7.843661110548719 12.098514931169207 0.22311621857133185 -0.19626156027233296 1.207004121955347
P 6.7820225890508805 5.670661557875656 2.164943247307613 0.3823577499758899 0.6697317500850272 0.8648375994863622
P 7.415447747236258 3.6509391385342203 12.223688479963709 0.7427623927194563 0.15889751780157796 -0.059926758262619374
Ni 6.018348890995778 1.9064583927364174 12.46191039369616 0.5489840038802932 1.6565645950299792 -0.4630495087000025
Ni 6.235602566935387 4.437521103799212 10.485445261952872 1.0438452577742539 -0.11914029250829804 -0.043388137177647855
Ni 1.2774760500099278 9.111381478280173 0.7270389822503572 -0.7015257546671724 -1.0383616089518632 -0.11903847682311113
Ni 1.4815863968836611 0.8808640628219131 4.310432516424621 -0.029996032141458014 0.19581830208732726 -0.2390866258576592
Ni 0.4201718673318746 0.6585307678743086 9.22825344127243 -1.6221395805828904 0.10833703124520698 -0.5680772730663184
Ni 7.2217780166909105 3.510435099646896 3.322240213568074 -1.1641579733240983 -0.7176157182504995 -1.3409218298831358
Ni 1.6926571546429854 4.714289995156838 10.362277459220751 -0.8751096708363316 0.8406689726599588 -0.8355324227643416
Ni 9.133567787977993 7.695178515566475 5.133067003551933 -0.23763600945406174 1.72710332448049 0.10926262838326989
Ni 3.563360138800896 5.224029022139889 4.872506058340262 -1.4953271162413149 0.027931436302945443 -1.7940047142887299
Ni 8.586240691039643 3.729502925232218 9.822393003762592 0.11492882553011174 -0.8659825117240828 0.7260869889463044
Ni 8.700495095257374 6.0117679705973 6.500112064386145 -1.0761020609254308 -0.30826781283901106 1.1487709493450666
Ni 1.9167324034850952 6.767213204187921 5.503060047035333 1.4021567654342175 2.561747431102607 -0.5235359961208339
Ni 2.6497229072772543 4.20209816380586 6.923370762875392 -0.27154526060699685 -0.04968322615774024 1.5099068138277028
Ni 3.4140167483234927 1.4636670411994805 8.503670040149661 0.45738742531821874 0.6416817859263464 1.0327573753912085
Ni 8.74036010813535 5.277268760722228 3.613471394830934 0.006456297148305011 1.2142924280866443 -0.48402919627546315
Ni 7.023184165678629 1.7752472428506 1.2738699647957974 0.30092114266595266 0.032604673408898686 0.19306310793969333
Ni 2.8268616619693234 7.162003637037792 1.4577673525046992 -0.194672104298026 1.1870199655239362 -1.8827527676584155
Ni 3.101825659546776 8.513054562220008 8.223154374421707 -1.4107625048253574 -0.22450795671253596 -1.8142786340464174
Ni 2.840939833454674 8.449550068754531 12.513023134377555 0.5955050302599679 0.0865621014619606 0.5378110179826092
Ni 9.342685558108514 6.010231496917768 1.3571551685054173 -1.0025664536301249 1.757668598861857 -0.8754482851226729
Ni 5.2994550704200485 7.634635899073591 8.468746733883142 0.583892128611388 0.7238133624207793 -0.5917219090684519
Ni 5.264782598109645 0.439743395014829 7.0315431378472155 -1.0951410798347527 -0.633826808658302 0.8212237194511535
Ni 5.789145892644869 7.474787101209026 1.1845119877058101 -0.6448642974193862 -0.5397234045139737 0.17464835287793146
Ni 7.7164762621725185 1.3048641561408627 10.868944464431292 1.1310588767772844 2.377121141076358 -0.1450629259113308
Ni 3.5274196129116024 5.922513659201354 8.505282411926617 1.4872538523148773 -1.6622799002472015 0.23081847231159602
P 2.564624479508476 4.438826180840261 12.338741665377484 1.2075286270002494 -1.5588655031145928 -0.28351708825689237
Ni 2.251813247740623 4.980211012102347 1.0065318748362142 -1.942611648797577 -2.1435754996415857 -0.24571775802093168
P 2.7444752028035744 2.347361547703327 2.134042540204495 0.317177456623815 0.10496374389759987 -0.40877146408272824
Ni 4.173793726986529 5.186191043815029 10.9346203839523 -0.8592660189358556 0.995126195301996 -0.09830844336461134
P 8.916258576845147 7.279368012076743 12.842957717393205 0.10864453518329677 0.08634767145830935 -0.023045311855237734
P 1.2256709705861892 8.661277992967149 6.53270566929641 0.4698673029527844 0.3344778955754756 0.1170510140794371
P 1.596516479285763 6.101818286429631 2.9267657722548455 0.09929986074360318 0.034445326162063264 1.0486791888277873
Ni 0.5924679531737561 8.422310056472226 2.9444444754350028 1.007067426824272 -1.2456133496871127 0.14453225021884142
