# total energy = -381163.570369817 ev
CRYSTAL
PRIMVEC
9.30302253068133 0.00000000000000 0.00000000000000

0.00000000000000 9.30302253068133 0.00000000000000

0.00000000000000 0.00000000000000 13.61591383758863

PRIMCOORD
 96 1
Ni 8.901522786122905 2.370754379769285 3.6342239325764916 1.4592920769946287 -0.010678562759768707 0.12888503059988773
Ni 2.984493389183693 5.165428895065699 9.822996481349765 0.30435845048227583 -0.19140603195224454 0.1154903544605366
Ni 6.458790920210419 9.312604750410843 12.071120277321397 -0.7428796350236109 0.6564903116940887 0.7544470281462362
Ni -0.09409449216062998 8.872320598065064 12.655897116662 -0.039403955718919234 0.2535819912603568 0.1496564588192842
Ni 3.9522775310980105 6.406284660446656 11.845926659856566 -2.70559422521865 -0.6657519395016728 1.664211570052276
Ni 3.6953838639972796 4.729824163106381 13.599547357251168 0.36642333813382055 -0.16678386252819016 -0.5576324235839106
Ni 2.97957209020867 2.974985700048582 11.951287112430718 -1.1226955924142537 0.5924045369577733 -0.8523127275464741
Ni 5.470698279879323 4.543261347142084 8.206679095056042 -1.640458690607052 0.11036588874977767 0.5766079362451488
Ni 6.495696011011773 6.349294343771815 4.583253180854427 0.3133462558031829 -0.1586928579899396 -0.1829023653566076
Ni 0.3898450242119781 6.270637287375179 5.842779182365769 -0.2920685773713293 0.9170165954827627 0.16809229692696856
Ni 5.005621572205688 1.4821017484060948 7.978245234806711 -0.41504161336215617 0.6944331094864492 0.1497906704043033
Ni 6.717331222317915 1.4620444316005186 2.641637002009416 0.8027961088735851 0.17726393612390762 -0.40993771647668753
Ni 6.426769916293539 1.6007431960969625 10.370452384777137 0.5142376015380434 0.4836324750576767 -0.6827327903303856
Ni 8.812958010617765 0.18950815293119996 2.960984650979755 -0.5778235538198048 -1.211686357922365 -0.12173787803214516
Ni 3.7376661018828745 8.765075353104638 12.012817304152462 2.4537389868414126 0.5389109359150074 -0.03219072579993166
Ni 2.2906367488186263 7.389828122708212 13.256589567130147 -1.9199589443950673 -0.22877650218090276 -0.7494575453514448
Ni 5.1699315580220535 8.224876737636464 2.261752724134975 0.30377326740276717 -0.12589715161615736 0.3841904323092544
Ni 3.1197314292591374 9.262712640008104 0.9594402609111077 0.13882542964205125 -0.46421576109396184 0.2722669692643698
Ni 5.104949944901947 6.704902384074757 10.133303452921377 0.35684469330644997 0.19155978392128944 -1.3832974666358695
Ni 6.217851936932304 6.215377332910837 0.46316865773076693 -0.24193772215320916 1.1278779079461414 0.4822937016415952
Ni 7.9095600883747785 2.0722855045033786 12.85456688628621 0.12534847820153897 -0.5302884843533191 -0.9241480643212213
Ni 0.35823893510471283 4.887063851718554 10.065033221299055 1.578371177247688 0.6474976212771751 0.27511857978055204
Ni 3.8643267550869176 1.7991859719688281 5.46819204558089 -0.05264308011701256 -0.3394277833815832 0.9941764297942169
Ni 4.725033106448277 8.157467035608077 4.976820344423506 2.2686038754995446 -0.47512340914540113 0.5103187260996114
P 2.9259587707510932 7.882897625496865 9.894848376687365 1.6562056690286637 0.04372829412588598 -0.45037731254897273
Ni 1.6578730581113608 6.404219389421221 8.18776605003483 0.2576476766892982 -0.4874256235515218 0.2586619768864255
P 0.7345908552838488 3.855470277536404 2.725960529494306 0.8912695684256456 0.8211522427832697 -0.22614754919848792
Ni 7.276489397920488 9.014442874891959 8.400732704847726 1.5586287045134384 2.5994943108340776 -0.1813352779798038
P 0.46814763544613996 8.991408590842514 8.623326127485491 0.4392200103805726 -0.8055266204308706 -1.4541586124228054
P 7.41317870952732 4.5399122589927305 8.616204663656795 2.657008345890147 0.5605030602634863 2.360319753248303
P 7.048156010315637 8.707247764392458 3.778579865138553 -2.323751981426598 -0.8407522764023844 0.7421604974693993
Ni 1.5448785451612093 0.9831248262428868 2.548463509089858 1.2954611264471754 1.1446096188785255 -0.5122280273071823
Ni 2.9042827280066628 8.84016004880863 4.055785751865117 -1.209389077247756 1.0806261740480294 -1.2879928430945882
Ni 5.845544970995777 1.042803716459849 4.7349752467405395 -0.049746732405824 -1.7300883752507432 0.7120348817286124
Ni 5.232392052007507 5.4393377905696765 2.5129668959157603 -0.39669910629922644 0.7126992547854887 0.0515570461416854
Ni 7.289783417268897 8.116636069253868 10.392278206186024 -0.1427936702611799 -0.08175748098446566 -0.11467814297188636
Ni 2.717598972748085 6.763883547593937 5.783413804011676 0.37626860635901654 -0.697805882613424 0.9983724701534353
Ni 5.153511723067582 8.99321337723411 9.63515170886608 -0.9084787332150805 0.016925315000428914 -0.1426280912175931
Ni 1.527547013988302 0.9735241068814052 5.267070929491805 -0.30006085154818646 0.5109748716263717 0.11306477573817948
Ni 7.36050499535609 4.520041002639896 6.545251351995049 -1.8655217484921098 1.2473275041647423 0.6685932656052098
Ni 1.5831418772675794 3.057847722677184 9.591063754286623 0.9012863292316995 -1.5560311189895912 1.2863769047577203
Ni 7.67462155469759 3.8235795159364434 10.778112697339152 -0.7746209319909497 -1.8688803805516974 -0.89548514916889
Ni 0.7912220752848987 7.878962446921374 1.5257580427351887 1.581399936771683 0.40111651864063175 0.39599539536398254
Ni 4.507426103943996 4.643119992128658 4.690001644406032 -0.6100826709638267 -0.2902994012860484 -0.38016922696500327
Ni 2.97073421870343 0.9900834871754337 9.3494354170311 1.303122242536859 -0.4775032222314872 0.7231798426018384
Ni 8.830689571764067 3.317364842161576 0.967700414710584 -1.9373246893670248 -0.9864834320253333 0.43548728281101773
Ni 5.6722482653119775 8.721565116230947 7.026750685529946 -1.5837388693175047 -0.22627276192244258 -0.845288473709841
Ni 3.367740709741444 9.220635068620526 7.15374717785119 0.6797089159023971 0.05196867975780727 -0.5759615609104016
Ni 2.335477317929423 3.2699566388029413 4.5714346208962615 0.3110294347445482 -0.0260712431657551 -3.292619243032065
Ni 4.978177655426259 6.074176055325014 6.292622190471161 1.4817630044036352 0.48699702065453554 0.6654745174705701
Ni 8.695600380050815 7.112309654421042 8.313441513141605 1.0634992845597553 -1.016223125181611 0.1161963793886257
Ni 8.496013332394586 0.6265548533992688 5.215290305493736 -0.8649998360958394 -0.09400235979008972 0.6753868914882756
Ni 4.143891888354249 1.98457660708085 0.23255323867303684 0.0037494397401032203 1.0918837492397195 0.10346273387204118
Ni 1.381470952540642 8.259028133737237 6.846871161028139 -2.059709199844234 1.181388992490404 -0.276560197323085
Ni 8.37025507238634 6.986942121363555 3.312084446512761 0.2988336640093047 -0.28575574777942403 0.9918123004374145
Ni 5.122179142825846 3.1673070870252396 3.0301396000548615 -0.11170337661427858 -1.4766051143517795 0.029165565820362675
P 4.516477944969889 1.4446291732238776 11.558862360041473 0.37588808309114613 0.012371634191475467 -0.514384925749185
Ni 6.446194627559792 6.734448783970169 8.40194488869734 0.1981227818507878 -0.26321565769537897 -1.4732194857089984
P 7.489863525124891 7.443813563071273 12.505332346791944 0.16337432262600896 -0.9980109730489587 0.720731638171662
Ni 1.5957660789861168 1.5162159324163207 7.6935364603233305 -1.2128376979179887 0.1564858230362918 -1.0716946758863541
P 9.0006092802306 0.8215229503161796 0.9354700927843697 0.45708532069676766 0.5939759952099511 -1.076610110910101
P 0.6244142278904734 2.230092677496415 11.498856933729948 0.18078171946917898 -0.42842163421348795 0.16454417456439402
P 0.9110961734751816 7.95278193154672 3.8906654727770604 0.3038064346335478 0.007011655431142763 0.5404134886024629
Ni 3.0295665338604163 3.911139564996778 2.0971776021734527 -0.2927645749970893 -0.7521186371233756 0.2596235694687465
Ni 7.035671353936657 2.8838811993635143 4.736064630691343 -1.6647805551818684 1.023522744166818 0.10496297256665148
Ni 0.475140717562444 4.15659981727652 7.874763992805253 -0.5467599996457809 1.6187788916407733 -0.3153987674568375
Ni 1.8639071004550958 0.2311810428340654 11.249345215091752 -2.021315173447067 1.3707247721771811 0.2895612375684432
Ni 8.676510577599498 6.045150624697279 1.2838254966394331 -0.8106942806747394 -2.2898941523368883 -0.4721342446100901
Ni 6.046192563232633 3.8491535251658164 0.8115863918374988 0.22283288300295817 -0.6944097124476815 -0.24486055222695896
Ni 5.571738408740808 3.321969838366938 12.058948202503021 0.23725651462745587 -0.36825499202592066 0.4856621038931958
Ni 1.8790245122403744 5.453655142408165 3.765889611959292 -1.649083713271902 0.1595372082681059 0.06400761320021234
Ni 4.467525439853497 2.9990805286786575 9.779058305434766 -0.7497012859311347 0.05940559565182673 0.101606911610225
Ni 6.110467146632321 0.6678993466030448 0.6076008750784523 -0.16873224450381263 0.07412850368429814 -0.0586985422824731
Ni 1.1687666429661103 4.7644128012710985 0.7034657324469213 2.32290506004527 1.0911468710736951 -0.2881255335631812
Ni 7.541411573557031 4.079933607724223 2.682593559169225 -1.326802102652302 1.367250954695968 0.3070323977700132
Ni 3.0223939034072163 6.503510550026932 1.6573288312870906 0.47260141405449574 0.13286509829355828 1.126705484904595
Ni 1.4494388359272554 2.4054267451377376 0.22058024853909605 0.7302434343168391 -1.3892009766044977 -0.6642303606508237
Ni 8.884070315655714 2.7594625746150108 6.213145537780198 2.0410015961324013 -0.7145437641933953 -0.30146415965361634
Ni 8.007511613720748 6.084102380478795 10.756245012328398 -0.6024050998139109 0.7126486040532113 -0.255455811244302
Ni 8.547766047324744 4.604931084203385 4.803545035691773 1.8735088804626443 0.9378633570247848 -3.006847554413041
Ni 6.016674072405133 5.638487596161961 11.855839030476389 0.01988311207717221 -0.4868052163587035 -0.13590259956830145
Ni 7.847741502951284 8.089620091515744 1.0906333467439435 -1.9450212866803338 1.439419763550734 -0.6263824365651147
Ni 6.9159042405067 2.0029035616759265 6.890319997952426 -1.0294887319422656 -1.1091553918359736 0.2472028272068904
Ni 7.836326694175569 4.731405676954687 12.778957500105488 0.549519307558473 -0.9300353763399338 2.4854815693603323
Ni 3.6030234552562037 4.258774914899731 7.026587882633797 -1.6475150832332015 -0.348784799116451 -0.5796590643666469
Ni 1.0239650956197324 7.4103598936682795 10.713450177895497 -0.6427513648414415 -0.3282511979394734 -0.9644177104745456
Ni 0.29495698422040395 6.262720415111012 12.68060966599518 -0.74977199126807 0.6474927361811688 0.04243760033892046
Ni 8.824782152389512 0.6133157218844194 10.081453986555793 -0.09149604842846824 1.363898493283967 2.9086095592750487
P 3.7465504885013 1.5044383057577588 2.421549813670086 -0.041246665354612834 0.326064988921432 0.2211727216917159
Ni 4.00777006112828 6.879482906882474 8.082297682398087 -0.8170978702082379 0.6551754495374071 0.7227977766720712
P 1.885145901135583 5.172768979926367 11.772700708075465 1.1683252173279104 -0.17064257415264805 0.27585108707120237
Ni 8.21765759207008 2.5361621222568282 8.824664934304284 0.33033019195568913 -0.3895522108418001 -0.7349750354645536
P 4.379742118249872 7.583814750736909 0.17315623004197875 0.8787824917022286 -0.49369037351431105 0.817035906622051
P 1.6948990882069972 3.367256952564315 6.394264224897266 -0.2322238372995549 -0.7033427532712533 2.16751761227948
P 3.5646856989687365 6.67651886200898 3.8981544059999216 2.75148533132381 -0.46126747709891525 -2.044190535383344
Ni 7.723629877949804 8.04516094633307 6.267541241441554 0.11182139024938162 -1.2563880717051137 -0.6451754009019017
