# total energy = -340871.25893775723 ev
CRYSTAL
PRIMVEC
9.19337916950232 0.00000000000000 0.00000000000000

0.00000000000000 9.19337916950232 0.00000000000000

0.00000000000000 0.00000000000000 13.45543969557313

PRIMCOORD
 96 1
Ni 2.3991502123834443 2.6145510878883744 1.7181515647974368 0.12270127038667901 1.9768379169702988 1.7016347478957403
Ni 6.902572998148171 7.1001387179348106 0.8321451569330605 2.498629676706516 1.166078587385579 1.9472997983018658
Ni 4.774829727576786 8.866867179278577 11.658115935425265 0.013985258535498495 1.030732888762012 1.452468626314892
Ni 7.919351548296262 7.183862822639181 12.174549417331013 0.598714281225885 1.270974711270037 -1.3250681506803308
Ni 1.9354821306040522 3.6816541959756024 12.090708556710345 1.2286001029585678 0.02761441928315889 0.8644218521051822
Ni 8.765179211546608 3.0612849651146257 11.940101698724456 -0.8419601806675563 -0.4595147560738667 0.5015371232522395
Ni 5.327480526983673 6.313286582484897 3.558789279172972 2.4393240969676633 1.795619367074017 0.09477086252499807
Ni 6.195317140125559 3.5186463887379618 0.9756243879970955 -1.1731144111864378 -0.7438080603751512 -0.7808769402029906
Ni 0.7440201815883055 4.72342954426701 10.311683950638116 -0.6065759433621489 -0.038652422264875363 0.19311067334817708
Ni 7.336206309962791 6.128885781764543 5.69080379373751 -2.0830226777591934 -0.9123032491674933 1.0402120318970407
Ni 8.893003956447187 8.792630641945998 0.29525272887499937 -0.8645493788219821 1.5682389739096927 1.125433817281023
Ni 8.06845896612872 7.783041314360641 7.364282890150246 0.7923597440316096 -1.5099692916345222 -0.16873173028318036
Ni 4.056560201229169 4.258152621121277 12.92166225169439 1.3093440550768547 0.6742630622964775 0.4011383730175027
Ni 8.521573048544916 0.3842290111370295 11.520991168089314 0.1966377126648291 0.8999393282855018 0.6010421580281132
Ni 8.272469244759957 0.8092012403731947 4.081169038768716 0.2927949140143925 -0.3159271291564817 1.4205833475705212
Ni 6.869458446139262 0.3093691626922346 1.8227952039538546 0.7692082456158107 -0.4094900874163077 0.5194494847562859
Ni 3.9512040751819426 4.976081992437154 4.72404366199999 -0.7953458232431271 0.21912586646501617 0.1341773893470786
Ni 8.29005617923887 2.4201111170420546 8.178363976222032 1.0602902907041547 -0.6544231447524149 -1.3451299544272124
Ni 7.487520138811944 4.993218451333492 12.875551019459216 0.5018775373107938 -1.3259850060676455 -0.3145875844094517
Ni 4.216570966835797 4.973829614524278 2.087638072991244 0.2776480310706251 -1.1547994149273337 -0.7647219277096831
Ni 1.0696772542733732 7.774325990844693 12.224926377531798 0.3569735055748304 0.07500062187660632 -0.06418681909055399
Ni 3.9163795546350935 2.451101998447395 11.31549983606312 -1.3603094903811284 -1.185465733662939 0.2862992789877198
Ni 2.8190394222398965 2.1753190081188887 3.9477583966442027 -0.2361216296920643 -0.5969772439301203 1.1243963771554444
Ni 5.218428662483483 5.000131872519139 10.287222207166348 -2.1936024822919897 0.040993925913858434 1.3018405476109578
P 1.8826845536503682 3.647914494178629 7.785290934259748 -0.0578729610573842 -0.03376784047906443 -0.9133052080694464
P 8.127066758759703 2.007788058297022 10.139468054757465 -0.2978952113554353 -0.2124209436410148 1.4676882714781239
P 5.077760766789888 8.334313106882094 9.635198332919176 1.3089092815322811 -0.2966374276889343 -1.0226871356394
P 6.685158772590507 8.949773073230922 13.082212668662184 0.24065448456541133 -0.669595224507163 -1.0917035149081133
P 0.49789595201380954 8.34935347531257 8.509274145802685 0.710212483807893 0.8344327619422597 0.29538607178033643
P 7.388562604713137 1.2966617876159565 6.395867950150204 -0.7981766078237027 0.335950366355944 -1.0255600863118208
P 8.906021781445691 5.334476688582447 8.544459966153518 -1.249646382105906 0.31923639603537274 -0.596896768401172
P 2.818846361275935 0.7833853121399298 5.648459088975423 0.07392538653455655 -0.10261581249071358 0.6959163789001951
Ni 2.8961442938941793 8.700329114414222 13.03019377092981 0.6654179532010217 2.000519833968271 0.48547878423779617
Ni 0.11606917087120763 3.9806045019794145 1.3035062584573318 0.5343785952622926 -0.07276607611913276 -0.32455035204911853
Ni 6.424250669866225 0.0027938679498910914 7.90764102182515 -0.9918724642513886 0.4112145263065821 0.640327071670665
Ni 3.6406884980989496 0.6900936576644122 9.550200025852664 -0.793924260305252 1.7091755363574759 0.43702788782526025
Ni 4.926989347315672 2.0202726672998255 2.6773501421131556 -0.46626852985793243 -0.2647475209588731 -1.3455840112454955
Ni 7.483585372498837 5.035912504506557 2.3844784984603407 -0.586741425134725 0.8973972785899385 0.25924715996593417
Ni 0.11972261977968646 0.43886342526211264 6.523627422058205 0.2931630959870886 -1.0827853864828771 -0.34199194456433357
Ni 0.1587880461682097 6.499066390090686 0.5911039467382775 0.46320737443410553 -1.452652460190924 0.7550088141869771
Ni 9.180673986128141 7.323942342061657 5.1552094708276055 0.34389481801400124 0.315053982522909 -0.9700635959064132
Ni 6.632370389016058 6.121053022655273 8.295413161319823 1.2985091692448798 0.10701651266157053 0.6505256094702216
Ni 5.391705474327995 1.2167437419153864 4.8906221777329835 -0.29306436562569527 -0.5814405817471019 0.038934986502300685
Ni 6.079471368369793 1.003576857564861 10.355965700405278 0.9448672991464437 1.5521065871242041 -1.1261167022806606
Ni 6.029891474148791 2.945521933771985 11.837975206802922 1.7833058398139867 0.455052606537455 0.42540958686004154
Ni 4.218317708890681 6.627690958984816 8.757809798750843 1.089171235404563 0.2528595112720355 -0.7553235172139185
Ni 1.698853742442661 4.234350962278671 4.63518413565426 0.4558591615991504 -0.25364755439096964 -0.20431656936632553
Ni 2.014159070107731 6.225535777675057 8.975881350923899 -1.0473756395250153 -0.3776269201591238 -1.0648902513700111
Ni 3.0012430053227903 7.608339528734513 10.539740431999645 -0.4844773395564753 2.8470192972670776 0.5577465805642717
Ni 2.7788735483567963 6.344442944716489 0.21452566580164079 -0.2821749724067011 -0.8108529177397907 0.1553349972613002
Ni 4.716028873981843 7.7777275411621 0.7156613646582988 -0.1786405047564601 0.2821718870829076 0.9086576819951061
Ni 1.7269395160093517 7.672178354150912 6.846396854325172 0.44919331954320063 0.8963840068340756 -0.13275171264414556
Ni 3.1264936040372238 7.140699907125069 2.7794628439658386 -0.26657711796844413 -0.35289753573324384 0.18032174911362495
Ni 2.921141092037496 5.607428118106193 6.9575255031948275 1.614301058375078 -1.2970397837882048 -1.0554530172165113
Ni 1.0978457682531901 1.6885847378357892 0.034335432771481565 -0.7342584690135032 -0.3726958014060936 -1.926151703469341
Ni 0.4505969351813164 7.124878101459513 10.262073718265633 -1.710697372318641 0.04332128849545443 -0.5177330162858115
P 0.4203065892737771 2.7187028812556533 3.7293632375220316 -0.3730207888456802 -1.5684438908316471 -0.11678516201256015
P 1.698771002029535 8.086496376190208 1.252052753547985 -0.41722576549766854 0.1012425862922708 0.6969671887622125
P 5.08927087759365 8.966918725506495 3.06632017892231 -0.4882396348123849 -0.667536027985289 0.34431622182213606
P 2.172174872420097 0.6557858050306393 11.306915977870249 -0.36584509703284734 -0.18338753252314224 -0.6319069659277697
P 7.125907759933971 5.957778607419782 10.630927721967987 -0.39429666750532094 1.2339377131213976 0.13887016683705763
P 5.730766493939489 5.532060795127558 0.44122428504997724 -3.161283694009155 -0.6774764270274526 0.21494396717318465
P 3.212580407205306 5.782093130215376 11.302555558098502 0.8320892014107476 -2.8836693443899435 0.9204886131917631
P 0.4736520916299405 5.097829913662583 12.418389092165306 -0.901665309837673 1.6184934991898707 0.8254783809624493
Ni 5.5136464565173835 6.760204327295874 11.997516190730579 -0.44627100369008305 -1.1498760094837874 0.6215832154042585
Ni 0.6312983200970101 5.294126947114622 6.570654314865305 -1.244021836830277 -0.32058545386409953 0.469450784240656
Ni 7.347992222143642 2.487369879534332 2.7120652614470937 1.7262106374628916 0.3030636429302523 1.2479453402543992
Ni 1.921241586167128 1.4618760058702929 7.683136862200502 0.5630343113257722 -0.4801074926235538 0.32961491105621943
Ni 5.572888592315667 3.5958615809430796 5.383736653206028 2.2232460161900356 0.694664508770965 0.6120536786472685
Ni 3.6864439465576795 2.962336624395054 6.231281639697702 -4.299338285377982 0.13206471387944996 -0.09499069184528802
Ni 0.761361652841611 1.059867918628313 2.2550375574900325 -1.0965099351578214 0.2645883696731895 1.000943316204405
Ni 1.7046363779822513 8.62251635255875 4.180174378439552 0.43007125400176904 0.7661972267036289 0.6637171684598311
Ni 7.294955617329816 4.016679322102392 6.851011930701761 0.6401229260796589 0.34813302446506494 0.5554356730429079
Ni 1.345680885703549 2.5028147566512033 10.234396130737032 -0.5674694642789904 -2.94515830493336 -1.2118771337769323
Ni 5.443804354459725 2.1184579575427898 7.130737042046763 1.6957530923039825 -1.2750092863507265 2.5276530605220597
Ni 8.46990625723729 4.31854392932409 4.632599876750955 -0.7399974283798094 0.0424514842959914 -0.595913064331664
Ni 3.028528954895929 4.065174397573519 9.593674596922884 -0.12577733820884143 0.6855167808334258 -0.10249882729687508
Ni 3.106295749855221 0.3898553592296039 2.2026288604780415 0.8027403159349853 -0.823826190071007 -0.609769253488466
Ni 3.9845300749132857 9.039068365752449 7.378344163692064 0.05077028857433192 0.06554744688350647 0.10093636790576165
Ni 9.110841077449717 8.098999371951484 2.6069380505428503 -1.2603470563528618 -0.37454879545443237 0.4969027098040217
Ni 6.630237525033253 8.419600086056624 5.610191647904604 -0.42981131547216295 0.21689414892102 -1.067452869890865
Ni 5.013499045928621 4.380608432547896 7.92238812145799 -0.27326198618778746 -0.5134169054089609 -0.49820085979015494
Ni 0.7280071536346355 5.821661434448121 2.98834561359228 -0.7026953494952415 0.7872553329255088 1.0205788310471455
Ni 3.9119207657055206 8.019338740869529 5.301375926642391 0.4587639939507712 -1.1659034952602954 -1.0871135815445858
Ni 7.1252182564912525 4.099594409433974 9.645316566106573 2.3259096511995487 -2.0849810870371446 -0.6906075650927719
Ni 7.587534911522918 8.306006692213733 9.82181198002169 -0.5142126618373789 -1.210804983758676 -0.5696479599875479
Ni 5.148200438497901 1.0365810890229359 0.3340874014446932 -1.233890661933546 1.1332018912622162 -0.2935202222161913
Ni 0.4634290539192499 2.721212673787145 6.1111379631489955 -0.21709700896044545 0.7491430994348195 -0.11078780677854468
P 8.042377349235528 2.3621284741991353 0.6847918358588768 0.2726521205179304 -1.1114426452082538 -1.5475675616032702
P 4.755174282769721 2.7601190547148815 9.385169675183052 1.2355058289394656 -0.5032651616869398 -0.7469453204525522
P 2.108657815276966 4.736686397125657 1.9103768505857481 0.5697816573519349 0.5093123963222842 -0.6152675575988759
P 2.1333052650093056 6.326616982377434 4.884970088178547 -0.17993736919101266 1.6805151923083057 -0.15139195345315218
P 7.589180526406205 6.806934273953643 3.6745458751501476 0.14375577706413306 0.2922935488979418 -0.4433191201506107
P 5.116694727855332 6.327141004993899 6.752249296242761 -0.11740968297043651 0.6124514283063194 -1.6450599368244896
P 5.769259172801596 3.8234528773152543 3.410133256261014 -0.08184438427131711 1.8083015905273763 -1.7823532460927305
P 3.2557249359609455 2.153089417125678 13.438014831862859 1.3272710718689207 -0.5686573139395046 -1.659349613974284
