# total energy = -340860.147576238 ev
CRYSTAL
PRIMVEC
9.38191048169653 0.00000000000000 0.00000000000000
0.00000000000000 9.38191048169653 0.00000000000000
0.00000000000000 0.00000000000000 13.73137432800820
PRIMCOORD
 96 1
Ni 8.703964041409934 3.151533766430278 9.997346684133309 -1.203341328391779 1.7746659047508018 0.7575896875402759
Ni 6.098720145517834 2.758000158722743 10.036123995614185 -0.3143564422352521 -0.2230915359809835 0.002299594667454104
Ni 7.4531583838221716 1.9036646467534588 8.367446178726006 1.390305008301954 -1.2103740668688445 -0.232785880450612
Ni 1.5575378315826653 4.113948884578717 10.487625612236576 -0.9534655823384158 1.8060320777669092 -2.283255049753816
Ni 1.8834466301461603 7.804342048622354 8.648170759293023 -0.23456611227948634 1.0527222485489096 4.16119368385304
Ni 6.752020084465684 7.329786263921488 2.775069606247252 0.6052793360379124 1.2454269447079196 0.3419682904152498
Ni 4.9092158895598095 0.4550367204078345 10.423417694808721 0.29507085453276277 0.9380921852061392 0.4626131924935324
Ni 2.22919816890661 3.66949964989772 2.2365657830326935 0.7346891287930186 -0.40819990784997445 -3.8190194480745716
Ni 1.1064180587077992 6.380383855301738 1.9465596786468364 2.9579096910617575 -0.4216753166285899 -1.9445826564810187
Ni 5.478256892475109 2.0702216995745113 4.52384266739521 -0.16512678654074142 -0.3751635462202958 -0.14312045747297933
Ni 8.563657573492465 1.143251438383091 6.224363625892126 -0.687950329975583 1.3809004271586025 0.3663320639715949
Ni 4.81545307843529 3.5894344277507666 2.146351210367979 -0.025282942936504845 -0.49522300810875364 -1.8539420140743106
Ni 1.792320135804309 9.443737047211368 13.47934791932174 0.36510487643271317 0.9580951106906275 -1.5751156464248677
Ni 7.16750736217836 3.057855392498086 6.260215657754368 0.14771527593251332 -1.2331054470280893 -1.3768861637928869
Ni 9.093013096013856 0.23527860727432415 12.369619922674703 -0.2416081067279323 -2.147911150902462 1.034791889322734
Ni 2.160607023005933 4.063633699861806 12.546287860181458 0.34362819461617594 0.016125959027585127 3.0312748342174696
Ni 3.5814598040309504 3.0045004688573864 10.514923218325018 0.8315212447224196 -0.4088282854625927 0.4663178950386292
Ni 1.8875934344804648 6.917498217606997 6.8241491487248815 -0.27603029296154397 -1.4826711180402015 -3.521017278827626
Ni 1.0623606081333803 1.8452904011244051 10.1333693718267 2.2212451837099225 -1.3438701138781823 0.3821178660509419
Ni 0.3352503666079902 9.000657571428127 10.312591065305847 1.0556800456256528 -0.33599484644063426 -1.1612775664525097
Ni 1.1222078136730351 0.20437178030939462 7.3329517204427415 0.4871296895776578 0.5127041956126526 0.6928824771698777
Ni 1.2672240005403257 2.3305415635200837 5.943322874949394 -0.8148949490196481 -0.8890404219848108 0.04658247574522946
Ni 9.137717898396119 4.208434102793149 5.847409729993601 0.4777302506406288 0.19449469817989729 -0.5456374560055635
Ni 4.072790444274207 0.5618113028700166 13.275190046566243 0.5207584333756966 0.18150908455350676 -0.6142339741280389
P 8.268605877769529 3.0632593728070434 1.931084217675264 1.2009764277040287 0.7009948218643669 2.9220556574776255
P 5.364726396435704 4.455928895415205 11.028325740642675 -0.2788477078056811 1.9476870064379554 -0.5463432238233366
P 4.665248695194989 7.434432090945991 12.442890765412374 -0.9668116646280189 1.2789052789710231 -0.2667694364849083
P 9.251923891974144 6.344000807318859 6.138460040991242 -0.16108706925372904 0.45091055934462343 -0.06879937816190086
P 2.066938030983999 0.9691044201628252 1.5258851427521767 0.6357183692540599 1.45017751628787 2.442552888317606
P 3.917754377250724 7.651360619945507 6.459059616539391 1.206208108416613 3.0017999646868043 1.9983475089073002
P 2.6067074738924436 5.867765660681702 9.13757060240506 0.865091110258065 -0.021481052691911393 1.077786390606389
P 2.8588744578232865 5.355973074164424 0.9073029627163022 0.18905732921440987 -1.8080737907872861 0.0492970464629151
Ni 7.388338765845455 8.556508557875407 6.668930134451355 1.0596205183306397 -1.3571745442965724 0.1915227600357669
Ni 5.220770365427636 1.498103430094389 8.080707793683223 -1.1470555093158568 1.4855759503918222 0.3311321190316942
Ni 4.631323707699866 6.998717414715759 9.37866599403972 -0.436497469243087 -0.3317779801458092 0.0887159145801698
Ni 9.363418513487431 6.645272709543252 10.597009303941677 -0.06629178124869874 -1.0551797089504666 -0.6158848794679006
Ni 1.0293456659333415 4.080052042814369 3.904090563150088 -2.426864531048072 0.5452129668736353 0.21112819297152025
Ni 8.804772667138668 8.491032206180588 2.8685800439858156 1.3430651014783839 -0.5019464428755162 0.6653115095301445
Ni 3.582989055403104 1.950086338713047 6.181466717616697 -0.839076431361858 -1.2011985710171635 0.6375160845844311
Ni 3.413110806350504 5.948928566328912 3.0946671937797827 0.7866557516682968 -1.2291994271054636 -0.9383518666254291
Ni 2.467348578911093 8.347066793262261 2.227531003453655 0.648170993195116 0.2552285257248443 -0.11866206732029887
Ni 5.639700804205221 8.693259281804865 0.9319220334259133 0.22769715307379493 -0.09572422757720289 0.5694762102963742
Ni 5.846271704279233 7.551649677717029 5.112039654676534 -2.6845106650754733 2.586769407068242 -1.1840102321633352
Ni 5.113704005556411 6.322732016762596 0.5977215025758613 -0.2544337977376908 -0.9677691434452815 0.5159836376948727
Ni 0.3412266434427229 7.758023557675611 0.2331967613879392 1.5026645304429926 -0.1503686543949604 -1.131445827803058
Ni 4.877167284116408 3.7821857740138505 6.054986370847336 0.38904261819523317 0.5721756115054081 0.2039769266387197
Ni 0.8527171324496742 5.183120759559846 8.271628729254852 -0.18740205299917403 -1.1687016268307227 -0.5886309288479541
Ni 9.258322354770515 1.2780601068890172 1.302262620783146 0.24151426146254534 -0.7956610404907007 -0.5316239153352909
Ni 9.483891623118206 8.715888449348625 5.288171885107522 -0.2844768810670004 -2.1144868098057454 -0.6541722050838734
Ni 6.953937557051426 0.7676551048989867 13.268777510904483 -0.0525597763745869 -0.1530708838174719 -0.09122633970684935
Ni 3.4521114072955337 3.5057290244234736 4.119274995032527 0.5770612217324836 0.5459285048834212 0.7404607411694731
Ni 5.517604624099707 0.25061333959201754 6.16564787872966 -1.516031695778518 0.554162205647123 -0.04139887466176096
Ni 8.09103446230487 6.354471019167464 0.9425686251873807 -0.9344335054076295 1.49588864517174 -0.2359521939937356
Ni 6.734194454974331 1.3708471993466418 2.423985389695811 1.738541905334735 -0.3636262350046576 0.4986821703019476
Ni 3.2522485730564257 5.934489806440916 11.261717645763992 0.4013000954063476 0.0589008881012663 0.12286479254773679
Ni 7.382531363395377 3.443226738280633 4.00395912147091 0.6936319537413925 0.4855188934471122 -1.069261383854513
P 6.080040762192946 3.667351192448499 7.847013791051578 -1.432093919313282 1.2625265805026835 2.131303624252768
P 9.266475234785243 4.823305737321744 11.71829956679142 0.5500268433225108 -1.1508838819230114 0.8180751465198428
P 6.741624927899148 7.469445380031114 11.841072182626577 0.929614229642115 0.7468458187602106 -1.3116511059434768
P 5.4875543655413885 1.80753759424377 0.8409015546699844 -2.3143916232576207 0.21454776017603053 -1.4928578287652159
P 5.271498354195924 4.505737456978151 3.9787621250893683 2.122810756290409 1.2266149542077391 0.7572261335532701
P 7.033383573121312 0.5093185767820837 4.487042124405824 0.2610109367345763 -0.7294916437524792 1.1359869102065208
P 8.951693381788457 6.041321618555675 3.0459075297837495 -3.438472526055175 -0.5069485240757979 2.4364007526732814
P 1.9997260258913374 0.17564906205266884 5.255175706727999 -1.5881269710828712 1.333120331560846 1.225377225145896
Ni 6.782014051562451 5.194660509177932 2.2868640803111386 -0.7080982656783676 -2.8554234621703722 0.8040613487392538
Ni 4.27261575087228 1.0269063692661038 2.6864884241585614 -0.25342052598182807 -0.44540377059378133 -1.4847585966968495
Ni 0.04980011784371259 2.3103892202845957 12.742001075513182 0.8752814205275056 2.1265815361867504 -0.4731652569777658
Ni 7.952229100028778 4.852183257097737 7.723788028950928 -1.4703941004450611 0.08201073464585232 0.8646527371690658
Ni 2.2212141632765348 4.373565105254893 5.765831205721935 0.20458859208078956 1.3620519269935316 2.3385234833088178
Ni 8.72299993732465 7.051725207676889 8.158839404125878 -0.02217242233198117 1.1108060400655193 0.14880130990784052
Ni 6.949255983832382 6.319373292890015 9.733773173710052 -0.47385225574246137 0.013916095860459905 0.7721884112900572
Ni 7.252620052044445 6.081213500975273 5.046170200941879 2.936813018292458 -3.1426380538835104 -0.469640788764275
Ni 7.296987105657397 5.474185143422873 12.413698013451691 -0.1396196434085724 -0.34428125481914257 0.23920206838960092
Ni 1.7820938536224273 6.957568356321508 4.253993597199972 -1.579606592316686 0.06273980223138227 1.1169430062011927
Ni -0.2175045782893929 4.475171193355608 0.4522033835097351 1.9842591491350343 -0.41108571403820166 -0.7927369248653702
Ni 5.307787583076217 4.0299057324821135 13.037431800410568 -1.2533022336909383 0.022153910389219912 1.111918813513724
Ni 5.996851363929878 6.421636114708833 7.229335088973607 -0.2641289135382677 -0.10517817390125112 0.8197047117034656
Ni 8.93382084274581 1.3479834840464162 3.778448020966821 0.5299997494683066 0.9715376093487784 0.19610060921443648
Ni 3.581516095492502 8.623561070493672 4.4729542479615 2.028798112087674 -0.6789262721001017 -0.5589161753923406
Ni 3.867307845790193 4.478351660933277 8.128506750068773 0.14676396776283757 -0.8206076831337091 -0.1688875391347543
Ni 4.0053251276045625 5.878160817248239 5.621844214410014 0.2768057376749878 -1.3775466801950211 -1.7543930134343786
Ni 7.24267522717032 3.2307358528334396 0.1908027235023711 -1.1931934413244998 -0.653945690895364 -1.2549983904464388
Ni 3.8726649165478575 9.100133965900138 8.442515533660252 -0.8653559338836774 -0.38786402450609975 -0.8689210255271165
Ni 2.2990371088716812 1.687055102702737 3.7624237182451203 -1.5092689231333878 -1.4351453045450961 -0.7723547616645924
Ni 2.766275003570834 7.143367707082964 13.562739028655368 0.0821896834258778 0.7806643099715523 -0.33442750195351434
Ni 2.9483684997801403 8.577327016739256 10.84816960890177 0.6023714183624981 -0.013434014017718798 0.22209189107187557
Ni 6.408407621244197 8.83877270991586 8.900868759344505 -1.5166284488222526 -1.270021346217832 -0.4682405659826388
Ni 7.525183308877499 0.48324155721828516 10.723256041145598 -1.0710331310429555 0.2594196809880564 -0.5213718985899795
P 2.806870529259827 2.0609805179697833 8.690064741361809 1.0299548729454069 -0.77336571942761 -1.1012615909101937
P -0.046691890975036045 2.929660970724478 7.741762830815393 0.18963737008759599 0.4100657574141196 -0.014997501850096752
P 7.348118516566806 2.4149037005654796 11.773210949344021 0.5909374654939437 -0.12172245141317746 0.2160785949982601
P 2.389356758931292 1.894038806828128 12.155204807433469 -0.09201335438451895 -0.09035653550738632 -0.21274053176396265
P 1.3554890122533019 7.688484838838815 11.890463249183016 -1.0668841418715884 -0.10127061131672882 0.7404394010132345
P 4.716333196553105 7.624031115362183 2.7028701776611155 -0.9473718107358523 1.2095263741565687 -0.14250802069996102
P 8.050119951667085 8.674654953762046 0.946378618943401 -2.482023692718719 0.8726642946196325 -0.9159387890375515
P 8.411070185046478 9.252636917153799 8.621792580409924 1.3528088111287087 0.16173035926468277 -0.8396767839500184
