# total energy = -381168.7580913051 ev
CRYSTAL
PRIMVEC
9.24042477538843 0.00000000000000 0.00000000000000
0.00000000000000 9.24042477538843 0.00000000000000
0.00000000000000 0.00000000000000 13.52429569522924
PRIMCOORD
 96 1
Ni 7.282812988366059 8.74534120421112 1.6321796407981535 -0.8694121062309219 0.6063355452165687 -0.5515491935043082
Ni 1.938955271796763 5.0929524652987785 10.539754057031198 0.4980612488884971 0.48423925540374024 0.6775509890191299
Ni 2.7311368794062854 1.8183862106036095 11.42731255603537 0.6391626190489187 0.16379084133813726 -0.4200205546339863
Ni 6.683414360805031 0.5548329833834937 12.762756287247111 1.602388623208208 -0.30078821663251426 1.663021920619549
Ni 4.3716911170897355 7.2565701822817115 4.801624976276159 -0.3073794966967867 1.1936261579865444 -1.6079877145625403
Ni 3.998267075019095 6.600509270597722 10.337687222309132 -0.9830592368351327 -0.806294866055463 -0.1555715387521385
Ni 7.720883041481097 5.215203283783253 8.444516406704876 -0.8074634324422675 0.3768751295947638 -1.0941866863412832
Ni 5.0138267087846025 6.422464767909977 6.670222730535308 1.0138559105010152 -1.1279851229479672 -0.19701617905017035
Ni 4.566100411881486 7.810663007648531 8.331602113314636 -0.15429370048097943 1.0715848897813673 1.9108559536525347
Ni 8.202031954443045 8.696431636392653 11.349913834893435 0.3552441815885495 0.4275032361642766 -0.32747369634350054
Ni 7.382859066350291 1.6633041632396692 7.094615107042582 0.5015895737567296 -0.6119284659233138 1.6375929390234831
Ni 3.096272260541131 7.269894874666792 12.457390745054301 0.011551709393341394 -0.2639000853569132 -0.8735497825483794
Ni 7.811245154403219 5.018945904055986 13.00331226287873 -0.0279211518903003 -0.6951080240662868 -0.025617700568104265
Ni 2.0094227503880404 7.778118231934069 8.11825549218864 0.1804006819806764 -0.8085877758546978 1.876637398789297
Ni 3.7834918842379435 3.9522959622481 5.948391248123658 -1.240091134317303 -0.14279778402623794 -1.4027200941368554
Ni 6.295787786004939 2.1658538997549086 5.2804804158331295 -0.14849534863164748 1.501157349769847 -0.3924128202190467
Ni 0.3978316998140185 8.970317823836327 7.127573853782599 -0.3913730661006227 0.6173720055363884 -0.8501082636959876
Ni 0.6958649650251634 5.526799644336159 8.572563743589601 1.8907866937064857 -0.30304461676685873 1.5487862645017196
Ni 6.572030281741399 3.2891938469597894 8.685587073991037 0.2824858187789006 -2.0007334926409737 1.1448330477432411
Ni 5.720405022180961 4.212210627579264 6.870166115666465 0.9036072640553922 -0.8479076565002429 -0.27498771062964256
Ni 4.86154451009797 0.6249280728602645 4.32347365707962 -0.9235487401743255 -0.3810737410571437 -0.41593610015196747
Ni 5.3596865640420015 5.015757957542219 4.591146582970085 0.9571671995597192 0.15666065805125926 -0.6022976277017692
Ni 5.096907367060786 2.8020478983820873 3.321566750775247 0.5967617854852045 -0.6003201922604242 0.8535160038259559
Ni 0.37318933528382986 6.248781745670055 0.3479056852810167 -0.2943553165229769 0.5527954072065835 1.1667090218807263
P 1.826092724784717 3.23772468150563 2.047172657323386 0.2226963574250939 -1.1539586641935933 -1.319406067298547
Ni 7.37474597348337 3.54532917859782 3.3023355789362534 -0.7091552461879722 0.8471329831177475 1.0565035699682128
P 1.0779140194898635 0.5162126284435195 4.320416924596274 -0.8114411861430928 0.7169580300618427 -0.7746967795342077
Ni 8.171788044473303 4.325525955400511 10.621886647735462 0.7573593166970247 0.9227774092259398 -0.7063740838984093
P 4.530173640735028 1.9588314252782526 6.464302638722688 -0.9387401032027832 -1.087524443829759 0.7526860795910715
P 3.38767829317351 6.771105990995331 3.1207178040256864 -1.2535757990672993 -1.5311022169583954 -2.8124829540531047
P 5.586973289836606 5.4952528344868785 8.637170020807885 -0.6018181169621893 -0.27367027736979965 1.366477823975369
Ni 5.796804853415248 8.616649809726367 6.101377567170721 0.5296631920644942 1.6497316312685457 -0.46273660544527406
Ni 7.129366496170051 2.7618982531579723 12.279032067927519 1.5388569212031498 -0.20422683786599663 1.005410093726507
Ni 3.398101492209828 8.996911766058423 10.226531381735036 -0.679928488112371 -0.401644880340276 -0.06904131896937787
Ni 7.912483247170861 6.293542362808286 2.145305043356891 0.3015526056023645 -0.24854699993961069 -0.46529639575265025
Ni 1.382293608369575 8.799998316179046 12.255162202900376 -0.7777018849091186 1.1102362836049784 -0.06447272576208897
Ni 1.4028627937018834 4.362358288165373 5.307352494838021 1.2085922923780734 0.14131837126723407 1.8598072146058358
Ni 1.1227393196008373 3.119641294550748 9.660038830493363 -0.5370890522149202 -0.9259190401787151 -1.3255160368510268
Ni 5.066552571994913 8.744343238345941 11.882743519034658 -0.9451853446074948 -0.9633165069905668 -0.9488345113243077
Ni 1.849175305629329 4.567837611720872 13.276287344449194 -1.404969038072032 -1.1295784355770158 -0.4108376025831376
Ni 8.811142268340216 1.3068825025757884 12.835895172612679 1.1572859287946133 -1.4416661363827492 0.45691948454286474
Ni 8.01614233120403 0.0323156131824568 8.81427015209358 -0.35515779252233026 0.671302694116573 0.9019352756696078
Ni 5.9427573611977325 3.8484335888720245 10.817543399858685 -2.254803479281342 -0.10557798044283108 -0.7085011575437411
Ni 9.204876763852193 6.232139740825721 6.602358279575706 -1.4805193618045212 0.947123442170472 -1.5072251532304815
Ni 3.2930563444750205 4.095467102202631 3.548287962579583 -0.8980742500523049 2.482641014587744 1.559377923974637
Ni 0.9738113950721697 0.5439902690668132 9.952854027889074 0.7385334422397732 -0.7030344780022151 -0.028941365624698543
Ni 2.1589051003973636 1.6345109999443084 6.016431267152133 0.987698535379357 -0.6782277033711803 -0.09526811387639077
Ni 5.543007349220647 4.298303664300341 13.13970555133225 0.24958546850645402 0.6770159424512663 1.455919818088286
Ni 2.5571674040013574 1.9505058026437467 3.6464748671186853 0.6639089727556631 -0.5375809042496742 -0.06265881248180177
Ni 6.962715437109772 7.668471352709824 7.780594665747663 0.19700769440973812 -1.6711756600749348 -0.9527636711753849
Ni 7.66508011685315 1.2110592986692128 3.7207632613141453 0.27631722807434345 -1.372443811750817 -1.2733722649679362
Ni 8.955671750722352 3.7658519135284303 7.074707536117189 1.876719416980142 -1.8787223063427838 2.103496372232513
Ni 7.250674791337411 7.332073692322274 13.078913721420873 -0.5164186683497622 0.056457825877412444 0.34481707271795453
Ni 5.429941512865694 0.7965782016711181 8.574605877443348 1.1107448478102806 0.44563002767197446 -0.3564418014410764
Ni 9.133808657656871 5.51013915864247 4.114861829558419 -0.7891785180901506 1.4812176734231264 -0.658126304635615
Ni 6.584754346522436 7.597042869952078 3.663690702335497 0.06681885739676234 1.0178395777391114 1.013635566960093
P 9.223505460002208 8.429836144019594 0.46019162979318123 -1.3854188838542463 0.6525230995162247 -0.40808472242834876
Ni 8.17543801222095 1.7944350298393046 10.339174930682224 -0.2444653736710693 0.9590564461626321 0.1557918822930607
P 1.6439362331154472 7.4452411733486805 10.486995852334516 0.9478883453609547 0.16249140580042337 -1.067824908518303
Ni 8.056218053030724 7.029736237296309 9.753803267781771 2.5294381774469405 -0.1955262247682052 -0.11886621291130497
P 9.407121938770537 1.6059580876905653 8.200902774547444 0.12663377267186576 1.426029458286757 -0.47646449655432777
P 5.039589012785715 1.6797336383164188 10.565734435054702 -0.9941468621078621 0.7962894181033189 0.38382970653572607
P 3.126617815182326 0.26091170715387507 13.4937034486032 1.0748262795368007 0.1974671505446599 -0.14733860931938497
Ni 0.42998375747968204 3.1060024277266294 11.851975676985695 0.9042698373400556 0.8887200625309145 0.7720194898123607
Ni 8.36957933469705 8.308823542441917 4.877699544561795 -0.9313744068663313 0.48996047415823357 1.2330982479392376
Ni 4.7331950113262895 8.039659212008488 0.8698732502137371 0.010991980235129458 0.14776669799573908 -0.5189679171341771
Ni 9.096773035549104 1.8634332809068457 5.493893568016805 -0.513748834827083 0.028216828753848178 0.5676756667525256
Ni 9.472451741241075 6.3992435806952015 11.66321690188429 -0.6261466664052249 -0.22189957255541137 -0.7558781041658079
Ni 3.6522593729668547 4.156139730635667 11.892089284553569 -0.2280501655378395 -0.22708008831508633 -0.5192733641897379
Ni 1.5049602459645408 5.271902529604926 2.2151035152015113 0.17614267803527087 1.7783094150406598 0.7252907182972541
Ni 9.365540027721396 1.5432987679518486 1.5489104778585472 -0.41526478511655573 -1.1900081016179826 1.5089781313658464
Ni 1.8963846353071203 2.125879822599668 0.12790965455702846 0.5732935271599352 0.0998395352971571 -0.022672244786535147
Ni 5.088443138056117 2.0358596053906166 13.11386008350904 -2.3305692614587477 -0.06049831449537323 -0.7317953521849914
Ni -0.37876408349181806 3.7599195608854195 1.46487066350083 0.19441782219537482 1.4460285271165032 -1.2600313248846557
Ni 2.0171385049938255 7.8879406792271896 1.0430369605867795 0.6272190735337972 0.08499964207084716 0.5845235915477999
Ni 1.2798819816678797 7.879402526825099 5.075018649084519 2.245460347503546 -2.2806186405722335 0.8065895144777463
Ni 3.7049390340537776 3.4770886423538405 9.409609461093742 0.7207072126916297 -0.33958950577042807 1.3653845909111904
Ni 3.0978246518869654 1.1473096088185408 8.355498775573343 -0.572753081275433 0.3636380620791995 -0.689925965644715
Ni 0.38969273375799995 3.2055587632029505 3.7011125741947892 -0.07784040531824658 -0.6460714303536099 -0.7990919205491205
Ni 5.463622860815498 6.299945977109853 2.355620805188639 -1.122090611840403 -1.7925330148392098 -1.0579210191410298
Ni 0.12053764374924968 8.429568171703943 2.651708961005152 0.7687881273592566 -0.018371046308019973 0.9085188424243966
Ni 3.3990717368009746 5.630273919875777 8.101269743546299 0.6456207159694366 -1.4913195377438189 2.738743458277109
Ni 7.6221860654997915 4.412478351616604 5.553562686329855 -0.7919609659312942 0.8999894647971467 -1.2657008644656074
Ni 6.526530430628961 2.0919397427588913 1.633559236202517 0.9799592577535703 -0.14205062144756828 -1.2807256200092136
Ni 6.219138463304356 6.215349889186545 10.7553045194428 0.3856526186770778 -0.6790535417065854 1.376680989760616
Ni 3.382790108519067 8.561891053086988 6.466669111482617 -0.3451083787061282 1.2518963544823472 -0.8359651394263861
Ni 4.0288436402772305 3.669095426729418 1.5140315708705279 0.1268075792455687 -0.8213430186378371 -2.3399720428298862
Ni 3.3934073564736136 5.804668454815875 0.7225439191542921 1.5447210932934106 0.6851306011386007 1.279458323261016
P 6.937137941602211 6.669877138652366 5.678607809236832 0.85168075038943 -0.37486324137105764 -0.6683685511889134
Ni 2.404839003191338 3.370361737327712 7.539713427167393 -1.8522232316109906 0.585477727930953 0.7630085445630022
P 6.735733645329527 4.522365481882467 1.4813297079365477 -0.32609789904189646 0.032256546040860576 -0.36675758154478777
Ni 2.7938793629671004 8.84130301448786 3.1571925323555257 0.3614986471386935 -0.260040602401507 0.2239680250486659
P 5.054364451845176 6.332694042167221 12.758197985753657 0.07823969763919428 1.1143893865414034 -0.21686380990371681
P 2.118385838186145 6.051313870310023 6.675064713066363 -1.8234500161330403 0.5627610030597276 -2.398492664773598
P 6.269193843782844 8.237145568217874 9.945401625386602 -0.4789906054102912 1.1520691604803641 -0.10143181948494144
Ni 4.384914164803362 1.112343841838552 1.6495858287633236 -1.02981320516122 -0.18537550948744846 0.4927938298419706
