# total energy = -340874.51759839186 ev
CRYSTAL
PRIMVEC
9.20461012407969 0.00000000000000 0.00000000000000

0.00000000000000 9.20461012407969 0.00000000000000

0.00000000000000 0.00000000000000 13.47187733283864

PRIMCOORD
 96 1
Ni 3.7246362173734204 4.126951309685418 11.718768175258699 2.6863160937153285 1.9883983681143886 0.6353260189116477
Ni 8.440885066182082 0.15174351802458738 11.2739130575365 -2.0332237519591954 0.8573230362768719 -1.047410349417693
Ni 6.210911824003289 3.477952670334857 12.101814337071795 -0.28820626620244555 0.93712185087307 1.511824856786022
Ni 7.107348788409471 3.9243578443750153 1.4332995224077882 0.4323819044128166 -0.2952307771493948 -1.557850431586517
Ni 7.204282535941677 5.683248353199829 6.073108687769369 -1.7514357305782675 0.4351381270017151 -0.12415522922438615
Ni 0.08908589707679226 5.4531054902667995 6.831885187396076 1.9171024487828792 -0.11409964476059704 -2.4028319155789006
Ni 2.9243414040425284 3.48329134411405 6.232507679901119 0.7949316185238439 -1.813239908369258 0.12129307718524271
Ni 0.5278383583927769 2.311967907739223 10.411766947090669 -0.3891300357027169 0.3305003989849663 -0.7578573393793657
Ni 1.2440858781412387 0.20613171738061214 12.056508326367375 1.4388250673895286 0.4032417925137507 0.7891504930656925
Ni 1.177941550939033 8.00444848473307 8.296143494957205 -0.5201935620111622 1.009428727967597 0.15731783201928393
Ni 8.013027181219636 4.214257035195149 10.782163213430069 1.519889893182344 1.309031151822126 -0.8497295402003301
Ni 9.199344927226022 6.048349207426868 1.7198602011939328 -0.9930718838761284 -0.8697867159615215 -0.18645742969771759
Ni 8.49467680681243 1.8970056813365173 8.053191496798098 1.4149109797760924 2.680938117232867 1.5579339924392588
Ni 7.585445434556114 7.741251867418866 0.2747336754432395 -0.1721646672241293 0.8550807772099144 0.2871901662331054
Ni 1.8242708533999976 7.178822584780906 5.700436121385841 -0.33438919251641125 1.1484544465459126 -1.0866320139224768
Ni 4.184277620541992 1.3603953296479288 3.0564726596165537 0.5134341318001415 0.4428902601433082 -0.13588485895648855
Ni 7.4800342412469485 3.31740586334058 6.359291977546984 0.28770335842409805 -1.3312663090712427 -3.0644924586200193
Ni 6.27789377071223 2.582371734655338 3.446887111705933 0.3520886666787033 0.4334075174638536 1.569843085172019
Ni 5.787380105723981 6.152628233710446 11.647286094738298 -0.7748096509629883 0.011657381733270246 0.19443402014529093
Ni 8.333329198751274 1.9478611513883106 2.0379310212702677 1.383614740765972 -0.16330438862002197 0.37005296446660785
Ni 5.175742978217806 1.6503129296879897 11.017005029749786 -0.7270817487594058 0.1888657820288941 0.0867850161060441
Ni 4.870831068546185 9.059499288041064 1.0057297417372197 0.8613943781327681 0.41122095406448533 0.0236160967570432
Ni 5.082270164032111 4.419473814345326 2.1311295380790316 -1.9188166032605083 0.3054573399734094 0.22857287081052893
Ni 6.732942073508702 8.241835375707867 9.413649417793781 0.4119107810426583 0.5244543941700452 0.4688440038945925
P 3.9717155626404415 6.014927268647128 10.39138425878611 -1.2242958191562592 -0.273547121528374 0.46010251025653665
P 0.6707261211708793 5.946601448883425 11.23744531331963 1.4276698221036572 -1.4081793174792134 -0.4139290970242678
P 0.0718235715500713 -0.0660817358544498 0.6465575767880748 0.9969555352012508 1.0237353743982565 -0.42180541444855096
P 5.684021540436817 5.005890310549798 7.62373569154588 0.5119022685366474 -0.5286740886783476 -0.5167269436188004
P 3.814445596793393 0.5192789915871366 12.424276676562016 -0.8000314016442545 -0.027192758364708004 -0.5409073975197458
P 0.9864672544652943 0.3572106625657897 9.79303122438016 -0.910431228955761 -1.4127183430001478 -0.529598914485462
P 3.0140679419728245 2.994489736579129 1.9672580259657124 -0.5645160380776213 -0.80003037320299 -1.916400794730164
P 6.471273421448542 8.25991322967741 11.961854560723282 0.2809575550598323 0.7705387915017762 -0.9536391318018026
Ni 3.0103676887672455 0.6966803598867238 10.11017237885012 -0.14793227703932588 0.8202947798789807 0.6917720177145182
Ni 5.913520080672358 6.839982482781517 1.6717385003014844 -0.6655125697973571 -0.38896934175513653 0.6513694455277556
Ni 8.76415096812217 2.6606109193504044 12.622070858237123 -0.41199717010887754 -0.5072639984336876 -0.36520489234568715
Ni 3.108378375665254 0.70716256971387 6.221824809576755 -0.26060855908983505 0.22791492551155584 -1.6681792964507722
Ni 4.14377733669984 6.078254985200311 3.898397162432196 -0.23571025318625854 0.3074825979335543 -1.3195857874095211
Ni 7.881732624691349 5.460929408736306 12.914882387649905 0.19329939232021548 -0.772239833353283 0.8810062388264246
Ni 6.954948061233445 5.23791091391551 3.465007306881311 -0.3120553049059013 -0.8198412372813298 0.8476670012443466
Ni 8.10692340746368 0.9716202185931598 4.846008996855927 0.7851388008031382 1.5615865015901815 0.10711190058885423
Ni 0.6125539066586024 2.778871748169489 6.04702742543602 0.32761562123800353 0.4137552904505648 -0.45110107808887473
Ni 5.797339493705166 3.7841716346213845 9.737863394560174 -0.22281822771493884 -0.15606981854479574 -0.13163533965151522
Ni 1.5807721014090215 1.5713189669758645 3.0560952706080244 -0.11396851849937145 1.1501845418631416 -0.30172589795543525
Ni 6.556204357587528 1.4608820566262868 9.032260085774228 -0.8724292957906911 -1.1645562372037814 1.494733191411058
Ni 8.13481337565498 7.024037863624171 11.067833806432683 -0.47888878972510424 0.2037840939016232 -0.1359511934180497
Ni 5.23590430894333 4.1243740188954625 5.238795476933062 1.2864614940517265 0.09330019151674256 0.10091811307331651
Ni 5.553389715825946 2.759514453414933 7.459566870530719 -1.290920044043712 0.11167123782476251 -1.4449311802872662
Ni 5.665198113060179 7.3108166916664645 4.9920714296106565 -0.31981078048160405 -2.7127254369467924 -0.26740475607606207
Ni 2.4188426340326843 2.3604669976402004 11.854942095528969 0.2276380177010854 -1.7136114606416422 0.742783989986011
Ni 4.634594753816903 8.464734210599131 10.654934333122936 0.8709588818927516 -1.9301119736686694 1.0780417011503047
Ni 4.493865472075389 0.20091730583593506 8.193191773430454 -0.8950215792689102 1.2941136112803455 1.6437610155074078
Ni 6.735795502597581 0.020637656000565788 3.0004561647578756 0.08714419921767573 -0.9710593841607792 -0.9258218524792183
Ni 3.333256201698804 3.862272750166989 3.7600279426854835 -0.5970019265204686 0.009127673332881055 1.809517465212348
Ni 3.692318831789376 4.2149197671125656 8.44415914594632 -0.31135133686034117 0.3805878025596606 0.5848820033284831
Ni 0.837553233543679 3.847784694083456 3.3941585035264406 0.07238992372663662 0.8548336941961148 -0.4162024664394767
Ni 2.4727540345925676 9.12084801345196 0.5551521180003229 0.07851352012587123 -0.9824763677484694 1.3737923553589113
P 6.27394499303762 1.6253592320752452 1.5817192557743298 -1.4759967913438192 0.36335009852513556 -1.625485871347304
P 4.150386246654081 2.20832399954317 9.047834285833527 0.37136474129949587 0.006883357383394597 0.7278415097435658
P 8.243133225712809 3.1352466321505363 4.27088103431146 -0.14772453190389398 0.5318265182644002 -0.029584655635652275
P 5.562189322951651 5.105189642842784 0.03446850293266077 -0.3681194948893209 -0.5570806648454987 1.1719461019099493
P -0.04631759733947953 3.8786569559031325 0.85120551104247 0.4818769258191507 0.7949344467373213 0.8176519429394951
P 3.3220081683226423 8.01950722663438 7.179189848718474 -0.26518460849629166 -0.6867277704223915 -0.40529687527056646
P 2.283212706211295 6.861990705205741 1.0714478954980866 -0.5298771078475132 0.10370827422394398 0.5129463935304456
P 1.7141745136190925 4.968979824593655 5.380910052474178 -0.11788507994495825 0.48438735094583024 -1.6592727379897616
Ni 7.726745402115405 8.032393680584155 5.559008209748049 2.008640406192876 -1.0769343270187388 0.33428840527248876
Ni 2.4474321525812583 6.235902340055889 7.7761152481189875 -2.0950063324836306 -1.7642102566351165 2.628108632136661
Ni 9.043474062093521 5.998193287732348 4.430510141692313 0.21111842277950738 0.023536135448727208 0.08170323070776252
Ni 3.815274011690164 5.655929070826305 6.250762262381973 1.8111238904675195 0.7385064456565796 -1.714896755111969
Ni 1.2525080962584136 2.030325252056911 0.6544477684493232 0.5843099328750969 0.22603004978401717 0.15061470896749543
Ni 1.7913735773882131 6.437161136921493 3.0514073627532956 1.0856076864230206 -0.02623347977523224 1.281667929317825
Ni 2.645681041988593 8.843807662751711 3.4854571888386086 0.27422280743916 -2.450426634638728 -0.3328874111599041
Ni 1.972906895100696 4.271776642860968 10.31972729067639 -0.9722791155004931 0.6455068160993914 -1.7377366358246202
Ni 4.445320359124591 2.3693218324256895 13.534386695292419 -0.00949456975399655 -0.02676415546772165 0.9436838203613038
Ni -0.014408896437842062 8.930045653505603 2.8606860033746226 0.4687141631849476 -0.8466267329052903 0.18024821556321216
Ni 2.094941614005072 1.7060192291908773 8.08812391207295 -0.36805958818566287 1.4462313871559285 0.7431051207708558
Ni 0.37560055281311605 0.5018049600312408 6.891269649040628 0.6762476968266742 -2.40841326632142 -2.2415466142714364
Ni 7.8428615568128475 4.374951115948852 8.207067722951372 -0.8945747215394786 -0.8638163573106994 2.061653725165114
Ni 4.635561237863136 6.717901740827321 8.424152926189294 0.7825962368869425 0.640147094449375 0.9331117012724124
Ni 6.044676568051181 8.296786897193696 7.181871151601024 0.8951971856148261 -2.399041595298533 -0.6449499151546569
Ni 2.1905959207522643 7.571831816419173 10.625081021626288 0.005084870722075113 -0.9299703274299532 -0.3506961572065509
Ni 5.771143173747264 0.23111947205022365 5.083249534532294 -0.9666558557764449 2.9998299854446273 0.5173635487615348
Ni 3.392257751568849 6.840157370370836 12.771231562705777 0.7849549669271062 0.5030304199683143 -1.0823778666318131
Ni 1.4130456986427267 4.277133725860089 12.617961920349137 -1.2732493662368267 1.233539192131398 0.5458940521010599
Ni 6.763841949158271 1.2080774439615798 12.946554530075463 -0.1021905520278369 -1.140799501103816 0.3421822061982688
Ni 0.620743248143685 7.115329185248368 13.109941879704671 0.9206045699443371 0.39179421279844134 -0.5346678443679374
Ni 6.794263185089706 5.940857772265811 9.531218059943564 -0.5898470606432422 0.3825251287916896 -1.3366987929407237
Ni 0.357160037210987 5.778147881929963 8.94434317416288 -0.02011605402358471 0.8845733873523927 3.6431220532808877
Ni 3.1458319336092804 4.851538206061377 0.6817458802199302 0.7975225191794717 -0.5476228618667085 0.3214179770677239
P 7.725180618421503 7.167905917363453 3.018737440607625 0.29845854005807304 0.4329534606455705 0.0669291577223815
P 0.8569749605679838 3.6874403885083895 8.254164950754813 0.30328527202275507 -0.4248979373309456 0.30040486515116654
P 4.718605228959476 8.25243908638654 3.2219881150694656 -0.17302547256252784 -0.9384493114352418 -0.35886069529521425
P 1.2785939608967454 0.4192055515961678 4.882800743343533 -1.332428447700144 -0.02837135205384146 0.7671588192859498
P 8.280881331175689 7.308506334565469 7.789937810902115 -0.5293821704889657 0.17712123989845627 -0.0020411987997448716
P 7.082118952497804 0.841078599159939 6.955853794853915 0.138966840315922 1.059595321519659 -1.1950508062482128
P 4.600095875671361 2.0532539354775476 5.228462381787335 -0.5605848213440152 1.1887477468483205 -0.183307056994194
P 7.502373829629881 2.1450054875999505 10.866981853327493 -0.7315408129720241 -0.4816984912597575 -0.17327512667948866
