# total energy = -340886.158471808 ev
CRYSTAL
PRIMVEC
9.08069163580830 0.00000000000000 0.00000000000000
0.00000000000000 9.08069163580830 0.00000000000000
0.00000000000000 0.00000000000000 13.29051009938731
PRIMCOORD
 96 1
Ni 6.062977925242942 2.173499828238461 11.136051510989027 0.5857137552011591 -0.48534740086625444 1.1834728716026264
Ni 4.83950912021753 0.45686865775510865 6.044337989844222 0.792804544878512 0.1542592476986182 -0.559922762279984
Ni 3.1352358627678 1.7991755640956189 4.424158291973058 -1.0430523295593133 -0.4635331332046404 3.0028276346203704
Ni 3.3693633311680453 4.5277326589812885 4.387781949977769 0.5558622190573652 0.19881080905674792 0.995515974541247
Ni 3.7396557682942597 2.981118366988063 2.7301634692082852 0.3834543254741783 0.6844055500471181 -2.787295913264516
Ni 5.436664472560876 4.907414531096676 2.6350695599721914 -0.9416665328209589 -0.4104509086676802 0.05487608321258937
Ni 5.364427571846299 3.0465265877105145 0.8283161588374381 -0.5437471809613861 0.39102056785721045 -1.9290668202336068
Ni 5.761498968143763 8.180150224237842 12.24065224841746 1.1297542990332479 0.18385624462944467 0.0635818385167034
Ni 2.0505200235398413 6.936885511788448 0.24693941600781222 2.2963807885024967 -0.8181769622050297 -0.3744778330071809
Ni 0.7112524246373156 0.45092262097473085 0.29451134252742606 -0.2567686165184545 0.023913316282487846 -0.9981289866840616
Ni 8.20505856096444 9.13617450382696 6.56205636119938 0.34907790487683754 -0.7249014532786354 1.2849699971078645
Ni 9.313974442983644 2.599139079928516 1.0438581759878371 -2.1106980321872744 -0.5369849225368881 1.2117475501776034
Ni 7.295454776215414 0.642439852679428 4.610491356912457 -1.5089945864260788 0.5633526138971394 -1.2658641295163489
Ni 0.9648325503236408 7.253883370625052 2.538261216184883 0.002414780089079712 0.5531862148870988 0.5695769975402964
Ni 7.9388490095692745 3.9994725128882873 3.4954169499322694 -0.8074806588334481 -0.6278693055232863 0.5645569186178858
Ni 7.707018956113188 4.025824679560029 12.725410433911685 -0.8250605766987403 -0.0432194728102675 -0.6513707310793363
Ni 8.62174425085631 7.279045966713058 9.287527837120521 0.9213728155689292 1.0228781686042836 -0.39875830282110036
Ni 6.985113064232838 1.1879088171940755 0.5075607098668694 0.485700413330299 0.09056736596661176 -1.1984168945069684
Ni 2.144832085239602 6.423572183869702 9.39935382847562 -0.35357990651224913 0.14710206782854665 -2.47925358617275
Ni 0.5388228064212472 5.165932736809221 0.9898371423799148 -1.0172759919261578 -0.8510829689044309 0.6012532455976549
Ni 6.799576375936138 1.9889801773873972 6.8957145646923035 -0.795451752693372 0.45349991733835443 -0.20769165648614554
Ni 3.620117545666139 4.71602987748757 0.21210860770223025 0.624895310496627 -0.2461633301987825 1.3843444198431447
Ni 6.344706378375533 5.80730197596329 4.649445707218604 -0.35260648685538626 0.47483133182627896 0.27617736006236954
Ni 5.792191705342415 3.0470895905822055 8.890115006823452 -0.032933774613543285 0.22449227298325208 -0.10105952374718725
P 0.37492086557300525 5.684376655413542 12.18390246702013 0.26775108367188727 0.8747566583722871 -0.37928682436005
P 4.445643208012114 6.416144178239969 12.438787488071972 -1.8373185465850161 2.31702623266699 0.026954674211972934
P 2.5272472454901362 8.754404072671427 1.2732591444733194 0.6483622832703156 -0.158039797786973 0.1910213949193162
P 6.575219731567179 7.840595927767674 5.830240710708115 -1.2155628101586355 0.7365943162355314 -0.9084157411876291
P 4.836439846497665 1.1765216300795465 12.719894821907408 0.1877229266737025 1.2922475046058841 -0.7636852589150526
P 4.0286033711525695 6.526156755506732 7.936800405571636 0.7977053246142392 -0.329478128368039 1.342573763664262
P 5.149469443157993 1.0677712689283485 3.934615490138604 0.4315460387750826 0.0033506616397877783 -1.3295701523157426
P 0.18562477100404484 5.5218867620902685 3.793403473088667 2.367207995727704 2.155823977991636 -0.2404811922123407
Ni 0.780631631743486 0.13620673990677248 4.589824611175649 -0.3528746529151084 -0.3582174052842605 0.21750144348771575
Ni 2.1342439989752156 6.784720364676673 4.798645100493372 -0.851200982539534 -0.07079815375948452 -0.9820590777053926
Ni 6.475749837107409 6.163419453690954 8.887829396778214 -1.081743318371608 -1.2350540861140278 0.20635879660733494
Ni 8.986524708254837 2.3109542551544333 9.890492107802915 0.42548286330013824 0.7196188647234575 1.2677927139976295
Ni 2.5054081824834036 5.450285509779213 6.865558496360055 0.19988141641310736 -0.24221308730178281 0.22597862772079147
Ni 0.7439883174187174 0.2678141095794867 8.602508622096574 0.6790106042837918 -1.4964897690908487 1.424923883927404
Ni 1.9497606708900672 1.1361942792217918 11.422236767499458 -1.5441528794947663 1.7441821343396477 0.01888398138869651
Ni 4.235733943786071 7.23277076293663 1.6633202469490795 0.14658604742407658 0.4405094186159575 -1.6032270599491034
Ni 5.770561498239696 8.354435935792196 8.09411975316683 -0.8681275830915437 -0.3590396440752397 -1.3564834317668188
Ni 5.31390260445775 2.951161165799202 5.198981913446645 -0.6428621793876927 0.1086843872822967 -0.9583733040526785
Ni 0.934512121475624 7.753484854410673 6.832384914249371 1.1692988940950895 -0.615745782786875 -0.28655227553879037
Ni 5.2755003601935195 5.114763040325672 6.804116721675584 0.4931170175093442 -0.49126942277764424 0.31390058564475615
Ni 1.4169420176746628 7.575285364828918 11.273714793809011 -1.6288277912363431 0.08430621554824835 0.8809663867274247
Ni 4.531982422593409 0.2442433587077295 10.225306283321103 1.3389467084346363 1.0101828325248021 -0.3004850835697986
Ni 8.275570130298028 7.258532684662243 4.388632810769342 0.2796241809603894 1.4545944144086433 0.5250465192280893
Ni 7.808023487432892 6.4566803850017385 6.792194681832948 -0.36395302221645703 0.4992524409831208 -0.5338957420886031
Ni 2.6457865920555785 5.569133599854937 2.259691935617798 -0.4530278627979424 -0.610103239789117 0.8312165689978072
Ni 2.782786984397606 5.451102772012313 11.447966906804893 -1.607748601968541 -0.5104097431515209 -0.4838386775312119
Ni 1.2117456323261644 3.6541701387119803 3.1968065832712718 0.634130970162282 -0.13474071804971632 1.4493161967288393
Ni 1.6494168002257494 1.1318264666204452 2.611757608807583 -0.19161634819083773 0.6604606091957465 -0.8736546835573599
Ni 1.2671287696559201 3.7224478579417615 8.38122125144748 0.4314599068191795 -0.422721241394601 -1.5035801002787266
Ni 3.936615966471404 3.1565664070517148 7.229000459834595 -0.2249805254735803 -0.7985257636330053 -0.23608152048274827
Ni 4.276969363791715 7.139648271820604 5.7597345897894145 0.8147386259474421 0.46895121889641816 0.04168683821582498
Ni 8.993471437236188 7.405031480291192 0.4249690966589127 -2.343352529266345 0.18287819698689148 -1.739740039407894
P 0.45966187845401546 5.881727323324279 7.848736767678499 0.9092413224127178 -1.1561680131400862 0.9017684110744405
P 8.812811080263653 1.7860448842171426 7.718569595674338 -0.646485377962577 2.2196685832514222 -0.04419777756313678
P 2.2051006345850013 3.32609383627113 10.36861775624096 -1.9732471142952468 1.7105104531188153 -0.14217094907551645
P 4.197522394042898 6.41072300542707 3.619244891215018 -0.05704532294976627 0.5464136720499558 0.9337436784294564
P 6.970456828185908 4.035504696676526 10.457106370495307 1.9017141392522667 0.8534954350006656 -1.544554228698243
P 6.628378099484607 8.017841944744147 10.043970322902537 0.03410748320667029 0.5610548190018982 0.9374265265976823
P 2.7565256246406538 8.91830147317393 5.588287502391362 -1.1232602066684718 -1.327287784039469 -0.07571333167291477
P 7.147303294737309 4.299217057914998 1.5043663748876852 0.28187466755746293 0.05281225870502517 -0.9226771362026496
Ni 2.8163038166461924 1.8077114140857764 0.4971487890171731 0.7281960648695073 -0.6468306771171376 -0.6856083121059675
Ni 1.6312463365764887 1.4073346460899963 6.56470156662718 0.3568722041102757 0.5387271020389753 1.027190165716076
Ni 7.215717224339273 0.9246232484551117 9.060924629679686 -0.19987910242026222 -0.6334683968776187 0.8657899360973025
Ni 2.8005851396962322 1.8269170765636307 9.114963824670566 0.5470507914133224 -0.7812782894064674 -1.091860866421584
Ni 6.32991393195642 2.4600319671633852 2.8001510826435414 0.5914169762335234 -1.0313224427168945 0.4575185515794443
Ni 4.378518736600153 6.902406126243099 10.160009755103841 0.683397420497578 0.2079001729525258 0.0666134262541756
Ni 7.50566370326026 6.297622993057484 11.13108074047348 -0.34714212130670535 -0.30373650062756075 1.779558971177045
Ni 7.5618277800572 4.386446180261224 7.688201039161482 1.0185836549939877 -1.70095006312389 1.1832417294284265
Ni 3.3583212103297138 8.673068319095 12.300605697768543 0.45566812863426687 -1.0650427177874753 0.9247687286243557
Ni 0.03520947314025171 4.945998389190484 9.962526509097513 -0.28549375236728897 -0.4896632546327889 0.8895194185037583
Ni 8.809460305107942 2.548150997274543 5.509554274992786 -0.2846234339471937 -1.2366152599535607 -0.51024776365236
Ni 3.6401495510685726 3.0862455322391833 11.79199162769012 1.3315918107314615 -1.0974543013489617 0.5024750616854765
Ni 0.8786086605241277 3.453278001124476 12.298732351116445 2.0166751035718944 0.654573297177034 -1.8131794874449676
Ni 3.166709539433636 8.704042557729498 7.865349892739131 0.17456659179740258 -0.6697530902412658 -0.4887481990176873
Ni 6.049547582545662 7.936896660901312 3.163354223932186 -0.7174894770852804 0.4943233791126196 0.6729080909304799
Ni 3.3880877169975183 8.745931787521622 3.4276622785316726 0.5277369215760588 -1.3600271832540192 0.16808741183096215
Ni 3.9060685203364147 4.469044149953216 9.216676649925624 -0.6204912678916603 0.9102486806313097 0.4925958548985517
Ni 5.325335195029674 4.86268304487166 11.411922918117732 -0.21658510232103345 -1.2187736037864494 -0.1718255387171557
Ni 8.203051728147607 9.043097416168328 2.3760373871219405 1.5154123170269642 0.6963555233201427 0.8467768853299094
Ni 4.805656302384225 0.6765396653209593 1.5515605446417773 -0.15359641730363868 -0.6240938976412541 0.7681723481521286
Ni 5.990141698890758 5.981061007411867 0.4356625189444546 1.2368785409172762 0.020206042634229718 -0.12506411419190075
Ni 8.292369409533977 8.962043164027746 11.45041233702016 -0.3209225254885441 -0.6853002939472457 -0.5140532534413791
Ni 0.41921647860703526 4.6439019450707395 5.906076289455777 0.07150649268041878 1.58432096707322 -0.34121418585804464
Ni 7.6634316370145115 6.483504747630381 2.09411914753744 0.13188293688594707 -2.1161040336941945 1.5153516389923578
P 8.816733938982534 1.9149816225259149 3.2855340197115157 -1.0098545026511059 -0.7280276576124429 0.48330208830145144
P 2.050865089816039 3.5923578718151696 1.2443117161769108 1.5908171163205247 0.9949981543645637 -0.09896047512631342
P 4.748665882662705 1.2602910089723152 8.060082597296503 0.9425761891194219 0.7582059809680363 0.810061789297063
P 8.506028999340801 1.8484383153686021 12.109953855961782 -0.06881429056023632 0.11113490570531828 0.7806152019011717
P 6.910161036766072 8.145679919383973 1.0328278600484282 -1.566332500915599 -0.344010260545943 -1.2350291464133634
P 2.2892332411369263 3.3535810893777325 5.875455289719809 -0.6790152322694822 0.7060472966866098 -0.2818474138639533
P 7.088551220868885 4.02147502834164 5.662288781460288 0.015431761174037937 -0.05682240830568278 0.26932588435817484
P 2.4747426873591887 8.83337884646334 9.931333425798375 -0.4362583566490874 -1.2272878119050479 0.08383416100783626
