# total energy = -340871.6964578975 ev
CRYSTAL
PRIMVEC
9.22600012662408 0.00000000000000 0.00000000000000
0.00000000000000 9.22600012662408 0.00000000000000
0.00000000000000 0.00000000000000 13.50318376369666
PRIMCOORD
 96 1
Ni 0.737961894087247 5.503410388210587 6.354570687286426 -0.773869398536906 1.1165745671181804 -1.8218263644866883
Ni 7.774371795858157 3.384871723854636 9.501555540968043 -2.214556201725521 1.1007869652666205 -0.6503975685327895
Ni 5.943324512393808 8.355711271528408 4.132675914566997 -1.008711133075282 -0.21668126157926554 1.3756777453070823
Ni 4.236422282723541 6.796166711239761 2.8618783937476397 -0.0607525965980244 -0.4068858170242412 0.1082886945057748
Ni 2.101562824657592 8.230634391750884 4.665822457493582 0.3871659699978106 0.7294852159945759 0.5297498382410296
Ni 7.007119197491372 6.8159564808881195 1.8923494393750786 0.3759179078878171 -0.48411018602504374 -0.05494524588762795
Ni 8.773981200096221 4.619236693921359 3.132887525932112 -0.8375803064323059 0.3529268463092825 -0.8208133713866121
Ni 3.822304054081956 0.18143297717614004 3.3442930087756744 0.4201187707747474 0.3450734117031347 -0.2687124191438921
Ni 8.822491507234249 5.609730810321392 8.68702984204125 0.3718712486222693 0.8478202389927592 -0.6757195922373459
Ni 6.091743171756574 2.1585241476454535 2.4568634591442993 0.39192302506682186 0.40173486895092103 0.26469095668932474
Ni 7.068029248409069 0.014002299951194879 7.084026209524822 -1.4457372211283295 -0.7994580456392876 -0.8577722079991486
Ni 7.800573635392579 2.5390597368837637 6.330143930120462 -0.35782865448627404 0.5053156164580652 1.385188513010995
Ni 1.649830194684373 6.826981550692215 0.4403228359759584 -0.8052579401505164 -0.015206275426793165 0.46171613460055966
Ni 8.617185332882308 1.9529135152989232 1.7137839029479875 -1.5028596771729343 1.115484162267479 0.861318273479194
Ni 6.22033515747164 3.4604603405115113 4.586585880501527 1.3145194286302069 0.6995524329908855 -0.6047172928868554
Ni 7.596476067019164 6.806029305064514 7.024274944186534 -0.8851829959119337 0.015642334522947256 0.08857604656819583
Ni 2.8094922440784824 0.5480769784612884 12.726155963470521 -3.582008473799018 2.110339106185959 0.02742955696586244
Ni 1.3985877671486684 -0.035177814774929796 10.47500000967103 0.6997470655001949 0.5494018081440022 0.006390991128008347
Ni -0.021278846021898837 0.9634158068811847 7.90468258534268 0.19007522895596296 -0.33366465564556086 -1.8978711113570925
Ni 8.192447978429414 8.235607205662522 9.109841730328357 -0.5525475528618355 0.42778657173265033 -0.5816974349529144
Ni 4.337133296934019 1.6088021734133948 0.8945843125042429 -0.14916846343927212 1.3964545728431177 0.013167904840525707
Ni 4.669666009025287 4.1520043842235514 2.776119034871487 -1.0871786304545663 0.12133550038740393 -0.3865792442564052
Ni 1.259616531618031 2.9128972502410915 0.6797329187219104 -0.05070215434055784 1.9629909837848774 -1.2050449413464472
Ni 4.669942789020368 6.344101945272444 5.311328762023661 1.0936714372677616 -0.24609905261975037 -0.7465419143665465
P 7.923279433212235 8.208694964140722 3.470993664524346 1.046218900212753 0.8144159525007006 -0.026435054263077053
P 8.842308954882114 5.669884329252532 0.9325326950299428 -0.582536643024758 -0.12989598836290533 2.3584179082398995
P 3.8366135798276915 4.55626924504022 7.385174837973749 0.5705411612257787 -0.8965542138633527 0.34906350669913433
P 6.603666224660278 2.3470851322949366 0.2843360889476675 0.46820534186932916 -0.16802570535509126 1.0151797715187612
P 8.76863934619114 2.714538253765708 4.027635138633453 -0.006946863631478359 -1.242098651665635 -0.02937253962484619
P 1.4550970161445624 0.8384920787009387 6.148634377145682 0.35869228803815 -0.3183509081066259 -0.9994878147048013
P 7.353555491335588 8.10752264993844 11.054124322780643 -0.6946663085431778 0.5587426259289537 1.0622695259177124
P 6.874569257846636 1.5437957785684853 8.435506021510545 0.5049790590542529 1.5472274046550323 0.7327880551155638
Ni 8.856184858635554 1.4584921840842342 10.042020146964596 -0.536254986349399 -0.0008080977235921567 1.8257431830425912
Ni 2.2675016577090457 9.27462085520042 8.19760715753774 0.4011591989531091 0.5013697444364397 -0.6233017407572621
Ni 0.6230594469289343 4.174884863816991 10.229593027031637 0.3536822364180683 0.8102163125970563 0.4130940027174821
Ni 5.224139373172918 3.1390357322228652 8.68974413119302 0.19543675037819244 1.0743537107757561 0.7464197869663854
Ni 4.066700789739301 6.087268561836084 0.38736559691694894 -1.0768409959739842 -0.05949121338709755 -0.034160962152425034
Ni 5.605662144393688 7.251460577149701 8.619446625442128 0.8086037166942976 0.40085220923565157 0.34528115683856664
Ni 3.005387898597637 7.079054318213166 7.154769331067796 0.49878758553156033 0.9513102265583101 -1.466245111273694
Ni 5.869368897707916 9.682963607944627 10.039562340608267 3.508892984760267 -3.8390897364618857 0.8525906637982091
Ni 6.991434997770064 0.26466533469719467 13.009223477440731 1.3112710968962387 -1.5707622545521787 1.1515294859268104
Ni 5.941202532431513 4.622576505862014 6.806252574260546 -0.292595910629709 0.6213639003046009 -0.02962887861002639
Ni 2.5560078985826142 4.8851484611964064 1.6072835738403783 -0.2546469421897614 -0.6803426928316542 1.4602780950569816
Ni 0.3997044490977015 0.3819213344136874 3.30881996200599 0.38058600278744775 0.4597096456934922 3.1349872222064716
Ni 8.157592151048762 7.361489851194604 13.085475443485818 0.29245527128678667 0.15041056337648934 -0.39286199194132343
Ni 6.84284104441041 4.995389933237539 12.806877926436181 1.1545528461341665 0.7590477601430412 -0.828209149630051
Ni 2.1609690376020105 1.8067275478964835 4.1967763162280045 0.6056333769432215 -0.4320661729446107 0.4039172213142205
Ni 3.8082159523322856 8.680586403755742 1.1390677725600467 -0.4683069004441999 -2.332811520525705 -0.509094366774207
Ni 8.100649280060573 6.467601179078001 4.7481515896306865 -0.8264417733169831 -0.4051724338775603 -0.8668715991972554
Ni 2.8587683092029024 2.298344175161009 7.100149566838327 0.3016029992243257 0.7247376740072615 0.7569463975293221
Ni 6.555358889518645 1.8414265332799213 11.598558876506653 0.8303665622926859 3.2830156585040298 -0.21517588067833263
Ni 7.510093030554093 6.030362594847238 10.576328243270542 -1.0620044451817838 -0.6980118279766431 0.38412795450243525
Ni 0.9730108467106916 6.554869911527334 3.4580034567551676 0.21189772414769315 -0.3988637180507131 -0.6221329172601414
Ni 0.5240570878880949 3.401709173555454 7.919860277672989 0.01074901098638794 -0.38287274193909543 1.7165042088084053
Ni 0.4510702031849898 6.954687840423018 10.406066106695908 1.6540868229134482 -0.1939599087223498 1.2768319413817624
Ni 6.985677973872359 4.333295281002217 1.5089270347880634 0.4109016230518537 -0.15977040732483452 1.1078369301348663
P 8.019322091505666 4.562321500932677 7.049174995144089 0.8616404327053031 0.3862054058567542 -0.6857828900106189
P 5.276146334248813 1.5134422391078335 4.3683743775789 0.38491471206978867 -0.6354586878347701 0.02442342314968697
P 0.8595744109263294 7.701320329156198 8.033583642052253 -0.8557358942954101 -1.7223308427925113 0.02950109478291048
P 1.9925115065953114 8.12543031562024 2.2547476355356704 0.1955892167956567 -0.5746783233226037 1.290230217065539
P 3.739445349554262 8.958178286823246 9.913618216846155 -0.8553936804646429 -2.2661901238517292 1.6760512429996812
P 6.200637647821642 5.492246928408949 3.5388195249191567 -0.07936506949288913 0.03521151490412646 0.3326038184812143
P 5.549854071385335 5.284689610097009 9.847736274616802 0.26010873663528106 1.2071668727854565 -1.9555121589093287
P 5.285206266087829 7.93679552297207 6.586353635967903 0.10645961171683602 0.4756322304610195 0.2646937849028022
Ni 5.2941185819294665 2.2612279778205218 6.49122342905826 1.1755096508914917 0.4584685741975395 0.0309473403111338
Ni 0.8558775527920185 3.0407234779697636 5.779632210302436 0.38635067318536687 -0.17701402489663062 -1.4006434141134847
Ni 5.2883062020327465 3.975427973361116 11.343389863440718 -0.40456025421485814 -0.7057626755666555 0.6577334400725705
Ni 3.0077313025559977 3.667537906831976 9.685549655698676 0.30592270964560214 1.0485722309362782 0.33030653780660535
Ni 9.325548374295494 1.0566353092247789 13.022983133596236 -1.4187882033433115 2.7703741978085126 -0.3450057916899929
Ni 8.787940137848187 8.884619390130306 1.461355011833365 -1.408814379960051 -2.15087331885458 -1.9505345031890793
Ni 4.59930853427546 0.7165003732685942 8.305294872824252 0.045384598782386355 0.08046215921180982 -3.3324929392985507
Ni 1.6288225930576545 0.8183092814595644 1.3935688232378491 1.3848370432088475 -0.15880521519808782 -0.016413151250700767
Ni 2.0518439115410416 5.237203388940785 8.096184818739902 -0.7197309648212895 -0.5282418862369354 1.849210412926596
Ni 3.607033799907066 6.333187587466379 9.501069330776682 0.13330758514761556 0.6024146128956077 1.1414489617623569
Ni 3.933099086113253 3.967004635510789 5.302402607182269 -1.1087748685681034 -0.2517516229198374 -0.3407426455382648
Ni 4.77561739114265 -0.013249458364572026 12.475928395916783 2.5772457838485225 -1.2301782460789652 -1.4555382663791512
Ni 7.57229472144884 0.9269269775295501 4.813195811074923 -0.8344456174580661 -0.19492072997372234 -2.074833714190498
Ni 2.5834183440955614 4.484020440324 12.859608205899226 0.15638580712331776 -0.3034793903114322 -1.435850558142237
Ni 5.190279953774563 6.657407673705353 11.781243821860546 0.4099120054450746 0.14217429150962613 -0.7794692612221866
Ni 1.7607820687128828 4.131762540583226 3.7796891608391743 0.689262106808471 0.5426979137612653 0.3828691423946696
Ni 1.515241309075866 2.4125436011318135 11.442246451684149 0.8235549386874913 -0.22194559530199842 0.9953869051625504
Ni 4.085429569406512 0.4771188911221339 5.833739931541002 -1.4685691314211806 -1.9389092602453253 0.11665095042754105
Ni 4.301723909563204 1.8577934569890995 10.552454123494758 -1.2059031755816845 -0.646101512260597 -1.863289259617165
Ni 6.2539639268740945 9.142781317543058 1.8076981230792375 -0.09300065799845274 -0.6439261018758329 -0.18451264726652095
Ni 5.025743472698191 3.9746806673743946 0.23940362454606684 -1.6223059309574255 -1.2671604797302694 0.25062265152171675
Ni 2.7024983239796443 7.564332683590315 11.868960937901912 1.0652175528024428 -1.0899325390506196 -1.2668190372304506
Ni 8.995589716158488 8.540185138250514 5.885699840017733 1.2234044176902412 -0.5644219357019183 0.03822356225757288
Ni 7.380799868851487e-06 5.2741350662845505 12.50463601700668 1.4772268070961787 -1.6084317440784943 -2.0703576806970148
P 3.8877717489186687 2.525709715120979 12.31961597109428 -1.8167255529250128 1.3445103185653424 3.451549670954107
P 2.618495595472278 5.970052233918887 4.889300161122635 -1.119315363088111 -0.2767499447363879 0.23376958452011998
P 1.8351528533913977 1.9776668728590838 9.259888778662189 -1.3888857593569242 -0.4184691509864664 -0.31228310464599124
P 0.9231719955962718 8.58353811148018 12.547468643845594 0.3211955766442727 -2.909357750294983 -0.6126409186093061
P 2.1988233149293825 5.5212534718935355 10.988661240943848 -0.3522208213811934 0.33118096999175867 -0.35897073851051725
P 5.530470245729763 7.453832883553773 0.3160200175846797 1.7608732218420835 2.0230725224578063 -0.005696536164145029
P 8.385557380998076 3.2308897865907222 11.675621807937333 0.3959941098124019 -0.05048823855753886 -0.13304816083864182
P 2.727832919529477 2.575059588244087 2.2110108607128236 0.6031082965285227 1.0430104205777844 0.48382890733919903
