# total energy = -340888.1967843268 ev
CRYSTAL
PRIMVEC
9.08316120299651 0.00000000000000 0.00000000000000

0.00000000000000 9.08316120299651 0.00000000000000

0.00000000000000 0.00000000000000 13.29412456058982

PRIMCOORD
 96 1
Ni 6.535725022579014 1.8753730329345453 11.180372226596997 -0.6350812498906934 -0.5517723652587078 0.717684366704906
Ni 4.480042157677213 0.4913672270926764 5.894029661839443 0.08685880676677299 -0.08175825231541402 -0.9164707502816217
Ni 2.528552234314698 1.8497131026888394 4.801824041171164 1.5758432686195118 -2.0550069092725574 0.7517152310373699
Ni 3.5313695578003186 4.4364702336458315 5.071203351364754 -0.16875589865289647 0.492704612562274 -0.9943749189582681
Ni 4.923436669161855 4.672496176100578 2.738749299726369 1.129122836096836 0.6379436590401529 0.9368207746928834
Ni 7.160873588653593 5.999618685247321 2.9474540017612725 0.6750487914225664 -0.27628714616735645 -0.5582474314600903
Ni 5.048084889608517 4.5515538854026785 11.774792458504772 0.8382788751612272 0.18210120961155088 -0.7486299072438268
Ni 5.671244243391481 7.840602870072046 12.637567420028537 -0.9821660355969021 0.11356819773715925 -0.5946465389144147
Ni 1.8544454296474282 6.501263509180003 0.4782466008130581 0.2033110109199466 -0.3872909256114491 -0.7030077385293376
Ni 2.8995085356366856 1.796794605835218 0.4351915086510514 -0.14693520323337922 -0.4701820059797257 -0.15809816182873418
Ni 0.5635066012535324 0.07450008774346088 4.8661282805249595 -1.240668861197644 0.8913395024316326 -0.7375641363479684
Ni 8.642891244872908 2.2008408632227296 1.355774432674903 0.3141355844736977 1.3856155732460846 -0.34198166015168846
Ni 7.0047249653424695 0.5468335506485705 4.749392401755125 -0.8024698358824179 0.05210777643883284 1.2297064486488694
Ni 0.5136164303269616 7.360203560066693 2.295482860813926 0.15354088147535494 -0.6415406323627919 0.18612987115496976
Ni 7.230405187248594 3.631129916698932 3.902889015113539 1.317694741034395 0.35088204796511185 0.4977501454059814
Ni 7.499185008806354 3.5428143408479604 12.372761481473429 0.6185112613471542 1.399502358530506 1.4809142832500948
Ni 8.12891148809999 8.787876663132007 7.0990363358678445 -0.5409181961530233 0.6804697053278216 -0.5646566774205437
Ni 7.020647746836531 0.4459959288376945 0.5392109618123949 -1.0857755794594528 0.2503807107142398 -0.6955715939662667
Ni 2.1850452459847536 6.538486303568287 9.239177158080672 0.03507627487784282 0.9694640146492014 -0.45953069691346665
Ni -0.2316460421487362 5.047776062129453 1.1947327104528551 0.6008526677251266 -1.0984747721936758 0.16941435817250178
Ni 6.30263294117537 1.9253758350593624 6.846142054843435 -0.03365908281534203 0.26989795481156104 1.4554073972282418
Ni 3.6126275174385776 4.389292294638329 0.555149184680409 -0.8056343496533286 0.0343404251530828 -0.4893662922176604
Ni 5.924682605768712 5.606917296134814 5.23449497260339 -0.30057661484234044 0.373932244916356 -1.1956323897832957
Ni 4.982168389150788 2.6831294707470583 9.491340244632593 0.8527449299878863 0.8563606723636026 -0.255385877238315
P 0.0763675856756793 5.764909801159169 12.358457319296106 1.1520820159961707 -0.9596058909081989 0.12891768361003603
P 3.993584379185528 6.31704791791871 12.690623980931623 0.0077521331415931006 -0.8517337151145524 0.1528040033093304
P 2.3271603853207923 8.558490511477121 1.0659325770450216 -0.6901342250007793 0.868518133661743 2.2340045402581206
P 6.6841438757524045 7.64275345392622 5.746678080101051 -0.34976156120742347 0.7314929904532241 1.0943653780109925
P 4.979715935640578 1.1599923440065718 12.725056428214957 0.17091948196311854 -1.4645898350584583 -0.0007142524582052216
P 4.306117787997648 6.2993630031617585 8.19986914299537 -0.2078001570395518 -0.40399692551222044 0.2585038540420064
P 4.523986491315698 1.163616525304992 3.7603624085774543 0.6845955545707371 0.11177433906153007 -0.5347529478825759
P 0.36240813836473684 5.372862399649383 3.427105767604069 -0.5152930393857513 1.2743348859915216 0.715953242946412
Ni 1.5999806700603691 1.1792213961588405 2.4048804536915465 -0.8313633789883165 0.4385492095657931 0.22076803005412945
Ni 1.9312980561284598 6.397479309892417 4.909520357965592 0.49136481070492793 0.8749109245619642 -1.5808098685961678
Ni 6.286128837367778 5.765554705600741 9.2107014478788 -0.9307491145775066 -0.4615685532791019 -0.5356394642525871
Ni 8.842166717319115 2.4453686445128677 10.106552740726366 -0.47042368967688664 -0.4347573466235287 0.415079151468311
Ni 2.6136251216355046 5.48557534634636 6.977727085459527 -1.0935832484293295 0.034389276113147224 1.0475034233521314
Ni 0.6565036383606586 0.12441932478570818 9.03543186203308 0.43483833637310915 -0.2768309344859684 0.8778630652117526
Ni 1.5861379324694116 1.5638024392042118 11.499856070320272 0.2704152607676117 -2.2419461637027003 -0.8477086531155594
Ni 4.187373622297787 7.004307139929619 1.7953185921485182 -2.5474135309784387 -2.4695229891485466 0.67707944869935
Ni 5.813768124979221 7.950599951585495 7.8104712995927255 -0.2591998516677665 0.12329776632009734 0.17833711458342832
Ni 5.152695656560655 3.014410524170553 4.9526862646936145 0.9872169677572481 -1.795932784549378 -0.3439313276788915
Ni 1.0097114427976521 7.548497490683853 6.936554932603692 -0.6056801710207569 -0.4084418486574514 0.6219637386721288
Ni 5.186684845579922 4.322349396970772 7.3744768394961095 1.0475769569025442 1.0484891843041686 -0.3671512174387806
Ni 8.117966278915539 7.495588076991381 9.264236691374434 0.6134734418129305 -1.059925194055252 -0.9726213293312604
Ni 4.483484675752654 0.27731617640551764 10.677202339907412 0.7826309467796199 0.8606197047502726 -0.14192103784823945
Ni 8.470392931493723 7.068161762806543 4.757688052832435 0.43376695768580137 -0.24802532310818576 -0.3709384523953547
Ni 7.609327420898186 6.196677866373191 7.127418489509882 0.13026494166654984 -0.6359451405528853 -0.4557249500141312
Ni 2.5091869347451956 5.280804561405056 2.6142227936391036 -1.113950499231772 0.04945028421132774 0.2917857560235878
Ni 2.357915968971043 5.299534039694134 11.531708899837314 0.22181549748203733 0.8258576186787391 0.13088560596968427
Ni 1.2662108304820696 3.373803961349963 3.9019588994118894 -1.7320478129699588 1.2898604924309462 -0.9675523994487852
Ni 3.5684016058044747 2.899635699892771 2.6390034738855936 -0.4092198644740565 -1.3721095683398499 0.36251423288740153
Ni 1.2051719875613114 3.2942173033631055 8.266259784465074 -0.24097484401930758 0.47303155961337895 -0.15789813000278613
Ni 3.781755978031511 2.5355462683993686 7.197079977309312 -0.7403710096691444 0.5173445225981413 -1.270015175570245
Ni 4.164547638330545 7.067907434294373 6.121545590613765 0.9159565296493644 0.2658386971405228 -0.8794316952504531
Ni 0.7907981759474753 7.270071351985938 10.965539115734915 -0.62116206870644 0.46739595859415634 0.7759694755990443
P 0.44043430926620936 5.772830317681029 8.120104455049995 0.06510958801513948 -0.46875607216647663 0.3034151127324
P 8.418037590631336 1.697170494353838 8.061955874006824 0.9374157279644049 0.13096248195420673 -0.6566967712779399
P 2.09379580908268 3.5157283543018742 10.450936254107182 -1.1304654661676594 -1.4939472051746527 -0.4306512948749551
P 3.9622383900605973 6.350019792889298 4.088395323574094 0.10230419478756574 -0.5759569329247113 -1.907581396666321
P 7.0654640639453135 3.9506573595957217 10.274297835876318 -1.8559410467822102 -0.040340865710891814 0.799062609973082
P 6.241021859102229 7.8233176144056475 10.192432212757197 0.5851334572176567 0.574740801129423 0.6864552334872952
P 2.376790777838504 8.517997779075227 5.645961264333456 1.6272838437879908 0.8600898003887317 0.6453021562877532
P 6.958909500507305 3.9329088627107276 1.7355350420985414 0.24645617884885296 -0.09257436909431153 0.1930710783594933
Ni 5.504350240441182 2.804671250080788 0.6638128581371965 -0.7351195314622179 0.24968805552258935 -0.4337386755510272
Ni 1.5695157475668837 1.136603204048097 7.08580852828667 -0.6127440198460737 0.4189386344237172 -1.241104920293798
Ni 6.867360319287317 0.6679338883504625 9.178715095892871 -0.8974363593579899 0.08438771951846112 -0.3857516061487873
Ni 2.886247120359259 1.5038263261378775 9.102726278037101 -1.3456387757428308 -0.28745858940314367 1.8844635797019353
Ni 6.596990944528496 1.7351926069232269 2.629457979834191 -1.7243468447812755 0.4417985697410262 -0.12304091311428486
Ni 4.3794279816306 6.949581094007362 10.389026336032241 -1.4297231050882602 -1.020957297432487 0.7007994180241093
Ni 7.841374938769705 6.986849304201391 0.20181512430344553 0.16428655002763318 1.6601458846233343 0.9056134958521436
Ni 7.763986405780887 3.9490768895558093 8.255890447697464 0.4166400681975276 -0.5185136032055779 -1.1742294986274875
Ni 2.8509227066511005 8.274278399127342 12.333570366064174 0.8665350417934431 -0.022854278890354192 0.4180678017829897
Ni 9.099329175767403 4.8900106361338205 10.232088386017278 1.0742822341078724 0.4307027169381808 -0.10612202587175917
Ni 8.387118510080406 2.0439383375362454 5.828556419645782 1.4419844389541165 1.8795743699304341 0.07588533847440479
Ni 3.688907904767227 2.6124170612026982 11.64497501104826 0.677433232494343 0.48245542403044006 -0.28243619648788776
Ni 0.9139204253211173 3.46122938740834 12.57040561817729 -0.04889466881817386 1.213740412237916 0.8295281255517908
Ni 3.262689651015196 8.521185968638498 7.7228896431625875 -0.7515396246914541 -0.6645874868799264 1.5551124638300637
Ni 5.626091849320188 7.887108655154529 3.9405250933340983 -1.4669632203866414 -0.04723193640377026 -1.3505367272650806
Ni 2.345490204519318 8.287067490025025 3.48453587060036 1.8369933020351137 -0.10990926082833329 -0.8850264157294113
Ni 3.263007561655408 4.441502304922335 8.914840181355528 1.1951929882530319 -1.0376625260023098 1.2307063506682934
Ni 7.229533203778297 6.086935113371911 11.33926305625898 -0.3179845259061426 0.010205736888408229 0.6739987528914972
Ni 0.2684564610208588 0.06036305573127818 0.2845536392089789 1.5728343065898591 -1.6556114870880905 0.47642541578627634
Ni 4.486482118931798 0.06946074993803877 1.5061043829540273 0.5163939857594139 2.941729738867785 0.011570221336102653
Ni 5.853007381142565 5.5254685901124265 0.6678239821005606 0.4586300394760682 -0.0786436179458323 -0.9835138078740481
Ni 7.882049334394579 8.816188876433197 11.24752040370652 0.623367818108507 0.16079087816954887 1.3065361533144144
Ni 0.43485906495300086 5.038847314720062 5.819742120066867 -1.8132813031301547 -1.62083988793486 0.8422167767630527
Ni 7.786512645430213 8.77495132481709 2.7352395662584255 0.34170475234121794 -1.0805467269603455 -0.6376623803543082
P 8.600191304311824 1.6916388492141443 3.5780206734611832 0.7325445716461901 -0.23274499991034756 0.1988817715039994
P 1.677650781044804 3.441119268624626 1.463709636607547 0.2232946531307251 -0.49713796574327923 -0.057609165873036265
P 4.762274140896527 0.8999014744038706 8.219890246799824 1.5352676611899947 0.03108000923425615 -0.11255312620908356
P 8.634307657587177 1.5410582036873102 12.344644556136942 -1.0894139475429883 1.369422765536306 -0.44569121992721306
P 6.155912639136828 7.468747335796315 1.6524995078234381 2.3674494223145484 1.8224020344845 -0.31732992304127927
P 1.9964243215662327 3.4997874064855155 6.188162402796077 -0.8125488173849749 -1.2591473796178059 0.020222754804778073
P 7.068070931195054 4.069056365171924 6.067677903420082 0.18917945661457095 -0.9513698761516518 0.8650412308567361
P 2.4037314338062075 8.659849506737947 10.334546443777121 -0.4095962739768687 0.4454148263373748 -1.8609667821315754
