# total energy = -381165.3814093203 ev
CRYSTAL
PRIMVEC
9.27386648138461 0.00000000000000 0.00000000000000
0.00000000000000 9.27386648138461 0.00000000000000
0.00000000000000 0.00000000000000 13.57324101229554
PRIMCOORD
 96 1
Ni 5.95737422269897 5.920084005259416 5.561513664246397 0.7917305950880429 -0.4171681727868557 0.6606105045100494
Ni 7.5568658099787696 8.300184762531636 9.682810689842029 -3.8930811030766765 0.8694213622023027 -0.34952270572374
Ni 1.3823161801672754 7.754529001848114 1.658663492868725 0.6906109075268816 -1.0203710859117137 0.16205946046932734
Ni 1.994892161950974 4.407340165786029 10.101124206624098 0.2001614095473714 0.024448362850351443 0.3216920566647169
Ni 5.907592107002496 1.194140153789266 9.279074763906324 2.1401248220888243 -0.582598606610945 1.5674853835731197
Ni 4.1690388906488085 1.4165460216418815 11.462602008630052 0.25043984608694936 -0.14058663530753207 -0.9205536621017437
Ni 3.5499248329399955 6.472806452261996 5.882914348085149 -0.10721165939151213 0.4144523165175894 -0.7479457366926087
Ni 3.2723487329192866 0.8913465558173927 8.915135781541464 1.2240258533243242 -0.9496395237241064 1.733703603405827
Ni 4.679426136802953 8.696392163593568 7.095710739234065 -1.9219111830254318 -0.27331829334701957 -0.07740717443556992
Ni 4.596684699350654 5.14598508959243 3.8656183792974494 2.1634519268505388 -1.6879629068356028 1.0573903434485403
Ni 4.508545871560175 6.468883606706928 0.2114209729117672 -1.5478676093421924 -0.7508528830370745 2.0076104222664655
Ni 3.202191932389513 3.637275382072836 11.835513456892144 0.6198898868622357 -0.4427421646012182 1.3310256538153464
Ni 5.527020444961474 6.819203916027775 2.2718756618984703 0.4209741767965072 -0.8726604379648907 0.7648432837788957
Ni 1.3328215543341755 2.132089743846212 10.396682333905511 0.37852217827988355 0.12495072854248805 0.1519470546256738
Ni 3.741522916078809 8.393016166801699 2.602601218563751 -0.7647008446637604 0.13516006497532207 -0.5141882363573467
Ni 1.934788232772724 8.4217373315394 7.422527361144116 1.917270598929627 -1.3274875587551007 -0.5633271599758427
Ni 9.427812745349382 8.2749412977541 13.053589460273923 0.0026117265912342117 -1.174284777345455 -0.1851489952989392
Ni 3.4629823339358143 1.121293931956963 1.1302923646805636 -0.6048371062941712 1.2593366128104764 0.04356451485451207
Ni 5.525249136448428 4.449322959705167 11.420090604316968 1.0762493851365722 -0.27191832767569946 0.8230368614004921
Ni 2.64546317503282 3.474685953535097 2.9534965076113453 -0.696907796279187 -0.21472748028700436 -0.0915461849401133
Ni 5.574688119082166 7.097290078709308 11.968110273586744 -0.5263881208576483 0.6552042458928136 -2.3261333371745807
Ni 5.176681587907505 7.809485935085317 4.407624873489435 -1.0299384178851747 -1.048160083099524 2.4946992313038585
Ni 0.77550483383755 7.898765448462731 4.303966230010049 0.09779859360772834 -1.222131464515089 -1.0142505748362725
Ni 5.268223924725668 1.3479008613614605 5.199324660501491 -1.0009145198489988 -0.10164933481238624 -0.6005652183916947
P 6.016216906024999 0.7941082101578045 13.439028974872521 -0.5609128941073952 1.2614258912393372 -0.04494005504580002
Ni 7.63298570670691 2.711149971880459 7.705176266173389 0.8005623344470599 -0.022532119664245065 0.6675139164981021
P 9.204266191909833 5.352968517355023 10.401581717609396 -1.3508162061787123 0.14196731770514262 0.3177148171845238
Ni 7.545839182638399 9.00791061522551 5.069687134626329 -0.06345225491737458 0.00783800798718005 0.1695244013878048
P 7.948807232422897 7.1387906315673035 6.5936903754907545 0.0681710005492826 0.03976776681624118 -0.5791834102818089
P 0.896549194957803 2.134037255823906 7.021749798641195 -1.4206712792986371 0.025765538999878206 -0.9465148620521957
P 8.187479462222534 6.438066548126566 2.016101494774714 -0.6009588542856876 -1.042989851752494 0.3190721025433666
Ni 6.44793394214688 8.072817376069182 0.5324469925414773 0.22308176578897065 -0.03060461225973439 -0.13756198954859533
Ni 2.3536424159752665 2.922751785190155 8.303212679963622 -0.40004462573269167 0.8559865768536356 -1.1629148449456166
Ni 0.7184547889176544 0.3907692057108881 5.746055262319367 0.3328596432457622 1.1332013770415839 -0.4740939394396222
Ni 3.0753254378426123 1.219717477762976 6.669564514755042 -0.6838111109962288 1.594356754042667 -0.3075720723235671
Ni 6.285159036277933 3.7087119761879515 9.30228539713381 -1.1897810732088414 0.30369124921192214 0.5957258880215224
Ni 3.1242821794152063 9.020356144149627 5.091675472241147 -0.10886307895200606 -1.3201773982469327 -1.471913365303065
Ni 9.089548462557115 4.356287530370773 6.09597308583149 -0.09684317167299451 0.6609133804624489 1.583659422229821
Ni 5.268010625794778 2.933212706670338 13.079093520701804 0.17630722863759313 -1.3959573214917247 1.2623656294447874
Ni 6.919778998875811 2.247632847322808 1.4467853183355277 0.26818200056171876 -0.8963284710057918 -0.8885097462923214
Ni 8.93722520430179 3.8596812499254516 1.7057088905432112 -0.5377531681614802 -2.031314450751624 -1.6028735332644266
Ni 0.9656135340067563 6.629497701667292 6.29661318886674 -0.755684242987447 -0.8477161093147271 -0.34814665131181977
Ni 4.9867528007495725 5.1532836225755005 7.666465292376775 -0.98214161011687 -0.4934139799244728 1.1540303979717932
Ni 6.871323046097481 5.9886086052745515 9.889110633639119 -0.6074992265073667 -1.2287587400236193 -1.9803721553758025
Ni 4.883460474999326 2.355293164223026 7.856856845476075 -1.0781309184300012 1.9866870418502367 -2.455432315383436
Ni 2.5318490358007963 5.21335973015407 7.549205596199841 -0.17927351035476868 -0.05624493853565798 0.5512018374672184
Ni 8.981489369394799 1.6646404998669324 12.162411688827929 -1.1251473963888556 0.3257302312898326 -0.1287544185592944
Ni 6.52631666231577 0.6948259043082942 7.01071482482092 -1.2569413731054224 0.3270412367917722 0.15306882693494284
Ni 3.1152030640525297 6.144882530684627 11.855791693513215 1.4722154699245162 0.13831403722327149 0.9470110849623237
Ni 1.394353658962734 0.4636988923422352 2.992289091433691 0.17453162479440912 1.1703157653953782 0.3417232642839792
Ni 0.4877302627603189 3.3050298386782986 4.355381473607818 1.6678903044554436 -1.4777171164690357 -1.9041399750849402
Ni 6.401499692278728 4.59306789139208 2.070950851159816 0.27389781999957347 0.18098843616334637 -0.7359625961888034
Ni 0.7775914538136502 3.998297733404438 12.349573154204226 0.26751891305642317 -0.9436257134298588 -0.7636214955566526
Ni 7.3524883387196605 9.08093304052246 12.031674282378699 -0.6984823398551584 -0.06333398417195543 -0.2223896248179525
Ni 7.7774447261189765 6.724721763509952 11.654866882774561 2.3048484596538756 0.5014232233821945 2.054459778519836
Ni 4.342942436390292 5.646968635054282 10.054799388381358 -0.6290345294759812 0.8374610072456222 -2.3616009339535715
P 3.5791282387388397 1.1926192396733528 3.4743966088984117 -0.23852561114786663 -0.07167104328274108 0.05911120433985949
Ni 6.198439110071202 8.903347769756481 2.9397600564620125 1.5808821165949998 2.6721264324785077 -1.5273352937167954
P 1.8891237138290877 5.236164168026207 4.7174202407144445 -0.04679639152824844 -0.1847892979666753 -0.30257230511613054
Ni 4.049461655218418 8.813817861981937 13.051703155815527 2.0494558975473414 0.6793304495170559 -0.731090869918799
P 1.4593356419517793 2.585090303724317 0.5565979958381907 0.20548667841502674 0.7159622418074766 -0.11419683246009364
P 8.44418936248224 1.0141065822513282 3.498652406887258 0.06287529936798204 0.20482821889542144 -0.32582150545205824
P 3.866154408784643 3.0687873619174977 9.760463556712612 1.4642959579671233 -0.16351624752051194 1.2758448948781447
Ni 2.318281162780286 8.485402425476863 10.411585437468148 2.154255347952935 0.8433375206310573 1.1542314582390059
Ni 4.867611437047523 2.6796837426408655 2.6005108890410265 -0.5310695854937176 -0.36394248069349583 0.06917913009882279
Ni 1.0475110496020548 6.6102915240206075 11.709119002153171 -1.7112265053492333 -0.06603827047699594 0.5243039846351099
Ni 7.774950056014217 6.858228346514132 4.287447618892583 -0.034302372826295766 0.6247556995949691 -0.5613666938153622
Ni 6.072592740845951 7.108233241250635 7.926447012759006 0.5322468936312705 1.5167320642796522 0.4565749567192524
Ni 4.1908046554661755 3.9503054739541295 5.943817684560909 -0.459851313477679 -0.8277196115881422 -0.7529128508898969
Ni 8.97588795399229 5.7322511119441435 -0.05821576994654359 -0.4120907582639483 0.7941055230781227 1.918284384906122
Ni 1.6425316019868292 6.541080657879999 9.502232742336993 0.9435634927333556 0.04722550864586706 -1.4729389783541018
Ni 2.153734948398293 5.089145561443456 0.3320461552634881 -0.5506773324223161 0.6434864432352531 0.6142884815150582
Ni 3.185805010177205 5.862233625655354 2.606374754867196 -2.287793561054118 1.8491337940523895 -2.0234800423088704
Ni 6.808965567345043 2.1244109823341626 11.498747830936045 -1.4194024398885428 -0.846438271043568 -0.6241172946800219
Ni 6.739188995344247 2.6928155376904575 3.7932590354595694 -0.12020112967264461 0.547697938079018 -1.3362498783287633
Ni 0.27723574911794024 4.417875278198695 8.543771214221653 -0.20458884919110573 0.12712999558199395 -1.8032051498410753
Ni 8.006833815491609 4.665385502830437 3.826541087771698 -0.5529342467772929 -0.01457866914512328 0.04131171426459337
Ni 5.059422819117227 8.612361658689368 10.088745449539214 -1.0817317484073823 -1.8619324884789548 0.1986380309243095
Ni 8.469664673923784 8.54943847407674 1.857497974084655 -1.4021143422320563 -0.41748750379948746 2.042509291026179
Ni 7.694925861464128 3.8554709145070096 12.809515203202825 -0.3579656942847706 -0.13399715501547244 0.5174743633077862
Ni 0.08747110939812647 8.710915038627228 10.743166044630302 0.9538121670445573 0.6264497994679405 1.4071318500513057
Ni 0.7545625883707509 5.4350144148152895 2.6604228491814754 1.3441393083791688 1.3861251658926514 1.4768784226178242
Ni 0.23827716308416275 0.7507547387610318 0.6944744247656531 0.845522444097518 3.3041102743908 1.0699057023067315
Ni 8.431252318630419 3.2671831892451184 10.299917882827161 0.3079680222104051 0.5294299930077657 0.2690024395804851
Ni 7.292300944742366 5.176384824177572 7.510495549789883 1.090859164629947 -0.6932120925951545 -0.06545334450780341
Ni 0.9643244665548544 0.4240373472231759 8.888748849017027 -0.26865174110928575 1.708166635476987 0.3627327766561108
Ni 9.117453527037497 7.404579647189686 8.507002188082797 0.6532998297812491 -2.3941498144238706 -1.0381098979523733
Ni 8.488861577703908 0.011791721331607063 7.541944158683012 -0.10522059710341235 0.5008912621381244 -1.0054836272769199
P 2.3543194082341787 7.822052024274721 13.359571413569277 -1.694896143620326 -1.236236536457903 -0.3329318912445943
Ni 4.085759568936004 4.118505591760939 0.9864324370483014 0.21445391491064358 0.6695849400945179 0.14642021127017363
P 6.337723311942541 5.502889844171194 13.166288268876428 0.6034952475542962 -0.5321602474547351 0.7631594683185695
Ni 1.7943169759816484 1.0918586794941074 12.357608032192196 2.3834306282341533 -0.9693406016974596 1.2405248794206118
P 8.200564887939324 1.1973489116191804 9.653573898123566 -0.21121355359647495 -0.15385044229597375 0.24289391541889135
P 3.5832829309579197 7.339699676732805 8.783746422273033 0.8338504070762285 0.7131926494821395 -0.609701119254692
P 6.38304469782344 3.5793693592694114 5.944794222709725 -0.5382853865158665 0.4877791502361986 0.050439130487158285
Ni 7.90022144551272 2.0733583469189076 5.484892051337336 2.4217197536223387 -0.8873944017409556 1.3964746274477755
