# total energy = -340891.43793171475 ev
CRYSTAL
PRIMVEC
9.09237940920828 0.00000000000000 0.00000000000000
0.00000000000000 9.09237940920828 0.00000000000000
0.00000000000000 0.00000000000000 13.30761633717209
PRIMCOORD
 96 1
Ni 6.202302971894707 2.2689396365798973 11.517528858550584 1.144516287833771 -1.7205166724019079 0.6344749837652621
Ni 4.529341528888272 0.41376236388928195 6.045503979629711 1.6461097182452424 -0.22567343777554683 -0.19523029079434118
Ni 2.770402546125164 1.674552609404216 5.0620440356306595 0.11688312104300516 0.20419238508363546 -0.6377929923949016
Ni 3.507285343506702 4.328545421867717 4.980082599861987 -1.1353950422587928 0.4865205952387492 0.012964787690784125
Ni 5.241202098117276 4.628275709312591 2.601186091291884 -0.02742338631827535 0.38851425649558896 -0.36400238739715374
Ni 7.42493704719085 6.069445123869695 2.476507747789409 -0.5026694370844697 -0.46396199321194287 0.14984646334290322
Ni 5.0312954269219965 4.298240521274549 11.670912753106972 0.025457520841156156 1.4128458697169475 -0.53781230353419
Ni 5.645349270774252 8.066949957746974 12.522586840614144 -0.44680939269205633 -1.018820453595142 0.5961100108338184
Ni 1.9617535980139915 6.547322401210138 0.3995727965728412 -0.6005713890392819 -0.7531015698619352 0.35376194061606814
Ni 2.4445316678596005 1.3478452322323904 0.25942286025628436 1.1815409446872362 0.17255367513243186 0.5898483461948227
Ni 0.8841447928772056 -0.5095496717977609 4.359721372408927 -0.5618132944344776 1.0916816605312427 0.754528532116449
Ni 8.85615939866697 2.0686981647037115 1.2087136424104135 0.4016014286968503 0.5978123382369058 1.0320657486408227
Ni 7.279422607018917 0.676127518124549 4.987734746378401 -1.2097279486444135 -0.0541731436082938 -0.7588909228502028
Ni 0.6226843303938199 7.191308358099509 2.4706386168764505 0.43363557431425964 -0.4718542514758261 -0.5420440822273503
Ni 7.431601761302699 3.8544960362613643 3.6377564419350423 1.0281928959489777 -0.07597558419536592 0.3903356259750439
Ni 7.704518621850109 3.7739921089130575 12.742322373958 0.5074077231004035 0.12115475183516553 -2.052938713889619
Ni 8.19853487265376 8.71643680418296 6.918509698484507 -2.001175465274399 1.7970334738127245 1.619132161215134
Ni 7.124615755083943 0.4730319483497145 0.3445529902513965 -0.780361691129469 0.4629842026797059 0.01894183120982544
Ni 1.9053626608766303 6.879457928893252 9.113069125252702 -1.82853591529638 -1.3022686362873122 0.40423578099590385
Ni 9.198942102646091 4.686685154680281 1.3628994848312823 0.26298888639655355 0.07836568169409729 -0.02303322767037969
Ni 6.54147600124572 2.108077259953939 7.472705680928122 0.6909621202187133 0.06990392407998929 -1.9363456132832069
Ni 3.39884053421336 4.435180847657296 0.4792429527287102 0.29254268879427037 -0.13413728013776252 -0.24450805398354664
Ni 5.888370387802209 5.695284618526331 4.753041339657459 0.02750154785437844 0.36702703315609053 0.3313830587002357
Ni 5.405410470368283 2.89917791579244 9.45239945276761 -1.241822515186113 0.319512789625211 -1.0374954042968263
P 0.2677114733318114 5.631328821714947 12.529772548066521 -0.10726590966821525 -1.578246735854682 -0.1207325766960824
P 3.994427755471939 6.082001699843041 12.531170046782744 0.2774690822905996 0.6861341027024506 0.4397380876675717
P 2.5073963791410767 8.528715538762457 1.4288383295932718 -0.5351782083454525 0.015350771424457435 0.790808854604722
P 6.311593372473727 7.923954106673243 5.860514974223683 -0.19501303257721253 -0.4813817313502871 0.3024650901143049
P 4.902801921016613 1.0936859504199659 12.799824399859984 -0.8672451804865903 -0.3502819524872677 0.011723201974199165
P 3.873790065381886 6.337133866252968 8.28267393329254 0.36440065127683696 -0.9590998978060579 -0.8540155691701937
P 4.846620108605818 1.3327336976431783 3.7224992365670375 0.39111878399797156 -1.6328672514130396 1.0805688384475327
P 0.11697800737515646 5.402464539437534 3.708060538054601 0.549145469158822 0.8486411922321577 -0.5986623449420271
Ni 1.6154248660626713 1.249438409814193 2.869441288912766 -0.48377954215850233 0.2907316037274606 -1.0197648197862825
Ni 2.0410391465205686 6.402544443770893 4.616505624158719 -0.33048265837315344 0.16983936152506235 0.45744244692587027
Ni 5.923112369550332 5.710468892150869 9.375947998924966 -0.8478320660673011 0.31685992538339625 -0.2705852106865727
Ni 8.552464833796765 2.3188477071937275 10.33239266520352 0.13823021926021353 -0.02786330206917137 0.050287435400642434
Ni 2.114532849339222 5.331362132405259 7.079758501235641 0.8527261609348088 -0.3752720467737021 0.13118179705386437
Ni 0.546935717480025 -0.015059708026541654 9.421499910560643 -0.5327600858222631 0.3015832017299839 -0.5768511626042065
Ni 1.6662694517563386 1.2073770626362772 11.319178601592904 -2.3505451903600423 0.26738444436108794 0.6734541932419369
Ni 4.191777850693872 6.9744096471334105 1.4308086482126954 0.30460424794449475 0.15443948203022434 0.6472885905901626
Ni 5.600132867939022 8.02185175584415 8.052784939854956 -0.6232256361036879 -0.6241987986502346 -0.13252468423500402
Ni 5.409829366764406 3.088253945745911 4.929007976969097 0.5372620874576747 -1.257068642711906 -0.24119827288402332
Ni 0.6276224016545907 7.380820822264944 6.43244927966976 2.2383854429346353 -1.3687985016887458 0.3689268212819647
Ni 4.992389135401395 4.724054834079595 6.986511604135962 -0.5707478779199461 1.016374820268127 0.9661999991859489
Ni 8.078169953946183 7.249917835814349 9.462167395974102 1.3437284460939953 -0.7839715199679144 -1.4711386919205698
Ni 4.684712108347032 0.13199134426667708 10.690819717205624 -0.9635844159399727 1.7943448712369678 -0.7543984342964879
Ni 7.945575784924233 7.211275223296809 4.590063166341423 1.1352662299904126 -0.1286104367822624 0.3862244320201478
Ni 7.159866910079356 6.341816441652151 7.328850599999589 0.06801622013897318 0.1564714248585886 -2.0430443375940426
Ni 2.2379255303922903 4.9025655191518 2.5943995392958623 0.39499240802076485 1.1421179628049234 0.6763639106895641
Ni 2.206265865266155 5.155551884019576 11.451123574724559 0.7402072303977704 0.38529806355113644 0.11673322572870219
Ni 1.0098814893436907 3.4100514380331552 4.161171992342038 -0.004131762780186433 -0.08182432966665908 -0.5312338789857237
Ni 3.7342311337273624 2.8326671603651916 2.766826513300894 -0.22249015495155874 0.24761600348490906 0.006398961547808334
Ni 0.7912679556197537 3.4074873870378735 8.32113287974588 0.7383778904985154 -0.3991362549858094 -1.7668422949413252
Ni 4.176657223725243 2.594992362433779 7.144313485850532 -1.4854581938670355 -0.2154237350230806 -0.3074602293360511
Ni 4.125585328546179 7.013034074892119 6.148571555736495 0.18103111647582368 -0.14247716746202557 -0.478144455359912
Ni 0.9147661082740463 7.370573710663233 11.466694274474273 0.11165298299231739 0.4035644659604921 -0.6613306705055255
P 0.10236564441587669 5.869276391028836 8.064775060590692 0.6699963166003235 0.01782982909256929 0.4188530166884464
P 8.643825062167648 1.5355210357558138 8.10126459766255 -1.1920387588947663 -0.16547799923257306 0.2220738933497466
P 1.7192598389921563 3.408451179255958 10.252946181581281 0.5178386886257405 -1.2671370826915016 1.2820829053680565
P 3.9578309283229745 6.210986194236884 3.7083933191412224 0.5903733654603573 -0.20849409778278288 -0.5778592921537468
P 6.955679345536673 4.044708613641822 10.372381859112553 0.4615929787591341 0.6380904690306624 1.0825935821870454
P 6.239799944605845 7.8216102839679635 10.316117306049073 -0.6990664944934025 -1.6259193593402965 0.2349363511347115
P 2.561405112871474 8.619793903371445 5.872730585968934 -1.3333967251506842 -0.5580466283031937 -0.5057020532632065
P 7.056959359850293 4.07124926915681 1.3190533035740273 -1.0218330151692208 0.1116018180394078 2.510606389452418
Ni 5.249739842388798 2.9511954184307574 0.5789536223551465 -0.7968242075608665 0.2990195547678656 -1.4422816584795612
Ni 1.42435760501712 0.936724204563425 7.151060940615064 -0.3685193014309008 1.0246532582268353 -0.46461171098079984
Ni 6.821757689120003 0.5843699527731933 9.241380783569767 1.2349815810048796 0.17035666748111308 1.1275038124361743
Ni 2.8995779804867396 1.8817861210512228 9.16145513155231 -0.20319248306421137 -1.2040524955261909 0.12756605467814802
Ni 6.397279956089092 2.027427854534978 2.2261381697175278 2.017472659772525 -0.14990637004656118 2.1709379508149387
Ni 3.9678325456804555 6.809610270220371 10.424428457365 0.29530508203075595 0.4854947250773961 0.6288023588605169
Ni 8.119485726011996 7.093447078446266 0.23030542441483237 0.5625483728282892 0.4066719012412222 0.3129235664434675
Ni 7.5957373945183795 4.226183414403606 8.251121558243511 0.25750163802973713 -0.6439677537470457 0.09014930459258667
Ni 3.040518953812479 8.202617351011495 12.457632700542895 0.929630170481715 0.6124455147690484 -0.5077712770874093
Ni 0.07134608280062008 4.824007360998495 10.200421324171558 -0.6623166885678787 0.8306666100316082 0.4850509526717582
Ni 8.546663895729427 2.4801101485139854 5.900251399984955 0.33698806359183897 0.7107956100048727 0.8728049339625549
Ni 3.476689486772226 2.5303728219250354 11.511913405023328 1.1613279600744708 0.7489494953667747 0.487288069532393
Ni 1.023811014608837 3.3462047497747625 12.68609782736395 0.585953639126107 -0.29628081568046394 -0.4497569053561545
Ni 3.093454786771801 8.567094472276935 8.084829212630384 1.101320212062271 0.3591748841015234 -0.11721736445397234
Ni 5.913310784540001 8.0374997408189 3.576328326601277 -1.3879825308163645 0.29931368896951677 -0.07922417303965067
Ni 3.27715722049048 8.70003415171669 3.697415180234475 0.7880276923151589 -0.9057582489601239 -0.4301141914245624
Ni 3.3918484944425398 4.268208392063858 9.122304255025423 0.32112744241049856 1.0339146289241032 0.061090182443101236
Ni 7.28871501878196 6.069263276281378 11.471990585484031 0.039489316343873926 -0.752397344706059 -0.17411510608228079
Ni 0.6207494720541181 -0.2577989612926061 0.25267449625380944 -0.04555429159103122 0.36226123633633095 0.03664310514433044
Ni 4.779600179931279 0.4194341901689153 1.6583554447127464 -0.7185366874028722 -0.7968787149478858 -0.5944979291516923
Ni 6.058179665773405 5.729062808056368 0.20117889619396442 -0.767301258401085 -0.20825627074036393 0.8828312078503053
Ni 7.936274280781776 8.464887035262896 11.403589524376217 0.44034178268984164 2.345827473169398 1.3485855170759806
Ni 0.04412531730532309 5.074520598665147 5.903990186400771 -1.1307071498648205 -0.8154199682851827 -0.16131821142792863
Ni 8.09001732432509 -0.1130910151748627 2.5325859070748633 0.4259268928160923 0.4243934868907014 0.46952868866644293
P 8.52364199104839 1.8396065729409006 3.6497065562013487 0.4345693989824387 -0.6278651917582283 -0.5149369415979133
P 2.0218815030912842 3.0543393705246347 1.523761861457241 -1.9857470465344704 0.0060546908345121535 -0.48782620142405025
P 4.80795021895003 0.9407157591270014 8.49330708560315 0.08694185339888252 1.0822086880438007 -1.0291092371156598
P 8.489718323447697 1.5568244807272482 12.45773908138206 0.9779165162919288 -0.2684367968850022 -1.4016854822247538
P 6.489103895810183 7.745216112115641 1.4614154158024706 -1.3170761336137897 0.07267274507437807 -0.2628387339719344
P 1.83225993037286 3.214428894900242 6.204489689144229 -0.012165431717940338 0.6362405603061172 0.8054859970009225
P 6.841078995378772 4.14751614769731 6.151312908130386 1.4281601314765147 -0.22664094389513872 -0.20546919491353
P 2.483628899347935 8.714327372158472 10.285216854604164 0.3070174853716777 -1.0975504606071935 -0.0874157077115075
