# total energy = -340859.2668740848 ev
CRYSTAL
PRIMVEC
9.38061478761497 0.00000000000000 0.00000000000000
0.00000000000000 9.38061478761497 0.00000000000000
0.00000000000000 0.00000000000000 13.72947794875135
PRIMCOORD
 96 1
Ni 7.765319861666914 3.787179342757791 6.948653852999565 0.1868217550156718 0.15941662352984157 2.0945638456295734
Ni 5.06917168826772 6.306043276431876 6.717023959302108 -0.027802109813932763 -0.37200777420013353 -0.6559179841303865
Ni 3.7320682306150843 2.905889340445793 3.1403296663471583 -0.6902008165726564 -0.8973749099924352 -1.1949137664497163
Ni 6.191487208093709 2.843742767178486 13.18522804822565 0.07035335291258206 2.445036059750776 0.7904699832080644
Ni 0.4965206334075785 1.3124512018720347 0.2296327607995545 0.0635018772083874 -0.3754317122800179 -1.5275810911790144
Ni 0.7374514067117587 2.565054081110798 7.076859653980942 -1.1894506864526162 1.0737888394112216 -0.9947947801045061
Ni 1.2935023599097764 4.533791857915263 9.5471498259893 0.5955505387859228 -0.7081759129938384 0.4462982573835927
Ni 8.051044008859202 2.015800321420628 5.580154415563028 1.3511805314966665 0.3892603906329941 0.2045050312280478
Ni 0.55095540322084 2.5176913568199852 2.376476519188481 -0.527339171917008 0.585012101148444 0.13986389820889458
Ni 5.2168413269656755 2.9270144850492614 5.311563961362851 -1.1295234139693644 0.19385140816894356 1.4939762586403753
Ni 0.3576218695782927 8.220720569954908 11.234749638193232 0.9976908707053784 -0.45618594881094987 -1.0974167632428067
Ni 5.248463379567048 5.669606082485653 1.4513706030539526 -1.403827211158105 -0.7093707046328881 -0.4798570671756446
Ni 4.602805041240181 7.045038732345114 12.869490623875814 0.6070873357809288 1.5132093958383745 -0.8579023058191096
Ni 2.880899382531211 3.0619171069597737 10.698806032889323 -1.8872725099056402 0.31950687608794004 0.6952612618146994
Ni 8.56502665677804 5.999118939717457 3.7891577144260284 1.137626759802789 0.52967476202872 0.4409249088868213
Ni 3.1105180724085164 2.384374058816216 7.052736464876911 0.1610101932692066 -0.8102286538922304 0.22982859759450094
Ni 4.471485814195798 0.5673536560100597 11.338173730909315 0.6408559475909414 -0.2213053906148382 2.683569898428759
Ni 0.264004271608421 7.645172946888397 13.370507385972754 0.11704175810805649 -1.802426876914154 2.2946409229932545
Ni 6.695882867653424 3.0482683123780485 3.504545170091427 0.12810367234917291 -0.697185989641238 0.37795087915744585
Ni 3.280279059037718 9.062480661361482 5.75339279611075 1.8393499751927485 3.685179901682886 -0.1609294606299422
Ni 7.866968203995146 6.765815351231956 11.559767304797159 -1.7975986022875752 1.922855549216572 1.1538275379323677
Ni 2.996749975716305 4.930544962268586 5.262440495667922 0.6946886771406809 -0.8984185207656012 0.30307649844605866
Ni 3.7545441837544757 2.898150333208732 12.799525308145368 0.022942467728786293 -0.06437425251101171 0.9693745402591886
Ni 8.136098043548209 9.22566583699289 12.880062576792382 0.3887970778433304 1.1025332585337657 -0.7745849365466918
P 3.2557206094054445 1.8234226724295433 4.955915773145379 -0.404449953889239 -0.6135402904951239 -0.4520266752269376
P 4.244165374952529 7.5447909875625925 1.5801120371422814 0.11269402266232204 -0.4261518643427048 1.476190395411864
P 5.201504021714045 3.177298669403227 10.612790485179955 -0.5211980920162765 -0.4085372365847351 -0.4974395561440981
P 4.102949599259541 9.194400247755164 8.032430992907958 -0.7271591389645606 -0.013739461073279563 0.2130927728970588
P 1.5167609929304424 2.2089190389835043 8.903456726469905 1.1642926991297498 -1.1638959779119633 2.3289754346090663
P 5.4097630516170625 5.024079072766445 13.050747553982614 -0.5143658995857916 -0.3912478533766682 -0.27204816838534435
P 8.396588336840264 5.993593757580937 0.7002854107442007 0.2897234741779204 1.2362182816254579 0.5403690085177726
P 6.63498391615888 7.077899026104416 9.91603312367437 -1.3249066854018021 -0.2776521448356831 -1.0262748529906582
Ni 3.3359342468407265 5.395251240470719 11.257471363441244 -0.22998954865239749 0.5769861455201741 0.45653099085519444
Ni 2.577774194824076 7.243907766800498 6.285588845788953 -1.1504398524070574 -2.130320434403892 -0.034503947314140575
Ni 5.508024991990654 8.552531677820749 4.849704699762472 -1.0541265850956039 -3.0463204156966825 0.8122616251618592
Ni 3.9019417846222795 7.06414704475953 4.002897837575851 -0.5117356610517961 0.06830289814145656 -0.7910178852917344
Ni 6.270500126830393 7.721080882115423 0.7042290212199103 1.4154275144011947 0.7022605759506679 -0.5259962847358682
Ni 1.906619345381656 5.488241275308276 7.506962720187839 -0.017876366059788568 -1.3585999638891892 -1.3543293615382934
Ni 5.056085730575963 1.137174413721146 0.4544701512965811 -0.9381001556259392 -1.386200242104961 0.8939949377766088
Ni 3.409234371144234 0.39336482627571473 3.2305871280839207 0.5088915067347817 -1.2961581525141999 0.7623053478483903
Ni 8.01871841014537 1.2071913228331734 3.2162535486194006 1.9663043644288263 -1.1300641169641827 -0.11154628221112402
Ni 0.045069163964192874 5.2993344538053275 11.713482749754855 -0.2316743925539881 0.8041549368943248 -1.1008844100764332
Ni 4.855359334383685 4.6658052504572725 3.7368073172286156 1.8656155937574965 2.216794861248053 0.017466532215879595
Ni 6.578634562858243 1.5499683694385582 11.403676688163797 1.2983528461726734 -0.7985866987779279 -1.1650180073315484
Ni 8.456042673650556 9.121897475712444 5.124885035882692 -1.3828382676112636 0.0019332124669708642 0.14566713515423302
Ni 1.4557213322134055 3.98295277431835 12.535164573173299 2.041000824801453 -1.642895325073003 1.8895787894413134
Ni 0.35430957448083067 4.687258716579889 5.734006817497282 0.3078512941268827 0.47346041962068136 -0.22727086416965378
Ni 2.850599996621263 8.369769159033284 11.566083272764084 -2.514901417283346 2.226202013494566 2.138902262535632
Ni 1.1552977615781177 1.1756724569949617 11.333368041930472 1.1795262282500525 -1.3373235710089162 0.42896516542178376
Ni 6.828609186922726 4.470388282260361 11.458951961066079 0.5287080272400766 -0.04933509878970214 -0.6214412905097555
Ni 3.2372126563403283 5.425888328514648 -0.07506649407652424 -1.006073695452435 -1.113942528811972 1.2136591653780195
Ni 2.8397560058745452 5.274644675565396 2.6135574881652794 0.8453211267199893 0.40044031850921363 0.14973899123076145
Ni 1.1811976391314816 9.010418249039436 4.403977281490062 1.2692906386993947 -1.1499467148207227 0.741172165414201
Ni 2.571836265634913 8.226846111440729 0.6225182376573131 0.45647339814438165 1.7274745917769798 -3.6930775592634073
Ni 8.534961786238911 8.052366675550626 2.4651139487436184 0.9308658426610291 0.9518295893968898 -0.9932572604140572
Ni 7.557614288039032 6.432503344992868 7.330854809562764 -0.10018380601045328 -0.5336890253944356 1.6123660461358942
P 4.188163104400706 4.2100386981907985 7.014692443361002 0.8213293917910823 1.6936378457331929 -0.060065083612696545
P 2.278785858258207 3.7194231618204685 1.1561973625405833 -0.08333793809770809 -0.38400916953638387 -0.553788367247472
P 1.6947581593828434 6.3511358919331515 4.419533155067296 -1.4655285448226438 0.9051599532544927 -0.2863404166383004
P 8.049346117574466 8.39777967492403 8.237247337167338 0.4106655957816476 -0.5771375834963738 0.590216785277835
P 7.148825854855225 7.1796880776551415 5.435376820418026 -0.6073853266373217 0.2578273968002721 -1.7499982268007925
P 6.365141149878523 0.05263650594981353 2.0942119427465293 0.35782479783153215 -0.09977217239433141 0.9945975764920355
P 0.9321939087021929 0.28949703047804126 2.4366390924186505 -0.9136312239502975 0.000238598373367331 -0.6959179215620919
P 2.5432441516245357 6.220069941489254 9.313610977173367 1.2331216449780054 2.629750538615458 1.1409128867532288
Ni 3.9643791569494033 4.518595261886125 9.22088172342816 0.8185006640930355 -0.2470616736433358 -1.8339540009881576
Ni 8.373962293863547 0.20629379109554538 10.011206027583519 0.2703126737514764 1.017396576664422 -0.13708453569154455
Ni 0.9086166713814305 1.980623015797624 4.711187726956881 1.011120513847723 -0.030067765919657895 0.3837687713908036
Ni 6.267882935292042 9.133416870727125 7.253681429394793 -0.4184089871724923 -1.2627304689833736 -3.2469407671583435
Ni 6.384981150249897 0.9773287369702153 4.725576652048915 -1.5170503668510196 1.6125257116422103 -0.5615387006168523
Ni 5.558398893642796 2.72898970592883 7.930956191954133 -1.376302780485591 0.24596406970378284 0.4874716462981089
Ni 7.6779300538845385 1.4064168206522032 0.9551388925832243 -1.2382422540340223 0.6302992551210177 0.03427871867721193
Ni 0.37909503499205766 0.22777727518562643 7.615453282975117 -0.17585317181931004 -0.2128786000037237 -0.37610534130827483
Ni 2.021044085112164 9.042968982509256 9.421909237356573 0.7843710693991781 0.6976040510152631 -0.4820134513970151
Ni 4.359349944484494 7.761511332044797 10.296326063180578 1.9788104673156373 -1.5963370176974896 -2.8361183340838574
Ni 7.104605636533401 4.8529954194458185 2.293578149788051 1.5016579435553492 0.5750596179214226 -0.718224298368776
Ni 8.68696526898962 3.918329718735183 0.4491091299196352 -0.6173982307886334 -1.4637159170939373 -1.4031091020451576
Ni 0.5638265448329264 7.312967853199579 8.770047498440773 -0.06693867080407827 -0.8720127770785627 -0.41169712236995554
Ni 3.8660890747313137 1.5445745159096977 9.53240443753362 0.053142902571566536 -0.5928390533920306 -3.5197193859518094
Ni 2.437965511356009 1.448113653584004 1.3807186263177444 2.281964098856535 0.6585168552058143 -0.5154442202516348
Ni 1.6398440401516257 7.542145654179743 2.3488937593341124 -1.2958048829398394 -1.6221650345041867 2.9819248230294324
Ni 9.484458239000206 3.0066090019055784 10.777585374316672 -1.7843818464869847 0.031474673569513535 0.27208390671928623
Ni 6.471704934379144 7.268212939832284 3.0207183846755945 -1.1289883674015007 -0.4486528736586983 1.2580618598631108
Ni 5.961174352718777 0.07291927134129605 9.374638443091122 -0.16900915231428312 0.22444702156761348 1.9998215223496656
Ni 0.6599609617624387 4.89509561881543 2.006151421003609 -0.9588633563152196 1.490556177215233 0.5320933987725417
Ni 6.371876431328474 4.878144847812559 8.731563526089207 0.47244689075450247 0.7334272313614595 0.7434594187864808
Ni -0.060112855971556 7.205794328734826 5.996321640374316 1.8927636149271985 -0.6255604548844517 0.001306377516249363
Ni 7.000902939556784 4.872647807520536 5.1801734416457395 -0.6457091619181847 0.8046588731139368 -0.6735025299813691
Ni 7.620192369588648 2.674788513424905 9.218369594775938 0.18145483427680362 0.5645186091807827 1.4677456070786206
P 2.655708342854988 0.9074206429902484 12.993083976543904 0.5235694204619306 -0.2725330784415629 -0.7003263350424326
P 6.246907880525899 8.718784314502484 12.395507855665524 -2.1650418970454774 -0.3813349651383304 -0.8187462044449384
P 8.849700175109055 3.591490336730727 4.141867894077866 -0.6116245615296498 0.2033727173958175 -1.2526304044348944
P 1.955145265911736 6.72269266484557 12.325858666654941 -1.2946951948154282 -1.498126276253007 1.242230806368125
P 8.64435851641904 4.8445622467111304 9.46512948213722 -2.2317676805078013 -0.12989161748753114 0.1918220364437406
P 7.244555029223961 1.5814403322026063 7.523768091660802 1.2871160969165896 0.14024005060139075 -0.9341293439036493
P 8.261591908781423 2.281712610086041 12.711670221867285 1.044131421556105 -0.24935355500130602 -1.1152833591105824
P 5.671979378038351 3.0356701466575964 1.5419301205883311 -0.0582488563395642 0.4247536984435975 1.0315430433681332
