# total energy = -340896.6826976514 ev
CRYSTAL
PRIMVEC
8.98884943672889 0.00000000000000 0.00000000000000

0.00000000000000 8.98884943672889 0.00000000000000

0.00000000000000 0.00000000000000 13.15608975748426

PRIMCOORD
 96 1
Ni 6.392528258750137 1.9701221220809082 11.292095790894681 0.5491986909942607 0.22733488463836976 0.7522207099188787
Ni 4.578155933676611 0.30203163873180194 5.794376048783046 -0.5977873985362414 -0.8306141595271179 0.5278654767341231
Ni 2.7276933774618235 1.6598719781604496 4.642639244047239 -0.14947751003925872 -0.18760337037670272 0.8418660782918533
Ni 3.355960031356551 4.282036261326281 4.815904713383851 0.980116609267041 -0.4944267374597034 -0.4877120444436891
Ni 5.0786550793666345 4.224804255927424 2.8141400429434245 -0.4065204632650225 0.6026609245784589 -0.3870021907264367
Ni 7.166800796686586 6.076947727017284 2.4242459949181296 0.3104293392667041 -0.17198931798852962 1.0811005425812865
Ni 5.009485881699883 4.348607681458829 11.441588449695978 0.7398562748162548 0.7550674353390544 -0.3032986417591938
Ni 5.567540631374338 7.978943357984962 12.338873394399092 0.21014114646790263 0.11254335601707069 0.177470652818075
Ni 1.722668081461285 6.600656082372745 0.4642785762295708 1.2822903933931722 -0.5301948961982481 -0.5034860194484942
Ni 2.6998549102527365 1.6433145171985062 0.28632542182691373 -0.5699590634700636 -0.11325863691654042 0.20725174073524952
Ni 0.39525589681128814 -0.07431081963756134 4.884343117578179 1.2296851084926306 0.6343420577318237 -0.2796588908530668
Ni 8.493096566216348 2.4537671747722096 1.5902290681198141 0.5236478391083498 -0.2718692196053189 -0.647917225313097
Ni 6.810347965825634 0.46634151721261424 4.735732264922575 -0.12370374350926439 0.1420868740021424 -0.49216031002302985
Ni 0.8589492989319433 7.423018965665545 2.5790537604875023 -0.22959899808219814 -0.5316964204444391 0.678678931975986
Ni 7.414030116066226 3.753213250548808 3.7566290133965485 1.0090155516895785 0.13749565508703418 0.8535725680955043
Ni 7.758761487049669 3.84991529453827 12.540897789143763 -0.20469477864135072 -0.2047639413163893 0.2670054637551143
Ni 7.906762895702439 8.597762730950807 7.011617297203962 -0.7678417042855873 1.0578467142596684 0.03408794282264452
Ni 6.921737790060383 0.7803274270265491 0.405524758593549 -0.2450744680099779 0.33616016837390494 -0.7609963992289797
Ni 1.7924035766527933 6.49515395462555 9.232865404965814 0.7933028246711693 -0.16378981289687278 -1.172849330450509
Ni 0.09589844083528327 4.790068062980532 1.5343022436827778 0.3295182375773551 0.22593646162894637 -0.7051288986373985
Ni 6.29142167845701 1.7880799399955212 6.9065924773704905 0.45615381002143374 0.07969288514595307 0.2458100606244218
Ni 3.484959011956363 4.442334416230918 0.5416599868902592 0.19757642242901458 -0.008206704180508447 -0.423540909082419
Ni 5.924326049670465 5.547666284910246 4.797460492891011 0.4079332844521491 -0.17641058698467685 0.21994244882904057
Ni 5.134260102988016 2.827442641465455 9.151047098142902 0.20214604407756798 0.4622018159877265 0.2923002337661611
P 0.20609724249812145 5.649195341134542 12.504652949789394 -1.1407084840519064 -1.338968819921823 -0.08711591708290158
P 3.9313722496072896 6.243852686377419 12.479551587283298 0.2942421879838803 -0.301045584058959 0.32076645952665406
P 2.3806338944321586 8.451487181421106 1.436539515440596 0.34075575816438736 1.3735180186516023 0.2710631787642558
P 6.210692820205536 7.6206478129561495 5.813860279174527 -0.3242510756411448 -0.2092875402183557 0.6126154646880094
P 4.674938877312468 1.316111402933734 12.353897357619392 -0.016150127397301216 -1.135379101419193 0.2584963978428387
P 4.04654637952335 6.083284865984803 8.146698662517192 -0.03547479586784213 1.7782878177741053 0.2858508785963916
P 4.8013310915284775 0.8499460671732665 3.488915903549983 -0.42826145448653985 -0.4319990671521011 1.4016073206886508
P 0.12186992398259257 5.559882131515719 3.609373679260522 0.04406305175748541 -0.12870659604049445 0.5567137684243831
Ni 1.36439950298127 1.1760381596275629 2.6020508333023975 0.3449584833918253 -0.2829059370354547 -0.17860399509156982
Ni 1.7911451377088887 6.56737936115607 4.781212248355284 -0.24083086224227557 -0.8539224952357551 -0.41573529699507117
Ni 6.093046756649663 5.442290001057442 9.111434136843668 -0.436105633121307 0.26205660439027123 0.0617013336645389
Ni 8.665502701531265 2.2730193870291244 10.213204623311746 0.5641182884185704 0.7376420407737554 -0.3411491369480641
Ni 2.4665223523536413 5.1476265223422 6.84611369949636 -1.513860142048496 0.10854169105684532 1.2231835599286869
Ni 0.753089414970696 8.963393177252662 9.252112329727874 -0.6985000804669712 0.06896058633011348 -0.48776938004418574
Ni 1.5184953516623774 0.9996050196921504 11.370019229186209 -0.5124362866632465 0.9532411250324357 -0.05178176055798178
Ni 4.012011219362771 6.9126860185138685 1.672086026996003 -0.08678733009888924 0.3803350631189063 -0.83505702578982
Ni 5.700818304383425 7.899176306640614 8.20601877767797 -0.5818972096685462 -0.47423175056906713 -0.6287043998300721
Ni 5.283133430051919 2.504994628638722 4.778673797228437 -0.5939484844061255 1.3040475825646056 0.2723865255613696
Ni 0.843362633726726 7.3788207921856985 6.909144411771737 0.6070765371476512 -0.44407785269350614 0.5441752696377403
Ni 4.964379834410506 4.573553642681761 7.004355205612672 0.5970757171811976 -0.45788647644182434 -0.47648532248993425
Ni 8.184886891154935 7.105631675163228 9.042430334009545 -0.14956698442927144 -0.024330092104932293 0.6819853706413996
Ni 4.673177062791002 0.28794970694951055 10.328635834326349 -0.6551505098367426 0.14672180167099247 -0.06102436220217232
Ni 7.976435468946752 7.1502882799726395 4.629233273754816 0.10971025744364975 -0.7648342849178312 -0.20426951817847402
Ni 7.292788512670627 6.109846916550788 7.022154925589243 -0.1976486704278467 -0.5051700920191365 -0.5302653444248674
Ni 2.3059635208106246 5.199042742050299 2.6321122430173967 -0.14586073922227782 -0.059760922108716426 -0.28432852841459416
Ni 2.339905416897649 5.310585376728236 11.313987235208861 0.39985899208444686 0.3109088500062839 0.6981249565157396
Ni 1.0088905013282459 3.509786214549679 3.8883354354956747 -0.15004366695537386 -0.8382626772113111 -0.8225712346179834
Ni 3.64103240754932 2.365011273828544 2.43807354225676 -0.024653022661989803 1.1828226396131372 0.2535724781786601
Ni 0.8682491627273977 3.237019573458377 7.963223657805675 1.7470496856954298 0.9036016076284373 0.401696816624134
Ni 3.5655800040126455 2.6861469146137766 7.122154978496694 -0.13076193590762641 -0.2463739035476918 -0.5834100467686468
Ni 4.029925996614211 6.724261753212967 5.8457769874468255 0.342966392662461 0.9792876856078425 0.24670917539992349
Ni 0.6954160570565121 7.211592234239989 11.194819359415824 -0.28768330381944 0.9162468071962737 0.3887705954807692
P 0.34763117386418196 5.465975619751644 7.883300200478299 -0.49732437072247254 0.09292661022740771 0.43745906182540795
P 8.533366612421291 1.5763925319315841 7.9277410728973265 -1.4908724229040713 -1.3973045795482386 0.9059127722601172
P 1.7602954058840297 3.2444893074754098 10.197535260690216 -1.762766067989422 0.12817874856148248 -0.47523730901544603
P 4.062438665614944 5.973009659100372 3.616451499435025 -0.19973717752575923 0.6170940692846534 0.993956857584243
P 6.980165312455949 3.7660583166262334 10.242989176459087 -0.8251752478997336 1.106866595801797 0.3660795816411566
P 6.472582953281664 7.780954956710385 10.296929465134674 0.441888044131039 0.26623027615198663 -0.1732069924457146
P 2.4188454940788593 8.454183836300901 5.758775709944947 0.025828788137645838 0.4014011397605861 0.5177687546197535
P 6.885962168655096 4.009449397226965 1.605411235093062 0.07999858931182996 0.9258928149264699 -0.9694676141936273
Ni 5.452896843584637 3.0189770487277214 0.31375309860931255 -0.3256086181103038 0.05212114617527152 0.08265608153933507
Ni 1.4601756954620027 0.9806385470375896 7.125496133892761 0.5161134784045176 0.2387806645814662 -1.3919001207032156
Ni 6.793035441497348 0.9310650414973513 9.225471177285415 0.8022615765263539 -0.8648609965251299 -0.8660231351540311
Ni 2.7652218245389766 1.5369854152881743 9.137706746452556 -0.12543820970186784 0.13256427922368783 0.5576753610067041
Ni 6.2562662876740776 2.0456823918127744 2.522785359765692 0.6494213206624493 -0.7450776711161942 -0.4226222539228915
Ni 4.383169808168207 6.787534265542566 10.326411992935476 -0.6299914940726118 -0.028347183684125372 -0.0010459247660111017
Ni 7.881207596291578 7.225066519789365 0.2852665353441141 0.7610439646374634 -0.1259927966537572 -0.6953561355213509
Ni 7.573546241055723 3.7799910335051763 8.049579535906322 -0.2592841838514567 -0.17359959989844295 0.2233797566453637
Ni 3.1421422659375757 8.510768644528607 12.412165777377052 0.6171354640455501 -1.0260473103608845 0.5718138572906152
Ni 0.050175758463392686 4.913377101783976 10.357118802051707 0.1358630045796176 -0.9986210958291317 -0.946255694853538
Ni 8.450390541769988 2.0724242193707454 5.731674328403003 0.5204704698216326 1.174504606665745 0.10793233960762057
Ni 3.3915918311682476 2.6974369097105195 11.315026346222542 1.0882525802450356 0.14579286209881986 0.2557599727482821
Ni 1.3033382476531035 3.5563035112261496 12.485655915046195 -1.1817072950617713 -0.6392693198301119 0.4938695794046526
Ni 3.1273556083466976 8.34111309719108 8.099507202120774 0.5257062642992754 -0.90426289536152 -0.5314112851038526
Ni 5.564736110299351 7.701349704658825 3.5092684568127583 -0.3587159421872338 -0.08303197682151506 0.7078794647993422
Ni 3.121962298587107 8.40648900032692 3.6706542625189127 0.01430664643065923 -0.4643152627863036 -0.8071633847033453
Ni 3.3271597572403366 4.460734591360722 9.324167847000968 0.5720763669233825 -0.6854522461440775 -0.5140316561748244
Ni 7.029253420117824 5.915337200071146 11.353363789763632 0.1986603995218127 0.5433574017221352 0.05585464507577478
Ni 0.5531351522887483 8.908615127794418 0.31318590219959563 0.37017354920487217 0.7005068264843549 -0.09325802542489744
Ni 4.595234747915316 0.5420267319539113 1.2327595983691788 0.1269127373648653 -1.6101237870689367 0.39338958231001925
Ni 5.866078304266885 5.824046443540475 0.39537634739591904 -0.5181734462573399 -1.342114050419024 -0.20815625482738992
Ni 8.137704419608115 8.983501233806336 11.355718868358654 -0.9383598370452291 -0.21274053176396265 -0.47548387780861334
Ni -0.050830146714223035 4.644412744073184 5.813557354943031 -0.01972216101927571 0.09385375002736739 0.0579835184933195
Ni 8.059896937476418 8.810429923621069 2.2612421962840976 -0.843224906312593 0.08403470705441657 1.0413572012450776
P 8.38314495791749 1.5045176905354378 3.595151521424482 0.2653890111976139 0.5847994709170058 0.14798344199223545
P 1.8791729418350092 3.2227722468434576 1.4902038464334841 -1.1924789317559785 0.5249711859054637 1.0654525516313844
P 4.671693902607114 0.9753351257739921 8.045593879993984 -0.11831188306973171 -0.1915746963196249 0.5785663455231003
P 8.651668861997916 1.788178817341114 12.52091377871456 -0.0294733268687686 -0.3597307566049934 -0.15259394418105335
P 6.161308080506883 7.874996301218449 1.458510061631249 0.3911002720552103 -0.15406101564488306 -0.8548761173982761
P 1.806902591056493 3.196992226192614 5.922279288616701 -0.5338011254922677 -0.5456279429238667 -0.07228245161449487
P 6.711803207668312 3.7664897814070004 6.024371046825913 0.6749968551387086 0.559308782845069 -1.1736746545652819
P 2.4973451176297026 8.289319345799811 10.382075444079252 0.10491926381290964 0.1813483906059264 -1.2452541665754813
