# total energy = -340854.7410674684 ev
CRYSTAL
PRIMVEC
9.37941315818382 0.00000000000000 0.00000000000000
0.00000000000000 9.37941315818382 0.00000000000000
0.00000000000000 0.00000000000000 13.72771924260932
PRIMCOORD
 96 1
Ni 7.82130497194645 5.935724044558477 3.891067333538916 -1.3151280087484836 1.9502642802468284 1.4520618777947767
Ni 0.255166932606374 7.829399405427035 2.071677862136845 2.7754523836623686 0.48290331020113597 2.582558454310688
Ni 3.5026480173690246 4.907149468913824 11.326068046963066 0.9951079404695508 -0.7251356807766285 -2.083994040533527
Ni 7.245652874104745 8.258535691681011 2.869971901877366 0.11594312572723901 0.7963637229846801 2.5075981987537133
Ni 1.1144431023129626 3.590429944303892 1.0187064951522744 -0.5562211450586808 -1.3680719079353663 1.03359272680831
Ni 4.114354579057042 0.6927868979833964 10.354543751324966 -0.4449247740748337 -0.38404902163538374 -0.1801356012447478
Ni 3.351480016897901 2.655471290524492 2.316813512463398 -1.6267811931199598 -0.7814999184989703 -0.42478300901963617
Ni 2.1732193880473982 3.4598685143505477 6.39934092914539 -1.6037708482677155 -0.06455705794577915 -0.8799364028010135
Ni 8.556238262566007 1.4035728896507347 4.453683923094045 -0.49415240075239414 -2.1916206759752703 -1.6784354269611415
Ni 2.9006303893837235 8.237882224097875 8.468218098539127 0.030230516749767292 -3.713140905672186 0.9032573369151412
Ni 2.6683867423237557 7.716640101483134 11.269112499028536 -0.9626475059480002 -1.0955794529237517 -2.160535267424376
Ni 1.5664932947002739 3.9867289053950334 12.514820487275193 1.7353930752931082 1.7708215913040473 0.21726104534213553
Ni 0.843523445453238 7.283245561694759 9.110469656835338 2.9131866371227697 -2.1267334883835827 -0.43271511938251933
Ni 2.0275195853968775 8.762613488375163 4.959372165012547 0.22711736931092497 -2.2731465005649047 -0.605010655757558
Ni 7.223358009234119 3.312621108543252 4.62959106348219 -0.05831930456618343 0.6761011439464808 -0.45348654760191576
Ni 8.000545555740159 7.019337016105877 8.584409329725839 -1.0130287866140295 -1.7590629081062223 -0.81537831641397
Ni 1.6890822235429612 6.018947576740663 5.004852001054269 -0.20890753117111766 -0.44512969099678823 0.48877313871835176
Ni 3.269466429001921 5.914620365147916 13.204253307144272 -1.2351229916787503 2.7947953069653546 -0.5918743754859161
Ni 8.718764732266548 3.5456244880620007 9.123908479883985 0.7838743322684177 -1.2764208219862727 1.6446501029805802
Ni 3.9354797923731173 6.7265023606049175 6.326611084307444 -0.4548569455868812 0.17153783227340777 0.062050232363525394
Ni 2.8622216928565005 0.8369700495402781 8.103966716030211 -0.7302976845935422 4.764318949662427 0.6511920394096269
Ni 4.917654411553748 4.075298703027895 8.578657873630481 3.0057504646941204 1.4878971423258311 1.1082562770604718
Ni 7.106678110626389 1.3521080501281773 1.9843967958599884 2.271864034308055 -0.04326575266717065 1.1715457811477372
Ni 0.6097453264147953 6.216834433720236 11.952917671054797 -0.34652659920989354 1.0830972612963412 2.290400402549346
P 5.241872583191482 1.158967176162713 8.504184395902568 -2.020014966578405 1.0247800136126868 -0.20130220802003398
P 5.835852054174627 5.222982445265761 4.684940855898905 -0.6759831303113777 -0.49714696460434377 0.3007447649890885
P 2.147350966796585 1.7668563167306859 10.867232787159933 0.580961071007522 -1.507923464849087 0.38495610683068543
P 0.665457164176065 5.290729945880201 10.195357290619135 -0.2098333854194967 -0.9936655515960692 -2.173986250722959
P 3.042606565044914 3.880478914122657 8.204055370856011 -1.4669969018380542 -0.35036808444317075 -2.1328064340505395
P 9.12622519491261 4.341908519581329 4.575215792083589 -0.22112207095943853 1.9715285889422434 1.5116474506678934
P 6.224356723003467 1.0559999794653128 4.117862479545731 -0.15207046757741552 -0.47076384662512477 -0.9857383263291926
P 2.713370407414003 1.825374474882907 4.492162965219302 0.6443349072784774 -0.5112597498566421 -0.5504598170948714
Ni 8.170978870659857 6.3816963772755475 1.2273168350963344 -1.369764979367073 0.16551939399346977 -1.0364751905624279
Ni 5.554666629708297 6.887087291799688 12.72817681023336 0.7963084442667125 -0.40524699586923757 1.1470105150105343
Ni 9.07603595556776 2.5188976567924053 6.277864398692968 -0.27880014239719725 2.624963144529144 0.6245469260182728
Ni 3.9731568946807743 1.8204409036073712 6.284097018678886 0.4421328131519934 0.9555396912586253 -0.774497261928892
Ni 5.080828060756214 5.157570418506089 2.195624929992265 1.1233327117776202 0.2961334914693223 1.8537769492513556
Ni 3.755967205600341 2.091468423717416 12.475737410948138 -0.8406352912085457 0.2046047900307057 -0.3676225006482443
Ni 0.47202459046408146 5.52994249685219 2.8184104544001736 0.6241556041171251 -0.8776797455563531 1.6725601991272872
Ni 4.900949676873655 8.507737317574 4.423332142395121 0.6396580706280984 0.40514955105942485 0.13295508690420327
Ni 0.9850072019281819 5.805744138215558 0.7094250388306838 1.2184177631089275 1.9242321178491246 -2.822917262012551
Ni 5.288882201505142 9.20671931789103 1.818414950383957 0.06765729413765768 0.8342921225993374 -0.41349818013443623
Ni 3.0594895085733635 5.94869577283617 8.873528799709232 -0.29176801541177494 -0.8636780319606222 1.2844025546401687
Ni 3.925668926300474 7.388379402811643 1.3027713994315115 -0.5535528541978982 -0.764062182638497 0.6337864423386699
Ni 7.851516061449304 3.900850999313653 11.476098324628635 0.29879072658651123 0.9074844876226112 0.9243172429092339
Ni 8.270306855085568 8.93345949747 0.8251332302442206 -0.4915951815481791 0.6133808820991243 -1.5854368258452178
Ni 6.566283226519929 5.954042038286845 6.876173406749852 -0.8591112385255462 -0.044420435096904146 -0.97431620053518
Ni 7.305399735369313 1.1803991350307725 8.321948965515176 1.3217383149761495 -0.06804655915627636 1.0701995793980665
Ni 6.165482147154535 4.713239483076508 0.30362191847433173 2.283690080408706 2.0741695982439374 0.8824352579634674
Ni 5.476142183474863 3.6844960779965703 12.381702229318597 -0.8973581978218867 -1.3178171255448723 -1.7092927786616305
Ni 2.7752276366196282 4.987446624217745 2.323691436068627 -1.2876994802238857 2.6567792605984764 -1.658353311499286
Ni 0.9955402828073202 0.1578217561039475 9.468502488477942 1.1506090309950698 1.9724824682150806 -0.6110954284990572
Ni 6.125704056318893 0.15407561852324597 11.597163098847226 -0.8667756970493394 0.9615825550185955 2.1544864901271352
Ni 8.016124760851689 1.030019005257643 10.751302303656605 1.0127284817647912 0.24853260176190745 -0.5748359319463906
Ni 4.287001435461582 4.442840383642244 6.437009589981284 1.1311506651601424 0.08627670901105787 -1.8233744257000986
Ni 5.505162087517655 2.5734014261500837 1.3472232518006124 -0.8805506393462449 1.8713699797427708 -1.2971269441853726
P -0.41429055124462644 8.571930020634394 4.203935477418995 1.8397304984606184 -0.5416887557704607 -0.04761863031922767
P 4.707968252930404 7.9698842544098785 11.149282993511441 0.8829299382116987 -0.3598814232502447 -2.042917325097875
P 3.74238581547301 4.378666439407993 0.5805247029322775 1.496612667821958 -2.958910107301814 0.5523256666590164
P 8.2876212516153 4.764094660749428 7.590632376575935 0.2527492109464163 2.9257909561503417 -1.2265833296388553
P 2.143439751545827 7.087741075635312 3.1734090459141924 0.8642647577020277 0.6251989577799749 -0.859468621864965
P 6.358801229968355 7.430708694002696 1.2479665509142426 -2.4103156255504556 -1.4218439594504997 -2.1202311684886905
P 5.902202022241434 4.808571837533822 10.650060918964336 -1.0562274334886905 1.3470192010301252 -0.6046890107520813
P 6.5228002675211005 8.432655115937756 7.562806471817129 -0.0561642058963936 -0.8743074866500103 -0.5785943705475585
Ni 0.973161003219053 9.510349677837125 11.76626172328687 0.25688508749166084 -0.6499270566542742 1.3780781272184588
Ni 4.243199576418327 8.981200710003227 6.850625761426079 2.3290232571278664 -0.17553409791699448 -1.03036110724489
Ni 5.16915399364922 3.04134034428028 3.7190038766274145 -0.42833781625043005 0.0826591668631286 0.6378428717962306
Ni 0.902297661582307 1.4088628786229822 0.04300273304957558 -0.05703992363312757 -0.5515281104583856 0.6986260645218741
Ni 8.848866570979396 6.819986970687172 5.9687714685741105 0.718288318837492 -0.2451328320517391 0.319198857929218
Ni 7.385734408325519 6.374052155622388 10.959222318798613 0.12825279633252748 -0.27609071388583417 0.07082515034267801
Ni 0.9367960808000796 2.9252888663483314 3.7796258371315417 1.2306217613742871 -0.1710053568087055 -0.16368979698389874
Ni 7.29048646858585 8.613424544062093 5.508316384133553 -0.5814485521669018 -0.6462501220233192 -0.20524679449007877
Ni 8.344310424218607 8.23578123556989 12.212054909214277 -0.9398901576468264 0.16735284765778274 0.8315289580319034
Ni 7.626297594779785 4.460370506672618 2.2998461542173065 -0.3257294599588842 -3.378531369614852 -1.0317947543676231
Ni 3.296554173952011 0.12766975690344354 2.913612435015794 -0.6930655397149613 0.06813860464945039 0.10022082989597579
Ni 6.400914794658766 1.2540462864670987 6.226248550619961 -1.1646577957786524 -0.23190476339723934 -0.6276299358189706
Ni 1.3524550884118174 1.1240007242326795 6.142604820732178 1.0402014903740795 -0.39128744836535195 0.6782577852781673
Ni 7.030451620595439 3.3374859325954302 6.822676048414731 -2.4268552750766914 0.939317058752176 2.182121221125268
Ni 1.1301442397944208 5.542163872084173 7.66208568329487 -1.9977286443763789 -4.351205920781551 0.04079955051486522
Ni 6.347470898978151 2.9405866890677212 9.8742934155973 0.6688313497579448 -2.831365907000537 0.0866016964506444
Ni 1.209569109682705 1.0745712173466073 2.320272640004116 0.086204975232858 -1.0691477410947845 0.143761690601404
Ni 2.9546182910224768 4.14631961880424 4.212391956244135 1.3729127809674355 -0.9634185797860697 2.5418954293736866
Ni 6.446198600967295 8.31310511693019 9.737579090669145 1.323641188425817 2.1932772377420875 0.4870016486402258
Ni 5.161097077820921 6.779993153350889 8.915563577329845 -0.34629391437379714 -1.2199388277391443 -0.7383748051747219
Ni 0.2825735776008907 2.472366388545384 11.878842818382417 -1.209053291174892 -1.435350992797999 -1.475630409143336
Ni 1.944108464953265 3.5488603855716203 9.829897839706629 -1.7447920000095047 0.9810879720413748 1.3224841920032384
Ni 3.919544169564875 8.910902009033379 12.932664898132558 0.024883907725873275 0.7339771903276585 1.4007979374134778
Ni 8.973453314806283 8.852618336207941 7.4893215842269365 0.5301169917724612 0.7622595822121194 -0.7623783671781709
P 8.996151494438978 2.4379814602257746 2.118585244848028 -0.948630879953934 0.09630092601627932 -0.6100302204593365
P 1.6345315571199261 7.245202662277319 6.838929633326092 1.328537854396486 3.299777708453717 -1.244775941387482
P 3.9660472995726828 1.2793238046944164 0.7070201573191868 -0.8593472657957523 -1.5124465495304211 0.4942310765091295
P 8.917852154119256 8.23985190084286 10.197636487995476 -3.486124837825815 1.1826197795737117 2.366084423646222
P 0.087334528931363 1.6066747002979842 8.171163645097362 0.7481082304124019 -0.038156970685695575 -0.09580007512046082
P 8.533905880043097 4.800177262834953 13.510039056214165 0.390091885395354 -0.5112391810313518 -0.6625614575888331
P 1.9036644357895567 7.803587260654649 13.232491906078216 -0.7645146967948834 0.10180977164965045 1.2082431365687707
P 7.058252200938954 0.8160623998629075 13.383620513014442 0.20806163823105459 0.44209733192836764 -0.10415281796053029
