# total energy = -381162.1839000123 ev
CRYSTAL
PRIMVEC
9.39067207618785 0.00000000000000 0.00000000000000

0.00000000000000 9.39067207618785 0.00000000000000

0.00000000000000 0.00000000000000 13.74419780719005

PRIMCOORD
 96 1
Ni 0.3287148335537258 7.630963239162125 11.103772669625279 -0.6228409990707595 -0.2256464411923533 -0.829170742212372
Ni 1.1443942244696323 2.0046079375463295 9.850301096332547 0.3395123726755895 0.8080059352092986 0.047072270897454416
Ni 0.9540546968302365 2.042649549193041 2.6436281315675774 -0.2888824663338637 1.1503074405942513 -0.5675702515229128
Ni 4.331381654101232 3.4540675275936135 12.975814370860995 -0.43844713677029 -0.40839736857276115 0.6976500737618501
Ni 1.3029557185833627 5.72441269702803 6.761801154883711 -0.8583581624096056 -0.6797968476305131 1.1368086347768682
Ni 7.758347702748312 9.307949417357563 6.892604762088897 0.292907785443173 1.5225113899655907 0.8225671208529252
Ni 4.9464424879754985 9.187861505795443 9.497790300321956 0.48224947866722107 -0.5991392845784456 -0.03093628456754027
Ni 0.7564674486603711 8.276205692348299 13.282144659936256 0.826849550278363 0.42274643820558166 -0.04253298826620417
Ni 6.513698665654564 7.043567324545131 3.782595486777611 0.8975715993842736 -0.19076659859603276 -0.3716290507044761
Ni 9.260085162960305 3.5664456975704573 6.393195686396868 -0.16620099344152667 0.9112442117753597 2.3258883110433106
Ni 0.28800251483411277 5.010533823322031 2.3044896522651848 1.2602552679700039 2.7122245860509744 0.7073994398391301
Ni 8.431799734158805 6.367110278144032 13.613311397908879 -0.05535045174584661 0.10120530529643215 0.595159216884775
Ni 5.0129660073300535 8.671646883768444 0.3513632559110545 -0.9917467373068017 0.12373176853372239 1.9060078815316142
Ni 2.470244401012679 7.5244730204325005 5.927501000765074 -0.6831809336113976 1.7085379027734768 -0.9741285100044063
Ni 0.6864590509838967 0.17873077910380844 8.545165802813809 -2.079985690705082 -1.2025021203199355 -0.10237721411734628
Ni 3.474276253405443 0.45716889466313093 5.812709428123899 -1.137564539106286 0.6230022072389723 0.30569311013329936
Ni 9.054814467086333 3.8119178596156402 4.296161000276952 -0.6533435385349908 -0.3713410871504121 -2.144679531339042
Ni 3.636509500210821 5.095622700915429 7.228966419726532 -3.1864871898579765 0.7085101564048056 0.8988409530150003
Ni 7.003487937107915 3.902453326879512 8.593284544418085 1.3148971236845999 0.37042114643930396 -0.42951923815304094
Ni 2.868324371221453 0.4025978224337138 8.431721791582484 1.3793351395540114 0.01622828893340431 -0.5884951746010382
Ni 2.0466218033837493 3.741534774132524 11.760840795866672 0.3591617714754008 -0.7830222686807676 -0.1588131856178878
Ni 0.13681269811921448 1.9581147212385372 0.21439279450483317 0.9089068218914348 -1.4759106593879163 -1.344011267441737
Ni 1.5483715365974715 7.276718925128827 2.791844861576144 -0.3021007647963507 -0.4554891798542413 -0.28219605545262366
Ni 4.88751602214407 9.177794705576911 11.905224253627846 0.23308232864510825 -0.0595745171295232 -1.2606923555074223
P 8.806572056846685 0.7746477893535415 11.582785206068566 0.9583465645798013 -0.8028722135271592 0.2085010397613183
Ni 5.887143649441226 3.411649862866831 10.760305090602044 0.3716326502489019 1.5979799526175513 0.6811119668975109
P 5.499252558184979 4.57692894152118 6.910884643903632 4.0704363133628085 -1.9854161455576127 1.3975565476580447
Ni 5.263687554936952 5.149243437154067 9.074249401538081 -0.8124608856568589 1.7604793288377745 -0.0445819003754329
P 6.623137555343721 7.590132597977257 6.4145820024581415 0.06190985013091919 0.007613293570883662 -1.299045244254008
P 2.9548124589198514 8.120987277411619 13.489627798097063 -0.8491687826008536 -0.3180434041685361 -0.17130026234130497
P 6.100321291009234 7.268417571217276 12.995921677416893 0.9136399657010459 -1.1644724192407236 -0.2679799118532417
Ni 1.4666445195248154 6.183851317076253 0.5770558458477534 0.3014371630704228 0.2584352055876001 -0.1132871761616307
Ni 4.8180344411581375 8.267763478359061 4.836692767048251 -0.001610796130545613 0.9913744415690476 -0.6006960875426042
Ni 1.1646311222969992 0.9918897136963436 6.326467450396077 0.06012961830204483 -0.014542159480233019 1.6943562119564561
Ni 1.1294630562350554 0.31499224478568355 4.117761711889296 -0.043451386315415494 -0.335464427858461 0.14995676366852237
Ni 4.682799375908991 5.159573176184277 3.4884420818846 -0.37697900216247976 2.4238337146415483 -0.37828640811999364
Ni 0.3468454036861143 6.283401829311945 4.639986363897507 -0.5950370894846139 -0.5254753792353918 -0.720143883988992
Ni 0.34785677904389034 4.277272602926621 9.086275095903616 1.236808092690657 2.1377185266401764 -1.6721807043006813
Ni 5.493449122984369 1.5540622837359328 13.634518352137901 0.8301655020254735 0.028247681991783607 0.7264063199589361
Ni 4.091938303380954 6.243369395233956 0.37267256846319413 0.30749031124303816 -0.1061881032230042 -0.7774771704928223
Ni 2.739240196031205 5.635013501057481 4.724444188342877 -0.0983783773705983 -0.9429803665363761 -0.3813956431729367
Ni 4.927895911080348 0.6791484129520614 2.6187644497218607 0.1850150408242362 -0.599425962580929 -0.24538222905838383
Ni 8.019427161400957 5.851327627021933 7.329299174926967 0.11764571024064256 -0.8430678119094384 -1.4662314844269393
Ni 3.673612044672968 3.7940380204215303 9.665648559562873 -1.5474762874410444 -2.095278355198095 0.6631047316868128
Ni -0.01047247724226426 4.144854739231168 12.998259015639272 0.7550890326056092 1.3461257426815785 0.2052938456779303
Ni 8.601648815831 1.5668993321489308 5.318811737738078 -1.3666547158728655 -0.02162786268242082 -1.4475691321307458
Ni 5.465765422383405 4.196550387741448 1.3323503995946033 -0.7747068068365367 -0.273231132949852 -2.1451297315025832
Ni 8.44729434270412 8.75059426197479 3.883133897691464 -0.6719231013093913 -0.6387342732622483 -0.22602336491579786
Ni 4.278615469000547 7.406112992489981 7.2837102803179095 -0.2368204555313018 0.9788392852165141 1.9669165440915286
Ni 6.421745206941999 1.5931838226448936 8.926705043633662 -0.038616683930933496 -0.2078412946901324 -0.23359063574009448
Ni 7.001459551989256 8.762811526045974 1.6658929775441755 -1.3720869426320306 -1.29583805017062 2.312366879518108
Ni 7.420433767054591 2.9049010380602436 13.051393315076307 -0.5625383455259603 0.25955774922781755 0.07106529137794212
Ni 5.335347771791077 1.5191008124545933 4.886035113194013 0.8855141539991073 -1.4576121181890445 0.39319417846976157
Ni 6.396784801176273 5.1253911306661255 12.733091797532216 -0.004368561381340863 -0.1733103507927983 0.7603106860158648
Ni 3.2476887324418544 1.0284663805351342 13.116967437507267 1.5525706712448164 0.6188845855261729 2.764608756079645
Ni 8.491599532471877 3.5776863317696956 1.4469475853285734 -1.7896448946581371 -0.021947450805368654 -0.6955435689418086
P 2.8389973030475013 8.591891907783374 3.781619795972848 2.090618744938896 0.6587613671164526 0.45979449209781453
Ni 4.125124937683466 7.246002037521719 2.5606540332738197 0.10694657865558355 0.861675913928929 0.11891763497453067
P 8.81907104107324 7.086003770615605 2.214726098227025 -1.098384783583031 0.49753057319600774 0.003719100722800046
Ni 6.561553529379975 2.560319725356115 6.613253873226179 0.40584863400897847 -0.12013402388013504 0.7157015319469222
P 1.475039780154823 2.941674909007793 7.793276306678191 1.1678508487946533 -0.7464712090296112 -0.2269348209864737
P 7.223577113154317 1.9112646594006097 3.4819822387219803 -0.1709531634145314 -0.04799375427045928 1.9688343299395321
P 0.20178206128331533 5.373877698373761 11.081836060193849 0.17005096331523614 0.6859734087548702 0.01222919507634023
Ni 7.707206103876923 8.687582853890506 13.313316995127876 0.16351933284430548 0.9996415666738461 -2.3156794888311087
Ni 7.031932282128376 5.981040977225839 10.499096040677928 1.3803327275805906 -0.7995889147901972 0.5516710637941531
Ni 3.2708555198850626 2.1652541608097935 1.6446578512996166 0.6256244753531678 0.5650235738416591 -1.5162741508066273
Ni 6.747967756187892 1.3788980817991006 11.427654124380052 0.21377951455143826 -0.7422923950615732 0.11451410659019634
Ni 2.8767196318514605 8.273613866918899 10.489984271786097 -0.2770813599338776 -0.24912704081279677 0.31777806632229144
Ni 6.675030407962759 4.426997474833597 4.963648076931091 0.5866815184310671 -0.3523208372941674 1.8576775698573424
Ni 2.1431766913006802 0.06997740845938379 1.4425630806438412 0.6429997334068216 -0.7544933080031393 0.35211694881347744
Ni 2.7900155587006124 6.019899577323122 9.60606662483662 -0.20588571362565833 0.4013450897116701 -0.542517165209027
Ni 4.28039969665122 5.326802260411538 11.742767508832543 -0.1927401773826358 1.0026011635228023 -1.9354660388917315
Ni 2.9211281190095195 4.585831298430852 1.8632454589178997 -0.01704821373153838 0.026055816546787382 -0.44837236630380195
Ni 3.110894815666331 2.1476654324428988 3.9463575349594597 0.9869012362890421 -1.8901763138159962 -2.0627024781446024
Ni 2.236275811978413 3.024547588045617 5.620428848614008 -3.0616511325164817 1.7158987140139224 2.5093419209176977
Ni 5.437123873254185 0.04854883437480451 7.163186641582153 -0.1823989433576278 1.1245151621214955 -0.23711176151947552
Ni 9.140879974551677 9.332111616016409 1.407721809962126 1.1006599527704528 -0.5309819108759177 1.2325500887452514
Ni 5.307551383127964 3.1979745156910053 3.380439964987827 0.6153961127569402 -3.3894570153884205 -1.6095450317473314
Ni 5.132105461035763 6.173343155280975 5.579003777901311 0.10611482678290758 -0.6457415578180169 -0.725994429232498
Ni 9.383018448091656 7.927755422843762 6.2190982647816995 0.6382545054123524 -0.011864869758386019 0.012395545450875426
Ni 1.8051782395603488 0.8300020436148856 11.732362644427567 -3.44794395588072 -0.7539153240124823 -2.1837451298819364
Ni 0.11061835807296992 7.122261154611643 8.55778310950562 -0.5622028165634124 -0.27004939278776074 1.1398870165918755
Ni 2.04081836818314 6.06603594810078 12.053276646879116 0.12550711526659028 1.1987408535052904 0.036680643250485215
Ni 3.905486513885655 2.653935332985358 7.3879326517968105 -0.5071922646554878 -1.687305732867578 1.8094716995760773
Ni 8.472142060407698 3.5757142906821096 10.692779586561558 -1.9116596805007529 -1.3417240140694568 1.5905417511719508
Ni 7.31449759796386 8.47733510193834 10.614657648410445 0.009254171608416321 0.13409434271496906 0.17783137859160342
Ni 6.499978894088075 7.162763122281914 8.483619339537448 0.020213498833397448 1.4935072894237569 0.71374183711739
Ni 8.687470165828358 2.2927137497707446 8.307473812392745 -0.3785643443717287 -1.4729901433070116 -0.47110657467652417
P 1.7574642359126222 4.036439432773187 3.6036327580792147 0.0005715562327538544 -0.6872551036807713 0.7571487433481153
Ni 6.927338979111572 4.8147946593713895 2.8529790743584833 2.5404018755472957 1.0522255114181491 -1.1315661554310061
P 4.593334445235524 1.812596870318409 10.322167331501298 -0.427923868641463 -1.0138003746727315 -0.38047133158645446
Ni 4.334471185138449 3.5881005868465166 5.441135568266646 1.2362095398747097 1.2073401651385272 -1.9100833371525683
P 1.8737583160491003 3.238354404627282 0.25407777372453255 0.9181489093149929 0.5053300146357684 -0.6257507165183869
P 5.139533482465668 7.02202512333122 10.251947643708297 -1.2438927674515805 1.0455619833550445 0.49222304494016517
P 2.068990383720078 7.673230653139377 8.10972222746558 1.0409797633010007 0.14429956538274505 0.4194893647208646
Ni 7.485248184133238 1.6582611785352193 1.451936849280165 -1.5034903687783978 -1.1252494691843589 -0.46617699858539063
