# total energy = -381173.8536241621 ev
CRYSTAL
PRIMVEC
9.18068577957949 0.00000000000000 0.00000000000000

0.00000000000000 9.18068577957949 0.00000000000000

0.00000000000000 0.00000000000000 13.43686163635466

PRIMCOORD
 96 1
Ni 6.188121956726068 5.513919929039024 10.758102126750881 0.7904067340702968 0.5604729783564992 0.5866439803249123
Ni 3.4493764729578276 7.828058691664983 9.165524877902445 -0.5992737532737807 -0.33580432769638296 0.7261790344394784
Ni 1.6871713637016608 7.550122607862572 12.156839292366323 -0.4917044534325339 1.2191993784699584 0.3217673899873426
Ni 6.871247611071497 6.925918595382898 6.231949632965228 -0.1979453757326591 0.8459207079772012 0.8788436839574671
Ni 3.9108161057806035 4.758413747353361 11.769924795101268 -1.6973258361077417 0.024000476679655443 3.089687726938724
Ni 2.2833192001854257 3.4602005015897572 13.335413512243708 -0.7336167216644462 0.2304207226525451 -0.5693042034948841
Ni 8.72155976255042 -0.08930420365923111 3.1384073633534273 0.2581824661468457 0.3978116226371149 1.948603604714954
Ni 5.5751183809986875 5.553305071389302 13.242175384692379 -0.24618775567881476 -0.21723944807558068 -0.8296065441982099
Ni 4.4380996176094865 6.5968277299544384 5.808580468277215 2.260096609359482 -1.4700804258593843 -1.5912017533534533
Ni 8.3738596468786 7.446298231443154 12.999559235540316 1.0813525106910924 0.3169324304925445 -1.3307114650090373
Ni 4.527602124083349 0.7238263889798092 8.854932176418409 1.034042412751219 0.6910600792491582 0.0907062055373212
Ni -0.10509957368572401 3.6166669307449553 5.087451364803819 0.3599081627231221 1.2278058891920467 0.10156217441521864
Ni 4.525205965073226 3.0253297736531595 0.023856930282385627 -0.45993461722010465 -0.623371674763249 1.8701643894704434
Ni 8.774155911856887 1.158969783286524 9.38266462378597 1.3125239954667332 -0.18656644447175613 3.201427098997261
Ni 4.613726138159797 4.419802510685453 2.0234305086515887 0.9723757889793577 -0.7701513262553704 -0.7861417881463557
Ni 1.718440779749458 2.397398402713296 6.604795647214533 1.4293335829593257 1.061214602290637 -1.5699518428357413
Ni 6.4752570877627385 3.588730103665259 9.235840668992195 -0.07691943616587398 -0.4148850331796338 0.1864872544943885
Ni 3.6571078519694256 7.625220618218115 0.004053272808309572 1.123426042822375 0.7442196939912731 -1.2083925176624415
Ni 9.022493464438481 3.5225465392822377 13.402543605339154 0.33921875269457064 0.230136615753223 -1.201567267210492
Ni 7.186640893193053 6.889113225759991 3.730288017048285 0.6442377195789808 0.1062760349511202 -0.14316442333703733
Ni 1.7580278971887124 6.319846437481733 10.139012674365226 1.197440389526312 -0.16945035361675978 -1.5444758100518239
Ni 6.446530721698864 9.325098051153526 4.201424290279072 -0.13256170812052653 -0.23622833047325767 -0.2359143987772647
Ni 0.37585177080069965 0.7103216000760191 7.144809098060408 -0.7894865362488727 -1.378808320516264 0.35508862984729167
Ni 5.106123043711045 7.498086480393719 7.715661390787129 0.9951380223765378 0.33956070941502164 1.9531840249967847
P 7.859961575037294 5.311531709199421 12.771992066654123 -0.35502203827541434 -0.09530539487222942 -0.9919462549121175
Ni 9.392300671667288 6.54220264907235 7.9640145505346895 -1.8897646801998742 -2.1813946273718883 0.9071502442116441
P 7.043357928936456 6.137866882314547 8.810523362764151 0.39664434180189106 0.3053529531850612 -0.29505259970031766
Ni 0.6113069849799837 8.225637473627959 1.3048793417683924 0.5675201150112678 -0.971132917711192 -0.028592466925712046
P 5.130442680560902 0.26316252411241725 0.7714089657367461 1.6948046123477842 -0.8431909677508639 -0.07029061799544667
P 3.5190395172827493 5.636546350104915 0.6355449137256647 -0.09891059572498449 -1.2467042687584464 0.2001092161531973
P 0.7278860882682225 9.174773500840365 10.949953673426053 -0.9230831133918167 -1.296732279850115 0.23122059284602114
Ni 3.280148890453704 1.619206746261308 4.483826777753605 0.5859700941863392 -0.6013897711755191 0.8064144223524629
Ni 8.080123602706765 1.5659587682586003 5.341850924260446 1.5137945789178833 -2.1249046627049597 -0.3950330314507132
Ni 1.5737256284983057 7.006359764910437 4.138902901486616 0.3863578722742185 0.0427697868673586 -0.06443750164877934
Ni 7.584293120642931 4.591022302021746 2.7340927121731076 0.009188865588119658 -2.242712352444763 2.600214991050186
Ni 5.851420302717566 2.0863475850047193 2.0005605020994257 -0.43643139189184194 0.2353022191145625 1.8078925280144154
Ni 5.432725943270756 6.6423914738902035 1.8862260765045766 -0.48037514446264373 1.2179122842274186 1.1189638932859634
Ni 4.022985725649066 5.075707431448463 9.740300077698226 -0.12230763449268613 0.7532326961231609 -3.673637705371241
Ni 3.7563877888868884 2.61101460136278 10.42372594047136 -0.9241598913957632 -0.42039105059952764 0.11429787681433218
Ni 4.2696156706602295 3.171036438977466 8.098625438925534 0.49097297458314804 -0.5936026710309324 0.6317249318239507
Ni 8.403063408607325 2.358068344478192 1.8282996209863205 -1.5034191492208304 -1.202125196596491 0.6496550339398102
Ni 7.759708485418403 6.189141012856809 1.3677248087717953 0.5508351981564191 1.339638335185022 -0.7719621542118641
Ni 6.326089303868256 4.865001510217403 5.207160163902596 0.7988034427744243 -0.08181455947464619 -0.3633408425537549
Ni 4.418985429643687 9.317937116180747 2.7920182496227777 0.012432055115765684 -0.5856782739775332 0.40964075406155903
Ni 6.240672202603222 -0.011477693465342304 6.6828232144288116 -1.3745084075893295 1.7706125606170344 -1.8582429554425093
Ni 7.925832996100988 3.9908992285595035 7.209293317490274 0.30491766541985554 0.6470931867499049 0.5546651134254705
Ni 5.5611729191734955 3.0952774192398196 11.639896905093 2.6491477121951474 0.0337927801797289 -1.773275195050862
Ni 2.01550023220353 1.5672165222217675 9.10620112199591 0.572733026670775 0.07825538136847814 -0.32457066376409266
Ni 3.6930226950636658 5.601870899602116 3.70845267379283 0.3029255746904912 1.2246866268367746 0.27240015240812443
Ni 7.942670373972879 2.997824438809002 11.197178526881107 -0.3435721445672599 -0.11273618875416713 0.27577498241762827
Ni 6.0626311616710655 8.358830864121629 10.049778243918551 -0.7810319777236162 -0.9872907584179771 -0.35585636125125164
Ni 6.252965140973159 2.560686081464358 6.154955810979072 -3.202666113610684 0.9439658703780968 0.8575366949495747
Ni 5.401520792023998 5.065103739277235 7.5614460658054234 1.6223401266294704 1.1518030513031712 0.3676590103131345
Ni 1.287884974168252 0.6541817060266123 5.040852039502759 -0.5266280047825963 -2.5226844036628746 1.3464733558289843
Ni 0.7611715829314325 2.111117075461841 3.5723508420179084 0.20552961583782026 -0.05573303189624595 -1.336255791866034
Ni 1.235949834243887 7.587956214302083 6.309963429150712 1.048236187753098 1.2290891267798445 0.2827030769960293
P 0.4918130139303898 2.8373644113036005 8.338903267388408 -1.920935449375724 0.7236187299114698 -0.9961980882099359
Ni 2.860765979567205 0.23007441419525188 10.823714652473253 0.46913299588992113 -0.2685635522708536 0.7137719190243772
P 1.2238496902770648 1.724812175738058 1.1479107290965134 0.4903181146079685 -0.45674002154220694 0.02424807391408727
Ni 4.784349184915026 3.33100070944629 4.2202226626512 0.38033429178795786 -0.6151734552231728 -1.8479341173173336
P 5.1374842666174665 7.421189055609118 4.075561677446636 0.038513582694165924 1.0446019334346202 -1.904713845310539
P 0.3801419053042626 5.8964423861874415 2.8499447051410334 -0.9764584436891636 -0.8251816756576369 -1.3132271921813448
P 8.602899397777144 8.277030953086435 5.37442216156355 -1.1035177339342221 0.7542518814162946 -0.4401895733826935
Ni 6.079982657951258 7.727475097355039 12.653963333068189 0.02641371410683838 1.1109322812307383 0.6510627129206142
Ni 1.9763446069998145 -0.03817971829652779 2.9786166078474046 -0.100881089187794 2.479472644162091 0.01759354471204712
Ni 7.535773195859429 9.337400170209323 11.475658107286579 1.2897872159908497 0.5233290223163503 0.06410454378939283
Ni 4.299618152058996 7.169987129038413 11.174779489513693 -0.7155596070524192 -0.38584416586259357 0.25126131354698017
Ni 3.0691859100184935 6.360067022245501 7.356332100333234 -2.4878896645811928 -0.5463424524923881 2.1215951387157523
Ni 3.234273003198613 0.8187941577476388 13.629949194154168 -2.6532820460784947 1.065909693773461 0.4425349336864185
Ni 2.229511200345103 4.173622419281554 8.058637125514087 -0.8338501499659122 1.3522506246323938 1.256420981825578
Ni 8.825586114058813 0.6490836711671462 13.417123452557446 0.876660046042587 0.6994413613343179 -0.3180313199836781
Ni 7.48809789417528 1.6542310628268824 7.749253520358147 -1.1942015708740399 1.5539094446608979 -0.055420385751833584
Ni 2.9307044444680024 7.450493804882334 2.1303469400695083 0.3626394456113561 -2.224344134350221 -0.029745092472916512
Ni 3.009538993969598 2.7193099717972524 2.166976040523854 1.2789353608780103 -2.077823135836125 0.1033002401522479
Ni 1.1050516152158512 8.388310046426232 8.817859648836903 0.2604836034761966 0.19871310713661905 1.2326781296826836
Ni 6.723346761826044 1.5379484956920035 13.359385201099375 -0.06419504662067009 -0.23410459926203553 -0.7941147790495033
Ni 2.8439836858104894 9.210339477871829 7.303108910182355 -0.4125694976725797 0.3514209511877174 0.2845028492089294
Ni 0.7821834186650183 5.409911938902355 11.954251851643503 -1.0076060729365615 -1.583113834138996 -0.031122432436417363
Ni 7.057532907908212 8.562531922039575 1.681690494241727 -0.7227113876058521 0.4452893565031041 -1.093384502154962
Ni 3.4911210515747775 8.484395104663532 5.302346432993954 -0.39991015703735644 1.3287540841723504 -2.116760693441587
Ni 4.895325315621359 0.6582542582752332 12.022766392167023 0.5740396612973404 -0.04438366832169775 -1.2140139776142769
Ni 8.702381309783583 5.963654187387067 5.521219492368326 2.194044454925415 -0.9765062662079635 -0.7403548117192281
Ni 0.9297555993565918 2.028454179955568 11.579994765977126 0.81756992474865 0.7139413547227059 0.23429743199913197
Ni 9.154695340858998 4.565444911208721 9.59086880811949 -0.05491979196633122 -0.03812868855092143 -0.10746439883226654
Ni 7.6439583980635515 8.632874337118324 8.290489838560912 0.8295003576376488 -2.669201802632545 0.660115824261818
Ni 1.3988611048745856 5.953344277163439 0.702769567885497 -0.4579170725694436 0.10621818512999125 0.5853494298832048
Ni 8.501976118090287 7.032074866011399 10.472891267470997 -0.22215616865090773 0.15023238592741223 -0.34673820100006736
Ni 3.8939328244794003 4.408032871409682 5.951588930026522 -1.2541756374348272 -0.9833965655698933 0.8017524981004193
P 6.873203097160217 2.815238958374889 4.138714697426434 0.4891276938442931 0.5058846015876578 -2.111814148069589
Ni 1.1016639421325753 3.8643159318868596 2.022382074326087 -1.035230005301417 2.0818973059054984 0.7884629800803646
P 1.9863790966475663 3.9347226117666465 10.615819857253301 0.07846672604833582 0.618568854057967 0.37768297020803987
Ni 6.746638161859298 3.7587288637818346 0.528430179493114 0.6694232177056729 0.27522682322364217 0.3866802886106437
P 1.7233891694293648 5.011121306405523 5.985127811619538 -0.797713037923723 0.24507086846555215 -0.3855109508928909
P 4.182904092688578 1.6774490173732353 6.67824113411482 0.13337057717506706 -1.0730172513525198 -1.3182251596165684
P 6.556708132735157 1.4085926318888735 9.947241917725647 -0.5071788949190491 0.8282603145829606 0.012304271288649776
Ni 2.3917614615936986 3.7357496070679077 4.17846064073111 -1.4599032282160662 0.8442410062819331 0.7233266525923479
