# total energy = -381169.70490814134 ev
CRYSTAL
PRIMVEC
9.20821005653093 0.00000000000000 0.00000000000000
0.00000000000000 9.20821005653093 0.00000000000000
0.00000000000000 0.00000000000000 13.47714619786990
PRIMCOORD
 96 1
Ni 2.4486011506289485 3.5481258769255124 9.101116633235822 -1.821567968618979 0.2683010426380863 1.7237560052748118
Ni 0.24360871932978284 2.2454588307747647 8.416356387196727 -0.8570278736339563 0.1466032738152572 -0.27827203780786913
Ni 8.077276026215152 3.4372590290471585 4.876300585477242 -0.5560761348403842 -0.7925505198861771 0.38211195251367097
Ni 3.7322808678490342 8.562355318522778 10.031026132130453 -2.3059954287741253 -0.0933708968536779 -2.348489336272278
Ni 1.9954098894012842 7.84691423772904 2.197973933670189 -0.1259488307896992 2.0377375806691487 1.928895070542433
Ni 6.8411659216312435 6.413195947474909 7.361405842837434 -0.7581378467342621 -0.4525491233893109 -1.078666222108181
Ni 9.01729613964221 1.3132288629710527 10.977337294599911 0.8481074312158748 1.6590793910320332 -0.9010611005947707
Ni 2.351040166137988 1.4218120747801517 7.556716580123466 1.1954349290605089 -0.10149455440207683 -1.8103921545078177
Ni 6.562092702474327 4.748149006689216 11.204441218403351 -2.130681931508369 -0.1861560964072149 -0.08820272238917712
Ni 4.239570362572158 2.059406948600168 2.0116126556410476 1.713076671184095 -1.5938810999578295 -0.5569395112819441
Ni 7.825422275690164 7.909990475932257 11.500345203719077 -1.8529302849803442 0.18298181244429132 0.7749078671037493
Ni 5.245585716758698 3.6647846888666145 0.08051566704016119 0.40017266667012374 -0.2873341480101374 -0.46677118052596384
Ni 5.024874132307182 4.137147443224074 6.268934605367682 0.2566079225708742 -0.5316437128296327 -1.184989565357469
Ni 7.301171258226847 1.0927659001883654 12.444042155381835 -0.3495265623784819 -0.3220538108795099 0.5257114065055978
Ni 6.60270090838326 8.29923071901082 4.818726252723139 -0.1493463837780331 -0.12097220351071424 -0.261920078812407
Ni 2.8502632689390652 0.17316130905624896 0.6916387788767313 -0.5507585792822127 1.0376285874405806 0.6738457722534008
Ni 8.491129814507905 7.170488342521731 2.971212185898982 1.4183863399192025 0.6895277017650319 0.8083422355027948
Ni 2.2460665726319053 7.277920528086245 13.333453026066017 0.22189185924592753 -0.7780376709819825 -1.128311138828818
Ni 0.35270022432849024 5.217997919728503 5.537584500231799 1.428061144004805 -0.9391504512673245 0.09555016389318383
Ni 6.496180335604455 7.233408041155683 1.839010284929169 -0.9894142325188829 0.6711931651219022 0.27876080451882956
Ni 6.635482135829019 1.3111293911009312 1.2718526923517341 -0.7176887375802802 -0.9927826347704837 1.105694944091199
Ni 2.1763143822101 6.890254888910272 9.228852921754802 -0.022263182273574558 1.023975001212888 -2.3375410647908907
Ni 4.939200946870287 7.742935130898278 6.226400962756809 -0.2608003633856669 -0.24259592456249834 1.171163200997338
Ni 5.260438559418814 0.49882899141493153 11.0871765062471 2.4558994848278415 0.7479362236109118 1.8908273171364338
P 7.670245521500295 0.12427768485925406 9.776281003679069 -1.1086013191047166 0.37423897752349744 -0.9854038258079093
Ni 6.542147719708171 2.341261047164 9.005415707156109 -0.057568285332771814 0.675643744694088 -0.0648740749655657
P 8.744060925597825 0.4399876089707895 5.658716660569852 -0.945546070381023 0.34716166169073115 0.37668641062272545
Ni 7.4338155226527345 6.131968007188131 9.631294054627254 -0.05079625671626091 0.7468851566385781 -0.18259563274946616
P 3.5919845809491506 3.987164119449769 1.4093994077585552 -0.5930707097868624 0.9762422139132995 -0.23022686147418414
P 5.910621056249602 3.9671454710039598 4.28690516585444 1.8631843586081849 -0.16281510768842924 0.019213853924289488
P 3.915413747467366 8.054614621511778 12.094376957055065 0.9179000265289804 -0.8047735443149302 1.504982379942892
Ni 3.317165554792217 2.092740668643328 5.380979552677649 0.059887420384251704 0.2869189148495897 -1.2226724246202234
Ni 5.506887090699235 7.201759423534595 10.777578991904806 1.1045749715541429 -0.3969652154764196 0.9585571379287104
Ni 5.805997374721874 1.5315371046238782 4.3778887259733485 -0.029304148280755983 1.7200204494917797 0.4886548679729326
Ni 8.184385924431183 8.44211451290853 0.6947686494410048 0.07088994214234244 0.17502656215295662 0.4796621775560191
Ni 3.3930872458849937 5.231810234663514 7.723657743353982 1.2190420269564877 1.5327155841921023 1.1046341069268522
Ni 0.9567514309183347 -0.16554059449610561 4.209101316646519 -0.18682381189820083 -0.5787213830437259 -0.32710937102554627
Ni 1.8304263916075574 3.534101773161498 4.206351745153457 -1.1606633299072786 -0.1505496600575149 0.018972427337444746
Ni 7.566183540779923 5.572744208309366 4.248669915651343 -1.2404783424533925 0.0006216927443989293 0.021815553213194686
Ni 8.167995310708303 4.006077782700777 7.285502568164571 -0.9478181542446517 0.06421458700469586 -0.799692787357913
Ni 4.123998119405943 2.7737614606190184 7.7997635986458915 1.777056002249533 1.4867776840094071 -0.872615186549252
Ni 5.47580938209546 5.111910132817663 2.241343681745127 -0.5528715118601575 -0.15100165999326895 0.07679113811812582
Ni 7.034897450909707 6.156572344192363 12.99466456534007 1.4555881457804805 -0.09310221657332353 1.2408814914290822
Ni 7.268279532261607 3.434109821241976 2.582962746211756 -0.020726433914073982 -1.0534095044239213 0.4439986627161386
Ni 2.4046411562957872 3.809104963517565 6.498774288349249 -1.7438723164087127 -0.0718466496286569 0.10925440085315377
Ni 9.05220446358796 6.87049407034325 8.098268903274377 0.7662111106606998 -0.8921812816066377 -0.21632876333585324
Ni 3.0293077033366336 5.4767854523508674 4.918390392368204 -0.8974738974641447 1.0514752635156859 0.6860502847393927
Ni 2.547497325563626 4.892128577571769 12.759367176317182 -1.2935793360434302 2.5636053102469525 0.28408401650395587
Ni 0.5372824761940019 3.9515375551273975 0.7174595204162407 0.9185021788893536 0.6312909296103256 -0.3662891265488014
Ni 7.7627511987250415 0.24071918304537857 3.1816575370698033 0.46126644865765076 0.5197369340897179 -0.7871329484150315
Ni 0.7037052172039568 6.372965278174202 1.3637257655524568 -2.2941547273854557 -1.4010007974529033 -3.06975627812212
Ni 4.007551096293845 7.514985893420816 3.775635882788042 0.16322725552518338 0.20900394753966584 -0.5041406223133575
Ni 4.734889184351605 1.1570392056859493 13.331848955891564 0.012223281539069271 0.7009930220921541 -1.108044932380614
Ni 4.115692314025024 7.0218678338210125 1.4168258290886127 0.3893470368095295 0.6858245418818317 -0.5697086380221543
Ni 7.670033732671292 3.0992440579575717 0.2621651040344722 -1.2328581069039735 0.2475257577639479 0.07294733889200339
Ni 0.11945902858892657 2.0504197356824543 3.4915920718965126 -0.18000447498352226 -0.266638824444315 -0.5225962579153838
P 5.379869042556874 9.21419529314577 3.063840332316152 0.019142377256405742 -1.3120547691397986 -1.3213439077512084
Ni 5.728989114854209 9.37570729578583 8.731155619343546 -0.5998908180324893 -0.9263419866487466 0.3847509327984148
P 0.6695749869995449 4.700717517202388 8.311382793690642 0.5352854233472781 0.14449959720869307 -0.27799692976961154
Ni 7.025238038665156 1.883585387687436 6.455067519789897 0.31448756849647774 0.818659558268403 0.0056232597240483805
P 7.665392794853127 5.293910402611323 1.6148852170467123 0.5472145706846963 0.6485083219298766 -0.6632957646516964
P 1.2689649977093211 6.837464221228661 4.2537510059054355 0.3329905123966717 -0.360851757583314 0.23670912676441813
P 0.5402815901768906 0.4871677143257997 1.6517990891210268 0.2308377555853057 -0.6970947154790124 1.5434926202029482
Ni 8.201881523348865 3.898461432937129 9.651213254405532 0.42301717536846495 -0.01189906543043112 0.9318181792719693
Ni 1.9980802702887195 7.029925017533103 6.617440490060908 -0.04771376113619525 0.25891728743034115 -0.0717440626125216
Ni 0.7065293751976687 2.318599642460626 5.995025350354467 -1.0256143365885242 -0.858223179493638 -0.2488197939850231
Ni 5.27271310329106 6.003891014900754 4.886624830480666 1.4102721954525002 -0.5816503837650628 -0.74064226105266
Ni 0.3023442073594232 4.600265154785032 2.8530846644697903 -0.9317531303619889 0.02853204600142183 1.512438322000305
Ni 8.584197192540008 4.33920319430337 12.124633293330703 2.210798277344986 0.4639905324570332 -1.0118746184049283
Ni 3.450270229715939 5.892158595286472 10.754600824778919 0.24459881392514005 0.5324330415001476 -0.19202952446885638
Ni 0.6646366239997806 5.648859271811233 10.334289318843553 -0.21550729587582237 -0.23896449845749815 1.135842671319173
Ni 4.745073464563687 0.9378101430374566 6.650284333334372 2.1735075113143276 -0.1616653103547022 -0.12710145633690367
Ni 3.979567346235513 3.6481822863147313 3.620635005408346 0.015344086556238092 0.30227611403195037 0.16063301243544592
Ni 4.167792365959885 1.8416051584949595 9.686739449239376 -0.833179863371765 -0.3839523481565194 1.35570233062642
Ni 3.8596212033398785 3.7082566480720724 11.226044599782703 0.9046220784731518 -1.1459676755683168 0.07065545753403316
Ni 8.4957431276962 7.227450329313716 5.741129218861089 0.7099278626879386 1.5552050235438701 -0.010336091818685425
Ni 3.0446393729144954 9.021329335603234 5.480252343399555 -1.101336152901871 -1.1876704546237418 1.5077781975204743
Ni 0.6150540966670742 8.927976503062473 12.60063329062105 -0.33639748119569163 -2.3084780859866627 -0.6986404626995774
Ni 5.938687680197545 8.341349071352647 13.172778049711019 -0.7681574357537932 -0.5251473064720117 -0.13064649337568468
Ni 3.1687476267105463 0.4721693819483692 3.4299338980266243 0.3176417978547433 1.2708716100332693 -1.9869742340733525
Ni 2.67029801354583 2.832399341623118 13.25338487802975 0.8535157467156398 -3.447905903553933 0.7599209067766138
Ni 1.7762637006424011 1.0298462015544125 9.600472334260274 0.5946156856764792 -0.08508603113706638 2.143425347216967
Ni 2.556834450459694 0.4553625571354479 11.775171596443974 0.6924968116956848 1.5882930643470905 -0.07137690908108997
Ni 2.5602322799337065 5.562357347478238 2.4440937318551565 0.6047478890144746 -0.8821159269508356 0.7657560254011523
Ni 4.744870883944641 6.970826726031169 8.569915258897208 0.4238826086925539 -0.670521078755542 0.011442437508986745
Ni 1.9239541801374946 2.2798975360127254 2.0004937421183637 -0.4403201854232868 0.11401942634196492 0.3649634657588424
Ni 7.468723846598485 8.993520541534078 7.298197927231836 0.7345016953725609 -1.4572434219957162 0.3741528455675943
Ni 0.48261517532322007 1.7119443540950339 13.382617500666692 -0.07937381124363749 1.6889049590338978 -0.05174216556929798
P 0.22548972459803557 6.71850335679839 12.316224834615236 0.40033978837560724 -0.7737318445177771 0.3649336409621715
Ni 4.733867073046414 5.917527213717109 12.824434229513031 -0.32416982878124817 0.58276829941959 0.012460080140223703
P 5.603158925796261 4.674299162836691 8.250627945217504 0.6513185376851621 0.5298369986381972 0.7403491552922733
Ni 0.3094704410448932 8.308374471497798 10.064718972361923 1.4798380194667806 -0.38174042810686515 -0.5185004905794554
P 6.124444899653528 2.747729851071501 11.667933704109545 -0.7479331382871183 -1.0113837948114388 -0.13129081182790292
P 1.4996582817538733 3.0240129826115454 11.498269673194843 -0.5005716740151767 0.15029229263107022 -1.021785449760737
P 3.6102536695031917 8.661813194264813 7.66914329876848 -1.3869623170819663 -0.5819756283149655 0.9500146476753382
Ni 0.7715061879359427 9.031863527793668 7.811138500405371 -0.6182258688962513 -0.6896500862755091 -1.0327311501389633
