# total energy = -340877.3097644768 ev
CRYSTAL
PRIMVEC
9.18609309048402 0.00000000000000 0.00000000000000

0.00000000000000 9.18609309048402 0.00000000000000

0.00000000000000 0.00000000000000 13.44477578244075

PRIMCOORD
 96 1
Ni 7.904559533669349 5.2930543421424945 7.893212871601614 -0.13381537802196955 0.6668330883809934 -0.052373114285077536
Ni 4.73283127473413 5.710718432357562 4.467456990022227 -1.362844083877524 0.17101461278008612 -0.0020041749142223546
Ni 6.524367433318906 7.740266260449287 0.42920733467290006 0.35770729841706134 -1.15716328717382 1.1222549053324093
Ni 5.866542127836001 0.6358540082568639 4.08772227778455 -0.6206339641171117 -0.7883171985311198 -0.13927717246748916
Ni 2.9420208174959774 3.397522424758483 3.722373905786735 2.1072213864925837 0.8142745418268299 -0.7854434765277505
Ni 6.301696539114027 2.0420592867512566 6.006359056270216 -0.5422777955047112 0.41222342718707067 -0.1748123892596215
Ni 7.497927941141576 1.0840049039045703 0.06915198945894846 -0.2561862616524233 -0.44583134504950317 -1.3323924522558859
Ni 2.2831299252256234 8.600635730384477 6.785349846969779 -1.4703437068231 0.1714532429794015 0.5980697056633506
Ni 1.6620673639097123 4.400919362629727 5.283917854049418 -1.9551666026444519 1.8993127288996259 0.17086548879673155
Ni 9.044911932006787 4.908983794011059 3.4087211907289934 0.6460901994066873 2.720617952320992 -0.892665677442224
Ni 6.098270509734198 1.3932363524036977 10.311686097972766 -0.08862823996236995 -0.1868934887938717 0.9691349134445567
Ni 5.142659627624248 7.857113363348877 2.447554559575516 -0.2750319336040167 0.1873323761035032 -0.09114920661201077
Ni 1.2148975429938988 3.8818040613751097 1.8901736693398814 0.9728534999467247 -0.8460312654131364 -0.6367056728679937
Ni 6.8307236347105205 6.277380950955598 2.7514057134073253 -1.4189604672551175 -2.0598863488520456 -1.4202732725292702
Ni 4.693459680156485 0.08055009364745566 0.58346296407705 -0.16676380792353215 -0.6462496078026869 0.36798554041461784
Ni 8.64978132790907 2.6688264118172182 9.434199262350225 -0.5599636428202485 1.4003626496482722 1.508075417045919
Ni 1.2058676135795672 1.8895977013090792 3.362592306144042 -0.9253819367283224 -0.052335061958290505 -0.2949410138231178
Ni 1.6627012043263845 2.048700831986823 10.623658676621675 1.0100457927263056 0.2503218324518463 -0.07284809430997777
Ni 3.3672083178741556 5.048538918794908 1.8041275362533673 0.30283121520447204 0.8715476645166861 0.1412533223572535
Ni 8.275245944306704 1.2238447975712732 4.799031772513704 0.4087172138060251 0.028527418015731516 -0.49362223928053695
Ni 3.191230334364136 8.147329599347836 3.6096531958606115 -1.5805121348500908 -0.40583552138285595 0.2959326883124258
Ni 6.002211535282861 1.7909023181681045 1.86988618295987 -0.7219847938524726 -0.37799921589687807 0.03878226297452031
Ni 3.278075657541237 3.2553400773779915 6.356904958015485 0.9624963250821165 -1.4455855260418136 0.18219454065630555
Ni 1.1775560749682044 2.0884858007492544 5.906787319857495 -0.12490419157526876 0.03552081861442915 -0.16821596698902644
P 3.932612341731842 1.8395334944849626 10.058426432703 -0.14157830979684005 0.22578245254958534 1.8694442234749675
P 4.022397214667423 0.8555798410474658 6.730790884843085 0.14071596179654475 0.6960896712532657 -0.6180446061233807
P 1.5602211508713666 3.496612809898253 7.698827794947711 -1.0910211441291082 0.20687738811496628 0.32862323656691145
P 6.941939662604021 8.174373457125855 8.873618855924345 -0.14113042362614406 -0.14323975665966296 -0.2689767285488722
P 8.81467169717382 6.392969559114839 6.266784792685576 -1.0890159407736213 -0.09911139888188092 0.700297024466394
P 2.5184684416709535 3.3005907714725966 12.583503349674737 0.7383040998377866 -0.08427407675873227 0.8424957414560522
P 2.434654529182285 5.924166489195209 3.7067648965692053 0.888036920420961 -0.9624783273599875 -0.6816506130098002
P 1.1933928992920166 0.08889657774294052 4.989746086406705 -0.36960404985464734 0.45174976741646716 -1.0332422854474268
Ni 5.407209919794476 6.4112039537104115 8.603365837222665 0.8706068978699716 -0.12203509755758984 -0.4433047219729075
Ni 1.440011937935515 7.084103637798523 11.094373372493617 -0.41923585394916185 -1.097761033956103 1.0436506252649445
Ni 8.597218503790243 4.656228445246733 0.60330859938399 -0.9803228117405763 0.10215198548041762 -0.10834808698880051
Ni 3.0196524893988417 0.9626198710653261 12.798969591143441 -1.0683738390432373 0.619482624121488 -1.437532316720034
Ni 5.529182862585416 4.115516639360281 2.5983773460273407 -0.29999940218263177 -0.3851121727925755 -0.4258991249019504
Ni 0.8948402838998681 2.1243115634307324 13.318004973389 -0.18802271730230843 -0.450403794911534 1.8925378720696373
Ni 5.355685124184115 4.233227235001425 6.7540096534978815 0.47378952082532594 1.3184203063465099 0.540072046102644
Ni 1.8832041805843847 6.898544559294457 1.7219799810340375 0.4302735998205622 0.5412542393362033 1.8003836212318798
Ni 8.183146175936319 7.1161079857939775 4.222708239912563 0.5977331482595384 1.4315629865104766 2.1751908125540216
Ni 2.7734284527541395 8.901902836256722 10.634737104773947 0.8569273435003499 0.6013473479733579 0.6297343837564832
Ni 8.642836641604658 7.105994097406206 9.730750228078708 -0.2127299902410014 -1.2106910838886311 -0.8375013735652543
Ni 7.453485623230553 8.911006254415016 2.340870031356572 0.06579298723540927 0.44356028962713934 0.08342895514961761
Ni 3.2204512961820284 7.104781533130833 8.840491048755572 -1.2396370774990197 0.9620402113813044 1.2478116428900123
Ni 0.744912222905781 4.939307086988381 9.41631761372567 0.2166712342769365 -0.7131751659806428 0.4205329754940306
Ni 2.755800340296253 4.64278919119468 10.945486095835891 -0.7880361769555912 0.7695985390756939 1.3800833305739457
Ni 1.609458609325911 5.5089458997168785 13.405167216774437 0.49272132473282243 -0.9947220178850418 -1.8090567235258457
Ni 8.421525289163077 0.22854080762884454 9.983579065586996 0.8345875423525693 -0.28574417781519823 0.08372771733695902
Ni 7.958840157178285 2.985121965829694 2.5221189950272658 -0.2523136660708945 0.7351483278176242 0.8690020152766968
Ni 8.365214539102189 3.162064489104215 7.036094359977444 0.6331565220641547 -0.4261801464774789 -1.058983398967273
Ni 4.9897571097182984 2.2371351575984026 8.180554779102359 -1.1210899384900306 -0.07133114344481908 -0.38504198167627235
Ni 1.2301097129940342 7.072428113601559 5.085405465812749 0.9092451790674598 0.4955989033909336 -0.390755744231598
Ni 7.232707064182695 1.1593124942796362 8.153906841932436 -0.134170190258227 -0.3194721661952627 -1.1514371833233203
Ni 5.1231759243813215 8.14030223820647 10.557335085195964 1.0294985021342786 -0.1002568253402338 -1.0665426993717697
Ni 6.815180765362555 5.209240429653826 10.020176460080075 1.65778586903159 0.0773035589781701 1.1973781688298089
P 6.625028640360864 3.2691559612428485 0.43909983821948567 0.019225423888515277 1.3933517655480776 0.27589736692810546
P 8.924812952186878 1.4474434871686725 1.5423578744328021 1.8559880979700616 -1.71118356792644 2.121509778090798
P 8.280849461033807 1.6484535740907507 11.503565129139163 1.8670425560120103 -0.11396826138905533 0.044854180200213076
P 3.8851937296903576 6.232644678068726 6.9307684549124975 -0.14360819574267528 -1.556464606982584 0.768053048965445
P 8.750267999184116 3.4882626513655706 4.827225729134727 1.2403544152810186 -2.9425383508120095 1.225934640311263
P 8.741853538000468 6.848471166377345 2.0838863239865324 0.32368440450439734 -0.5599284187069389 1.2557339830608825
P 2.4161812961688356 7.935489108784358 13.212584451566201 -0.5717179551426992 0.41314233945691425 -0.6353933818144736
P 1.266192686279379 8.300085139765862 9.061281549724324 0.44989034561022523 0.007860119474367109 -0.15872808210324924
Ni 0.5870446217358983 8.79413159323644 2.822972726714725 -0.4548181219291458 -0.6825332727250698 1.1378334764969567
Ni 5.030644409640161 8.92691656748279 8.361400473290562 -0.3094628615883767 0.12318566622226526 -1.0159557304528375
Ni 4.955630774240943 2.1595861605324953 12.755730651414796 1.5738709753844893 -0.9941489189903909 -0.674650013322251
Ni 6.930181463570101 4.452196133729218 4.598449757525205 0.1720523100159811 0.8895258462616615 0.39967361554651815
Ni 7.087961796856528 3.3078661571248356 11.749954515457782 -0.9174968775532908 0.49501706274553453 -0.17677259830978587
Ni 2.2565453720973676 0.2945263508323301 1.466959341737083 0.6448319015195539 0.35242368142061886 -0.008819398063842875
Ni 0.15799436925321703 7.590046081697952 0.34420382314134684 -0.6291803110252261 1.125357712627449 -2.7807856229498236
Ni 0.31579215611633565 3.644683442888701 11.802119581749913 0.08912754819629166 1.6840949392397642 -1.1064837585410816
Ni 5.065129002744332 3.7745839839345425 10.228610747360914 -0.7547149370956422 -1.1322248720609274 0.1887390266430427
Ni 4.544929742516274 4.337902764682307 12.747932577071127 -0.9246193475306851 1.5159270518798538 0.4883388793944106
Ni 8.760271654455945 8.355706932852105 7.490972231525572 0.6292337899709809 -0.8786367101529836 -0.09368534277030317
Ni 6.927627729717421 8.925906097253312 6.160140683275811 -0.8673112578378354 -0.7419908046607543 -0.3520714402875227
Ni 3.434505635157363 2.78207256626267 1.3280858250534806 0.13253676841986206 -1.3234352430625982 -0.4622414109764104
Ni 3.2416711710010584 4.621945946188457 8.802590147666466 0.3565996671751794 -0.21387773069219937 -2.652299884670884
Ni 0.831357032428289 0.25651337940868274 12.019804264676969 -1.086540225539619 -1.7539716096262437 -0.11935600806352992
Ni 6.370243165044589 6.4355746584268125 6.3193136282603195 0.7905301470220385 0.14281758152057986 -0.2554709807529536
Ni 4.3330800658598 7.066300989573727 12.412311320615242 -0.6344346174456299 -0.11417343542132595 2.2003215461833783
Ni 6.6075291332049115 5.454940858997799 12.678423248594664 0.19136000920565752 0.5354952253652391 0.20495960226696316
Ni 0.6242574844596592 1.2607912635981717 8.113599184478574 -0.035265765180829585 -0.007087760084716825 -0.38069553178211857
Ni 1.556969273951048 6.092005594311437 7.390096069907525 -0.0552676622240532 -0.15192879979322865 -0.22412563367245272
Ni 4.263633202815704 7.965224491809984 5.836417254467376 1.6527863589344698 0.7185852812526206 -0.9235893636042739
Ni 3.2433338538331986 1.2019175935916095 4.627073623298406 0.25959065934828196 -0.23961395911603892 0.8426224968419036
Ni 2.790092025447524 0.8840567293327432 8.621395381944446 0.6779024588212778 0.13434065439782025 -1.1791883852946596
Ni 7.47424619339982 7.518017926522189 11.831133856475411 1.1760431547974584 0.3222330167698515 -0.9885971359342265
P 4.6001749057897126 5.914006670342463 10.68206201866688 0.21546924354903535 -0.804625191662524 -0.9368603696815673
P 6.714905374226398 3.4176399684180825 8.505595493646313 0.2896558541647785 0.9848525812901296 0.3942233910652243
P 4.1265032065826 0.9494286415241461 2.6031642190871658 -0.610662968947329 -0.4064862675929773 0.1308328983548779
P 8.71685817896039 5.602781839663366 11.388907990809642 -0.24048916263214068 0.4647415516904448 0.3062307278043242
P 5.098217309713225 3.431905970839707 4.670795751518602 -1.3923078976645955 -0.8647383549043365 0.29599670878114187
P 5.965274255348957 -0.07971691501278641 12.272256472372451 -0.8168217337287159 0.5057843285643676 -0.16129609994074157
P 5.337579334890474 5.872981579025672 1.1390470545228133 -0.2648889316327438 0.4313298089992184 -0.7285693890485259
P 6.020730698761286 7.499269110718883 4.477500145493935 0.23770362946720353 1.5242949642285748 -0.4920199277904236
