# total energy = -340856.56237382675 ev
CRYSTAL
PRIMVEC
9.39888283079250 0.00000000000000 0.00000000000000
0.00000000000000 9.39888283079250 0.00000000000000
0.00000000000000 0.00000000000000 13.75621507649730
PRIMCOORD
 96 1
Ni 2.389872666095615 7.532452460602615 7.42354102917125 -1.7320287868065656 3.6007217339378053 -2.544095265238483
Ni 7.831985448882099 3.776151450283834 2.263048844282906 -1.6410729271522833 -4.171314317226809 -2.315429834714148
Ni 6.558192491162514 1.7002014616658547 13.681435463013958 0.8143861277040297 -0.18221588081254425 0.4207394350778818
Ni 5.713825078690705 2.033692612631768 11.688559377672075 -2.271236685136701 -0.5040030682942288 -0.5477272486550567
Ni 2.598086111429809 2.4457020284973265 6.510362517706946 -1.1669100821479388 2.0387778490082047 -1.4603534283796076
Ni 7.3544376249311645 7.813450852475336 8.423219336604479 -0.2709011992650947 -0.07239892258770111 0.32193322614124553
Ni 4.852633666437909 4.907081393103417 0.767716705536678 -0.9970087570366895 0.16568445881642435 0.6811464196798721
Ni 1.1065398425784314 0.38090005448282754 11.610616324385052 0.21817687228818555 -1.9778784424196711 -1.2485161251562045
Ni 6.4988573455662175 3.799733246624893 10.329059889671559 1.6438006104960916 0.3087306114080425 2.644498386348594
Ni 2.401997224596997 8.98223949424342 9.738588251324732 -1.7563380529758914 0.6815554821928327 0.1652993075628637
Ni 3.647941293293641 3.5226071943665667 4.67194108912534 0.7674043596378526 0.5821998285106296 -0.21029438421631524
Ni 0.8300500946693632 8.922659977700583 1.8249960647340304 1.253635448660641 -1.8952861242387358 1.8968336712315137
Ni 5.330491653513298 7.047479519429903 4.830453243486428 0.03213776107480917 0.22372942667529858 0.17378934731174586
Ni 8.220178096342618 8.183748027543118 2.8569040803510495 -0.7782482443308919 0.5399105808241152 1.1301613046636796
Ni 6.986461973855508 1.3367184764535005 2.0648630667511343 -0.5870461008593373 -0.07542536811885074 2.546792095344356
Ni 5.758836327266765 6.194446337238502 10.14941810742911 0.22312933119745443 -0.024420594936209558 -0.786543908680781
Ni 3.1439826093513243 1.209927550729749 11.881682917057457 1.7006893532633356 -0.12703872141976832 -0.12964530580467992
Ni 7.391102665794645 5.38107643944697 7.2770378270560645 1.3347884632918883 0.24090439579268833 -1.165816591973444
Ni 6.5695557401766 0.2714340889804686 5.588490039875375 -1.9161994773526356 1.4185622033754344 -0.8001992946806864
Ni 4.358449820357172 1.5051840474447926 0.7871554744456376 -0.08185903955933643 1.0898636334858973 0.3439665517922012
Ni 5.614281513506104 7.375303144212611 12.771090714641259 -1.2147647397373722 0.30073088103201756 0.42562093153989927
Ni 8.747399014618981 0.6599425388949771 0.5497923347423077 -1.6804501433983252 0.9212931113709294 -1.5086068640693568
Ni 3.7142598086314313 6.987683828588205 8.904039851462532 4.430216178038183 -0.9690606085631956 1.1664542255574428
Ni 1.5673670544565304 2.26467015152437 10.083388137785887 0.5318193191755487 -0.8745885082255388 -0.05061653660528702
P 8.121461632823229 3.676316519739898 0.0018374815403256859 -0.26757264911249407 0.47760040993098396 0.6700634223928331
P 8.114976403857373 0.8136048698555124 4.082060640491488 -0.9603345415441074 -1.0034429426978073 0.4272127015070514
P 5.5475400484531505 6.356492471441853 7.5919445675376505 0.47023908446990625 -0.7492572564151806 1.1530914310972915
P 5.795773935724463 3.089412697212547 2.9625663180816955 -0.8160033515924785 -3.324510435313707 -1.3489832667350317
P 1.8078280658513761 5.9886578036045846 12.493187374795285 1.668752138235107 -1.1768558805067408 -2.1814771597833658
P 4.325412748161546 7.254959851924479 1.241702352997672 -0.6832819779656362 -0.43396518973953646 0.21167918037898384
P 2.943964989608762 3.4653492018158554 0.8722266402655652 -0.7059971601749648 0.673054643810673 1.4047764624452517
P 4.890708539685272 0.21701173929787107 13.036461584482781 0.53044249343268 -0.9562554863787273 -1.841826461757699
Ni 2.956559492238104 8.120625132275459 13.144159620175751 1.181664614749294 0.06987512772458288 0.007153580325645745
Ni 9.048125660983487 5.288967390366706 9.118004473034706 0.0006458611141150167 0.4451469173879688 -0.18962605723368633
Ni 2.027367164669419 4.259601772481953 11.0674520816235 0.921120333238491 0.20857663019426012 -0.12829984752037904
Ni 2.1057350474481176 1.588890495517123 1.5910437795114378 0.34974279215434606 0.07041634494003356 -0.4618596021569594
Ni 7.238709183979604 1.1479137236040766 10.137986246572343 1.5752555144368419 -0.06529547877370044 -0.976137570014635
Ni 4.057168639921674 1.148956999568149 3.0642791453609615 -0.2011664537731181 1.5719071667898992 1.0932947706546332
Ni 8.247914198774849 1.083146023888556 7.086376794901197 -0.9676971525567658 -0.6655634776399506 1.5007364601823445
Ni 4.152680084488373 5.285207837343021 11.636836387060484 0.2763372826790015 2.3405729096386785 0.4602662895279105
Ni 4.356259880720875 1.2327950319963084 6.892317126812918 2.814217420245708 -0.9904156772002038 -0.5521276917155975
Ni 1.1201024301113722 7.000475707751291 0.26620643050103565 -2.4713829251754214 3.108604618447885 0.45483920497506825
Ni 0.101903624595218 1.5850933469632016 2.6765188464981664 -0.8738110066295661 1.2784743620811918 1.2022943751845037
Ni 2.5484412137520587 7.519444407140667 5.027607963601454 0.6170436756626921 0.5234840598369759 1.1328118549126491
Ni 3.7536035310242877 3.3066208731559055 12.732367318497312 0.10782898126053686 -0.5987160809980979 3.079313839903568
Ni 5.280837356952988 1.8711201410051008 9.318377370538007 -1.0909578949913403 2.238761081106499 -0.6411194856649732
Ni 8.621961527983757 5.605239788484145 2.5749845979875254 1.5357052629480454 4.908722901833521 -1.2565778191184167
Ni 4.922927909098245 8.216211767902632 7.035753473549033 0.052681903774747976 0.7452759031699294 -1.3973261768147935
Ni 0.7959095936612864 2.4138022210913657 12.58034697231987 1.1271047772255427 1.100934032367446 1.0182026175054852
Ni 0.3155834600258489 1.6648710621257818 5.569561630289381 1.0455121039537156 -0.9971763929628051 -0.9342861811964878
Ni 0.16362326669678667 0.5133735446018782 9.39362388441879 -1.2229287636054036 -0.8999532122425727 -0.2574209053904728
Ni 6.597150859370442 5.3778526227291605 13.013378868805615 1.362458418403331 -2.02758763671934 0.20190076083598132
Ni 3.751723754512445 5.775002405268607 3.0216486337371498 1.3561273339789806 -0.3132261852855509 0.31070059065021977
Ni 1.0815200172058126 3.6757055923735495 4.7321512706879 1.56339501555383 0.7550260405781577 0.6505173819401054
Ni 6.715022245545503 8.446249418539313 0.8191868662074275 -0.3790106878805279 2.121216672330411 -0.4476601707281258
Ni 0.7110940774469693 7.4157841313951325 8.893695441317863 -1.8466837898500004 0.7711054626385236 0.2067298067935085
P 7.45689484370912 6.482465694382954 11.431043153985286 -0.08677755990687636 -0.011873868619450518 -0.4158713083523031
P 1.9992363091697016 2.046023946549452 4.005713517463019 1.7512822357195388 -1.350749871717151 -1.5354844051864909
P 9.072468766811841 3.505134671688994 10.224361977291489 0.05564947104350415 -1.3871356094350367 -0.31981335158476537
P 8.485903304056622 0.37856349227860775 11.790327658358441 -2.2132007161388914 -0.5879056206461553 -0.2028736662722119
P 8.267971414156206 7.089934271949858 0.9588082065127581 0.7830628921107159 -0.8249837007142178 -0.06183965901461608
P 4.11198292300699 3.3382011185548532 10.792286636267026 1.0228442300425546 -1.3468153125494353 -2.532224481942826
P 1.0341684468725092 8.869669077831754 6.234357752137934 -1.6938332495734505 -0.9168381609233694 0.45678424451658106
P 1.1911767800241233 9.341699757720432 13.630083728263454 2.087542162896102 0.3538043638182294 -0.2829653295184804
Ni 5.696982281144599 8.77934581643774 3.110060162418621 0.2545613244544906 0.9663699491049097 0.5802247070621297
Ni 0.21851274084257702 6.9198708909235 4.516426238412385 -0.0944834131915663 0.6488497644296954 -0.4627075519795515
Ni 0.6967307051199837 2.3773439556441875 7.890647634487157 -1.0052404009178622 0.8119962873156145 0.28575420511752725
Ni 0.37413097926368394 5.315979778841877 6.258087110935173 0.7675084893158846 1.6431328950051056 2.145290168339847
Ni 1.4190714854373045 9.376071471239465 4.240916793954242 -0.6398956405602012 0.23704516994759822 -1.504548377729267
Ni 5.8267056582268255 4.067554405149601 8.380932824082334 -0.24725579193201289 0.5968990823940171 -2.1397083033766955
Ni 6.5534084599398765 8.425299309314832 10.849568126024135 1.8001882173916222 0.10067205850078145 -0.01537853933859932
Ni 6.337375144316419 2.9241803418216237 6.080232996155486 0.30612839789850504 0.47423535011349294 0.13908022596533468
Ni 7.919724017572332 8.027360020640412 6.0607820086992 1.6427927380568672 -1.5443089454566565 0.02566603730753644
Ni 3.197415256700437 8.271768562710125 3.078352092216868 0.7861353603884526 0.2991907902384073 -2.5304756175725194
Ni 3.480594189326895 4.268370929909697 8.984362701813545 -0.7085402383117926 -0.2658083581232196 0.18173379896980316
Ni 4.321831773906487 8.408625691654793 11.069433366066983 -1.2553732572873542 -0.5170624725813483 0.7498136431392829
Ni 3.06925209412304 5.735301525338501 6.346952605644255 0.3043360818847726 -1.4052878548640315 -0.7140933069195379
Ni 2.2541246052929353 6.635291524795719 10.434542608745327 -0.6157488681106685 -0.22155427340085074 1.9808462667987432
Ni 7.981982215644543 2.557896489606624 11.976201839625903 0.018552051970574503 0.18637078352118225 -0.9638196718792303
Ni 0.036370855839377526 7.25709339826542 11.20391445750068 0.0584260053473768 0.8988525229792262 0.32972598271278697
Ni 1.71025826600421 6.350834344141209 2.2542167143420158 -1.0441306502251566 0.45205701424424083 1.4424611214802192
Ni 4.415548031904376 9.3013597537763 9.03117477628795 0.9958085660810012 -0.3477563578519366 -0.8691100016094709
Ni 1.2373158945072886 4.006753033874068 2.3854100766565023 0.6305959604258301 -0.8951717316935293 0.20893349931304664
Ni 8.462941833964472 4.371711643648218 4.359317337217387 -2.566182584055826 0.297666640284397 0.523826273667743
Ni 6.1213418286929615 6.701516051307918 2.2309281631368036 0.696432399304665 -1.849202699617112 0.18337210590417452
Ni 5.874470779392734 4.794229010214974 3.865413577836913 0.6078265279397984 2.2530546149110355 1.352717279856167
Ni 0.6062984166882822 4.797039276100178 0.33573560412105247 0.23796433932775796 -1.0847684783511768 1.233182837233244
Ni 0.04014732685166837 4.842849429693771 11.934987739603764 -3.0661230522449068 0.526457540643003 -0.9218744377956962
P 4.36822465821875 0.029800097042233346 4.928232638414665 0.42920890600147377 -1.1516878658815455 0.2598850506602492
P 4.295881459160506 4.215530412161814 6.965019363184925 0.8601399369003766 -3.1272533438973236 -1.8718250650023183
P 8.777325056687507 3.516159560930948 6.205579313629887 -1.6396331093819632 -2.167133232356868 2.7523965302841695
P 2.7443985162290416 1.442333719771351 8.318644549585933 -0.2883739021285614 -0.7744795213170791 1.936867290114632
P 1.9574394784288915 5.656473097314402 8.392322389967585 -1.9206901661341371 -0.42852370700899106 -0.15624491067007928
P 6.422886177840117 0.39855303570553696 8.00417767680812 -0.26972234846564513 0.19318934910491245 -0.07758226656085347
P 7.43832265177212 6.258142564342273 4.76529079070342 -0.013725062895576361 0.7218238427945762 -0.19024029377891752
P 2.0101672095860637 5.52490753925057 4.3734034425088755 0.34637773233685504 0.09906486191466166 -0.7201282002597081
