# total energy = -340887.2111935815 ev
CRYSTAL
PRIMVEC
9.08568723903481 0.00000000000000 0.00000000000000

0.00000000000000 9.08568723903481 0.00000000000000

0.00000000000000 0.00000000000000 13.29782166967209

PRIMCOORD
 96 1
Ni 6.567689109227258 2.335312414313264 11.65443751407895 -0.5077324534296739 -1.0843650722651712 -0.4233542469929096
Ni 4.706767693266489 0.9029492464092941 6.297409896372407 0.3461908131370296 -0.3235453078233718 -0.12186000543230625
Ni 3.0440778058916025 2.0655129257552938 4.866564038271069 -0.4121246968256774 -0.6436959881428979 0.3118174778634823
Ni 3.60170278689032 4.462044702045444 4.636578032079187 -0.7425988705583985 0.9720083783376099 0.7657627102693716
Ni 3.957243907828206 2.981059477801416 2.53880728163367 -0.37217515301593324 -0.5428681207905425 0.8962703640743467
Ni 5.321387191582066 4.970207200615819 2.809803355227609 -0.618245152169961 -0.4647052991358706 -0.7504985850214495
Ni 5.711699238356333 2.9023410818133284 0.5728198846749035 -1.903666120772315 1.9703111715953743 -0.22077240092950365
Ni 5.768530213299257 8.059677100962233 12.770882243974865 -1.5032286304765787 0.8704490321358687 -0.24937438093691247
Ni 2.3443799303792976 5.519718662729799 11.615341801020694 0.8455031608238084 1.0890943594200404 1.1302736618718277
Ni 0.7571666657135807 7.491449122719968 11.406100236393907 0.8337442205156674 -0.2602118378720486 -0.4127877843309729
Ni 0.42998470098502284 0.11049195353771141 4.770061317686134 0.7869419154501479 1.06145680020843 -0.14701285054885005
Ni 9.079981629202106 2.7779761921220842 1.4395027010950414 -1.454090221078715 -0.6964606814394393 -0.4471009557905461
Ni 1.7035573094841217 1.7340125337860688 2.7634336408041555 0.17344841903255934 -1.5326122258450185 0.0012616403212429887
Ni 1.9040239171804703 6.78090293640321 0.698087891697775 -1.3757186258473468 -0.9834024791071644 -1.2254764697279217
Ni 7.7884148167262754 4.117333720537128 4.044785414890166 0.31483672430578036 0.2458252301330734 -0.808366403872511
Ni 7.558483324659039 4.14555386572861 12.904871602372271 1.520032332297479 0.3344573267501853 -0.17920614745194297
Ni 8.114145797170519 0.31573036427802853 7.072672525762058 0.28545158627544387 -1.2962442844701032 0.14878639750950506
Ni 6.915698195276625 1.0547483693283815 0.5394090862484268 0.8106246037790684 -1.1465592864057286 -0.6841129585073638
Ni 2.27251214272166 6.4772592621278315 9.382118896499781 0.1232417162711813 0.013574910470957267 -0.1929039566540097
Ni 0.15087238280011403 5.171882204741809 1.8656178077989785 -1.1515518545243135 0.059736496628684216 -1.1076253283446924
Ni 6.447403693196985 2.4090609392711717 7.185717557470666 0.6242566484713636 -0.4166102434008567 -1.7418588855231099
Ni 3.540619710225048 4.146198949536915 0.5748659814865975 0.4376434099220721 2.1523784426451966 -0.5036551980365068
Ni 6.08542081986349 5.811042144835298 4.782176173319852 0.05886206444353089 0.3069259540991359 1.4539248991454443
Ni 5.707174566010758 3.6388087343990168 8.916003142268472 -0.4867095713211037 -0.359086181042459 0.21599709102804737
P 0.25098666414281234 5.60144442126083 12.606108759390152 -0.40717095236482775 2.0415685243794646 0.6289658810215749
P 3.9076905685254553 6.326273308234706 12.975881701135485 0.7566514919967227 0.30939549868555105 -0.17627868939250285
P 2.4226622133702214 8.839338111642032 1.395739670398386 0.2338832272798488 1.215433740779939 1.1462533251295357
P 6.713841477401817 8.285556376430822 5.950136751005754 -0.8889666313240819 -1.2583269405990392 -0.2552447236747604
P 4.776473087313189 1.220153309190239 12.764366897510984 0.17540914230335597 -0.08686472030404395 1.3350448022770685
P 4.4341152988520705 6.586323854168575 8.278784813581106 -1.450885083877856 0.09984801993758934 0.26979691045732246
P 4.935745188152428 1.20755146070969 3.912950272985001 -0.5446848622843071 0.4710700650116339 -0.02302011504425713
P 0.33020659007763836 6.147576007646789 3.8440943907140266 -0.36608112430305345 -0.9433909717112333 1.494427487245181
Ni 0.9763116296509623 7.9443978987119035 2.763221035718038 -0.762394565128087 0.5147369097719651 -1.1619411681784375
Ni 2.0412177975382866 7.081739133259347 4.688293764992876 1.1480227583251326 0.9763059772716993 0.7408350937897564
Ni 6.072137544824872 5.987904136560149 9.46428621944044 0.1192567634815043 0.20617547695193525 0.38544795886543937
Ni 8.62534291534616 2.807368390993444 10.429362488001967 0.635232687866893 -0.04426771156912376 0.03823770332495995
Ni 2.6190675187804806 6.27626568455991 6.781915990552873 -1.0289770824131699 -1.3187226680782773 1.4462699537033479
Ni -0.27566975121354614 0.3533641902270426 9.49527023075145 2.1418178935205305 -0.6460830003178357 1.1024512403429207
Ni 1.3880295560360254 1.0842132536992688 11.539663476050336 -1.005223431636998 1.1516277020675714 0.6863094519380503
Ni 3.9865634212000383 7.209138642555857 1.7488630899082445 1.7593256748493054 -0.29831070162629914 -0.62952406751789
Ni 5.904452097415345 8.383009459922075 8.260659775705225 1.4889284118038228 -0.5651824680170267 -0.2416140202652033
Ni 6.988074781430954 1.0227849209112425 4.655274559695102 0.15946496026927376 -0.19914171003360542 1.3111235155747807
Ni 1.297227195751521 8.083645144431367 8.080315239984271 -1.1028443620162813 0.93988527255082 -0.7193861798873611
Ni 4.787157855743704 5.09860613553083 6.888404790204117 0.9932647166132249 -0.7368547689857697 -0.6795219967025716
Ni 8.151269916054098 7.10986842157642 9.398993743783793 -0.0988540314554362 1.1013526079621032 -0.1715311474051885
Ni 4.569937240406309 0.8064792342991468 10.710877061946254 0.44594215959575456 -1.2079050365030617 -0.7896516010718271
Ni 0.023382016629194754 7.2199415249231045 5.939698204704887 -0.45119312358204877 0.6626241925059685 0.3909166952894945
Ni 7.172732292980111 6.307565877793862 7.036808591726534 -0.402236748288004 0.07189910013314714 0.4877290137245536
Ni 2.313615792704359 5.662691040300038 2.7713727144900275 1.1816617865358165 0.3802116501671645 0.4419687767703034
Ni 3.8261374380558024 4.630747746448352 9.669272048069901 -0.4166986893496049 0.4269933864073937 0.17268685827618643
Ni 1.232891442982402 3.7668896702535957 3.984878934748493 -0.5088295431485946 0.391409575765513 1.083005215803167
Ni 0.4589335183092662 0.29961962330779807 0.6009991442729014 0.7227638381103423 0.782995014987258 0.4942483029003101
Ni 1.3318981790260527 3.7059701359622603 8.541071347194187 0.113953606101036 0.337538022558038 -0.6505752317612343
Ni 5.580883510582039 3.160456376322283 4.87781393646041 -0.8889897712525335 -0.08846857445605409 0.19985621960212677
Ni 4.275451939071372 7.648895000383584 5.8123586609454865 1.0494044970295862 -0.14111705388970533 0.25694627974689943
Ni 8.303600551688477 7.476412310005254 0.6115957815352405 0.12595345877538955 -1.5441130273957666 -0.47294671320905646
P 0.35290445444253227 6.050431837528526 8.117748272240842 0.6804540215985379 -0.44675179998124354 -1.0531655067339152
P 8.81229910581787 2.0264808125091225 8.12624611570433 -0.2143523563357728 1.5269414007124864 1.2456801983693062
P 2.1070436030477158 3.6704723551306055 10.673217796072406 -0.7872244796875733 -1.171703389771524 -1.1274333642095553
P 4.129326827959136 6.503889412017153 3.9234297048793527 -0.12704489206735542 0.26393633791148735 -0.1912607646236319
P 6.744342130140968 4.269155557674818 10.670172273642212 2.1319006344068185 0.006657614525833695 -1.0649794686497076
P 6.388946380202138 8.238792343172431 10.609148253945305 0.3374058678555479 0.8275046673638587 -1.2886045085366582
P 2.4405791890037056 9.036152272987131 6.014258990120011 0.05450250192325452 -0.9736230311228973 -0.6068376816639678
P 7.063776729188658 4.328403325477025 1.771469188829985 0.8544457147290769 0.0898770247678065 0.15223244707657654
Ni 2.5475904156828024 1.8175281727429595 0.3471286829363426 0.4282884510697333 -0.7512133517002868 0.8348117425482332
Ni 1.7447881590909942 1.388302126659253 7.4186818520056805 -0.6894562250971481 0.53128195861484 -0.8627961435763012
Ni 6.852670781498998 1.3181061054907437 9.206201816268786 -1.5218411033714434 0.4106301145580219 1.213606457763213
Ni 2.5767191296183762 1.77791457550057 9.572051558177135 0.6924101655191496 0.20775130607948739 -0.17266757500247681
Ni 6.392453455554331 2.300941258724283 2.6900031149066805 1.3041985063201733 0.3535778496297201 0.05473004455302832
Ni 4.24456060177226 7.326861894727792 10.687752170271638 0.08919722509196251 -0.2984688244707182 0.24947645373241548
Ni 7.315595642301058 6.608801844897398 11.634743377982021 0.6682729061513136 -1.9844671513807823 0.612604666054732
Ni 7.938773858185977 4.255490683763681 8.411710237979182 0.41212289705346444 -0.24187704411860284 -0.5954057856779423
Ni 2.906765811597054 8.454077707084911 12.624912498117869 1.369080808815855 0.10843704715818099 -0.6520335614743157
Ni 0.2531699548348642 5.208125011943619 10.342833126520924 -0.21241888675848578 -0.27413101905630205 0.286631465516158
Ni 8.757321611112891 2.264725708584796 5.862996831328682 0.5302216356711256 1.6110645537156512 -0.003314151974897518
Ni 3.7927929651476444 2.9339047599830677 11.89901059145722 -0.12506694240537813 -0.032758939598575836 -1.434849370571232
Ni 1.2056071235973342 3.659233359766194 12.742158751699158 -0.6386972493767259 -0.7058408371027586 -0.12840346297777885
Ni 3.650520185510356 8.593588437740163 8.224556888090005 -1.6804390876547317 1.0572913559768307 0.49068089726402586
Ni 5.969987160926665 8.019654647785003 3.779360684834996 -1.5875489870922144 1.1422519172796262 0.29470550077354407
Ni 3.480772287051741 8.738550580859961 3.4607846832504725 -1.2513780200850322 0.3441493572269686 1.8070000981071332
Ni 3.692005434365574 2.9623338759856903 7.214733608881973 0.30843699142702363 0.31932972708012747 0.4168251876251402
Ni 5.286425466309425 4.81978455934403 12.007534585095229 -1.179953031374826 0.5387684967998722 0.12323683117517487
Ni 7.924218586905631 0.20368930103164112 2.5325972142678044 1.4240967600404184 0.38599406117689655 1.139700354502366
Ni 4.581476063456271 0.6631143550314608 1.6763765669358803 0.5445282821017848 0.07887810255414157 -1.1995432948019276
Ni 6.100684774764227 5.951897557231804 0.6347161303661369 -0.14586793831112943 0.701860769409088 0.6179373911215551
Ni 8.207065122628757 8.95609828094523 11.951177883036722 -1.7490780289793681 0.24873674735291354 -1.0096593559211642
Ni 0.0523126625785563 4.907743099459529 6.073141513287093 0.5861811817558807 -0.8727010613948389 0.3911599216485522
Ni 7.567414555413459 6.639384268823518 2.8970368574853227 0.03105738352643684 -0.7141899803984022 -0.5963378105739084
P 8.713128827400281 2.1225982999465622 3.623323997293465 0.2477928953824055 -1.2043291462263452 0.08768644487439092
P 1.9011982683863455 3.83147073658362 1.8502593617488559 0.3353901229770998 -2.0691762587944043 -0.6021629018961178
P 4.673186992484867 1.7153141890326655 8.678810368798457 0.5535312569313435 -0.9093698775707822 -0.5116605848394865
P 8.688415757560993 1.8570418274234988 12.53347686541873 -0.6187197778135345 1.509381537451852 0.6265765548537918
P 6.4592150868701745 8.16378999334768 1.5337576226070935 -0.9639705956347979 -1.0154919034425414 0.5217444514380498
P 2.012470682475232 3.8227121338905774 6.2521168359107016 -0.14667809291725062 0.0774519116305763 -1.063078652082569
P 6.965814847200713 4.21039841699442 6.127025091224184 0.33137585961138416 0.9903645122472943 0.8125151359335621
P 2.476649368144138 8.805775582235292 10.435891462997008 0.16500105959615455 -1.9941974912946687 -1.6647607576875265
