# total energy = -381169.2786667115 ev
CRYSTAL
PRIMVEC
9.19000224541401 0.00000000000000 0.00000000000000

0.00000000000000 9.19000224541401 0.00000000000000

0.00000000000000 0.00000000000000 13.45049722582254

PRIMCOORD
 96 1
Ni 0.10569972731706603 2.811276760159839 3.3546080600172132 0.298266478651925 1.3134729896435637 -0.3002511131821216
Ni 6.126138061409027 0.005216245150689181 5.016133775545167 0.00961335472004796 0.35491122372916295 1.6697150163690082
Ni 0.10503804717110123 0.7920678947279759 6.993034628644001 1.4742494696354094 -0.4637480774289239 -1.566101872962032
Ni 7.596501625767143 5.826865645390365 6.16269497047338 -0.6493760692468107 -1.4867419456754651 -0.8768312815131286
Ni 0.31633641178293315 6.9145299553260875 11.985791796032352 0.8493497882634082 0.48961414656240837 -0.5291962797304047
Ni 6.560641357259247 7.877807587822455 9.9147917551755 -0.8576233411261102 1.5951908199081883 -1.4286643248064428
Ni 6.841873799298342 3.163924707952996 12.878998420071252 0.8979680634917439 -4.032727743068442 0.38339441877052033
Ni 7.993123733260877 5.6325338625213135 2.6170497433138986 0.8024153284953986 0.8564447474369765 0.9434128260881042
Ni 2.065756225700081 7.678320213816096 3.9577818960756845 2.4114901054745306 -0.48565721879718937 2.332886339627698
Ni 8.591356105229275 6.991275662255977 0.6030745840365769 -1.9533346916420362 0.4213323314668744 0.15127702514184269
Ni 1.6693362982509472 2.153548315066772 5.126953252991637 -0.9301374491354368 -0.3895493826283226 1.5398257128743225
Ni 0.2788338515099726 4.307500990222745 5.247845891660216 0.37085154910850326 -1.283999405664479 -0.4145495042170861
Ni 7.099965816232723 3.6287182504851594 10.02956477149411 0.5553636821543919 -0.21898059913640353 0.35865012194630486
Ni 8.63126828403379 2.2976659268587167 11.532630958066333 -0.80670881366443 -0.435603753784224 -0.1290524094156874
Ni 1.3847219354658098 8.895214332259556 -0.0053154971725839 0.6920684659090145 -1.0001082218976194 1.9619496870045567
Ni 5.533456450665112 0.19245150845426778 11.518817466019113 0.5328973827310758 -0.10913304478394109 -1.2759940188614993
Ni 2.7696092909681105 1.7253677406113275 10.525282670848101 0.4823860042450853 -0.5272103596486275 0.728777391294274
Ni 1.271289740442983 5.299920119147647 10.573838965559483 0.567502631509771 0.3417906271868049 -0.8070600263562617
Ni 5.4682441962794694 0.1598968452727996 2.835498848503164 0.430898892109387 -1.0216126716282987 -0.6577774059366285
Ni 2.8716642634811542 4.008642124295309 1.8703584025958646 -0.18047627241361822 -0.3126212047117003 -0.3469757709321702
Ni 4.372106704474586 2.5469906818590644 8.805932543564241 2.332029390944042 -0.5593897725946495 -0.28687700586806075
Ni 8.777508786294039 4.576492349561491 11.91430185126187 -0.759583320931537 -0.20103481329126022 1.1740374372213394
Ni 8.631929964179756 6.579637091449653 7.836999383820279 0.09684317167299451 2.4110633023497576 3.3399841054692736
Ni 8.988410142818292 4.308980580549139 7.83463203929805 0.33427889219079204 -0.8686865409188071 -0.5801362611133816
P 1.78305338333662 3.820274652741969 6.634632820581557 1.408476279894342 0.11380525344862981 1.4200076775727093
Ni 1.5678419158615686 3.1145652070644267 12.225547001921685 0.9726838071380797 0.3748838101963479 0.06860783097638508
P 6.344676309617958 3.7865013952916824 2.325348969965519 0.42010308704546356 0.06721197907012295 0.7114126747635813
Ni 7.856376503094817 8.559448418190527 11.673403409120343 0.5553891360756887 0.28650445301999045 0.03482045011329487
P 8.019351999046759 8.005998926101109 2.9000751547485173 0.5202403560886976 0.20041620587065484 0.006795425655278619
P 6.125310961226571 6.576981180863767 13.286172487892719 0.13048631364873656 -0.07121492958192896 -0.7216531215446669
P 3.3926914284182983 6.057599026289507 9.757434107462842 -1.7779510032599768 0.9396137640569882 -0.42680903831072947
Ni 4.752903628477329 1.2172433385204968 -0.06812640402849536 0.12807693287629557 1.5465560896196202 2.3098646819215447
Ni 2.443437739015573 1.9672210239634895 0.9544175515418588 -0.10871266941707085 -0.9842581422392404 -0.9658212756902915
Ni 3.881911996338996 2.6831957019055133 6.3118073483671555 -0.5434502185462576 0.2620118671952649 1.7094069356419916
Ni 7.428894368793447 4.401808791026784 4.431643213608174 -2.091075372860341 -1.199790377815727 -1.7097686898567845
Ni 4.376821175514585 7.7397186173604124 4.386354883617694 -0.2564207462607326 -0.3959205762619891 -0.9132692126251885
Ni 2.305881788671113 1.5329842381720618 8.093715657451176 -0.506926669698927 -0.9417094702437523 -0.8747381464295257
Ni 4.275767913222516 8.18934865654755 0.3788872415814723 -0.40446152385346473 -1.2835206662558476 0.2676089016670682
Ni 2.3257138130460024 8.281055686777865 10.257470388769455 0.10617293371435263 -0.12352042385386468 -0.18385521618818015
Ni 2.0360357591438287 8.742237558513304 5.9360272464711095 0.20884582469524673 0.5337563882972614 0.25289422116471283
Ni 5.5486475240162205 4.516693006369922 12.093584086811033 1.1608988429568525 4.179013485643281 -0.6286252098527044
Ni 1.0421094698864521 7.482692640661196 2.154191615208682 -0.955193106552484 -0.1480646888521321 -1.9305251499466882
Ni 7.958642845654489 2.1008528434422975 8.095436944830887 -0.839701980760999 1.1296452842592093 1.1393383431772572
Ni 4.802639919449017 2.292142735640316 2.47303505954466 -1.4840607992988764 0.8827304206063831 -1.5747304951713075
Ni 3.288430855418706 6.296088768899681 5.746429233646316 -0.6577681499652478 -0.4034161133080858 0.4021729849296041
Ni 0.09437488781883792 2.877858324847547 0.6736960736154811 0.3306230406057596 -1.7029753210840346 -1.0656194162265518
Ni 0.14664761935005718 0.8898440022971134 2.0546308092458454 -0.05317298447855358 -1.1167283190872253 -2.342758861546404
Ni 7.7775630457087885 4.475374757255231 0.8287856288278059 -0.6917748459279957 1.4808299510664045 -0.9784551624042181
Ni 4.722356061738621 5.287495236406752 2.910996553157748 0.31645883329023566 -0.38809310979777034 0.6593298380254128
Ni 2.214275848463097 5.455874453550738 3.5342523816462514 -0.6831773340669719 -0.22105367961534833 0.2675376821095005
Ni 8.391951441241162 8.168864142028722 5.900315817593268 -0.3201596791805906 0.038196308564063246 -0.14946594007503292
Ni 7.004224375112427 1.1410214617061627 10.065504112422229 -0.6281863225430729 0.11079860541182207 -0.3331581483227875
Ni 7.691857086802292 1.1969885740523523 3.903697815144887 -0.6075683891824052 -0.9405388469744188 -1.24466384128965
Ni 6.179090853090266 7.059355197274133 1.9523800896896206 -0.5304350372335123 0.5229032476328414 -0.6235488237710616
Ni 5.157052347631413 4.994306601730154 9.89454893770999 1.4030725923802676 -0.32140563577254966 -2.315834012131102
Ni 6.510702886242958 6.921909526954001 4.281292942441322 1.7380528815134586 -0.5920422685223481 -0.9958296491269236
P 3.54597147223145 0.14919233091141348 12.111634169792831 -3.5410065774653594 -0.9138615947935487 -1.4359716571011334
Ni 3.0808287096222498 9.129862654022324 2.2915747935150295 -0.11498873223376971 -0.049664714214978985 -0.9116602162668557
P 2.1731689693950336 1.7185395691050518 3.0534507745827533 -0.44964017727263206 0.9315939790763053 0.4736771636171777
Ni 7.723810723851176 2.4674971643230155 5.745110468355399 0.4200843179923862 0.2568200385816803 0.6919851621665889
P 0.28496266386197155 7.354712672429171 9.796346414046788 0.4867885041881553 0.9690991751106147 -0.11048210261266779
P 5.134288712609818 2.7811519335143857 10.890638553444592 0.11475064808103463 -0.851686921037017 -0.37315731442354444
P 3.608408346004851 7.034321631751799 2.1255684348944883 -0.7601903583879166 -0.08753140735376537 2.0400109500843575
Ni 2.824804443144008 7.046764894496747 12.27601297905434 -1.043621828909538 0.051733680928865745 -0.37000642749938856
Ni 5.235874995019469 4.8562360112721645 5.328024064347298 0.06438273715144396 0.17125629647724697 0.0684255397622499
Ni 6.990255572030948 9.005816006657977 7.642747553968865 -0.5556588447973075 0.7486484191865881 0.21985425999060845
Ni 5.477489338318922 2.3544785193914164 4.635888251664062 1.8675567766442676 -0.024198194512758328 0.8421399007785304
Ni 9.152846849092573 6.6062053873105455 4.3734695817752325 -1.1259243837641966 0.6663931726300975 -2.815591417775099
Ni 0.5601876015758278 9.274458145919686 4.07138502513622 -0.3453402922112762 0.3624049610030468 1.4514836366938035
Ni 1.8374306253320885 5.739716856165584 8.136110974803465 1.0028351339104793 -0.9195393619046163 0.6955008886293312
Ni 4.8931614394178125 6.953955064023157 11.22359232689327 0.3323847604918727 0.41760346055206143 1.169721583454805
Ni 6.448872552603359 4.017133686168525 7.679547998086941 -0.24554035190280293 0.6046440164467586 -0.383261749847398
Ni 3.9487141210753585 5.715197930756777 0.5400789581399169 1.146088517416897 -0.11181779070495582 -1.1635463078820283
Ni 3.538150780506227 0.7215015451612352 4.537471600953622 0.7770778781718746 0.8402583674851013 -0.15958785900038322
Ni 1.56309068481346 7.953790524584081 7.929861597305425 -0.8317212765483676 1.3053529316395907 1.0250147553313123
Ni 4.239017095115388 3.3610043014282063 -0.06650069266986795 -1.4589156674918164 -0.3115773368282182 1.0747085230120135
Ni 4.193967705177617 4.93591332884876 7.56086095990491 -0.3987441617537133 -0.23288435370168922 0.2555373152145147
Ni 0.8989871353140632 6.186075254631006 6.166367295283485 2.1904397682932917 1.3906523643390438 0.9917295109156211
Ni 2.4906835394378657 3.697137815578325 9.12477690690042 -1.547688917672483 0.2557085506850564 0.3316944192930675
Ni 3.4960697612232714 3.4131483729310435 4.209548434614684 -0.8623546851635084 0.777692371827422 -1.148099634309655
Ni 4.389319578271698 0.2671956329426139 6.831130686928441 0.13913447624203779 0.5254445259974564 -0.05637940723099322
Ni 0.027081097974014933 0.5726602723272642 9.302861685185428 0.6071248738870835 -1.1513752197371332 0.455492522288351
Ni 0.8320894345566162 0.5770291992910375 11.546995850235186 0.7742105839264085 -0.022502809088206406 -0.9044081626901327
Ni 4.322453123521144 0.05431107398087195 9.312761155369223 0.5079970199449704 0.7035247873750722 0.289826575414688
Ni 6.922782577146593 1.6127626457709567 1.616211653531798 0.7255887091536471 0.9361517736503168 -0.8883246268647087
Ni 5.8002054495092 7.216881022023893 6.352817732413933 -1.159350781743442 0.26052936911246743 1.151140735128824
Ni 6.438405140294277 8.843042690750638 0.2036715819293848 2.1967546547677266 -0.6780968342202709 0.49676284179204777
Ni 3.4129002428763067 4.682857433025333 11.533747543312648 -1.769016162664192 0.006368879640821289 0.09847479373914654
P 6.376188826569532 6.473896928123667 8.303852405806758 -0.1309398562463874 -1.1079495444533307 -0.22172679442297297
Ni 7.807936002408979 6.085371212415974 10.275210768682934 0.07393824205036298 -1.2180773490503731 -0.15664471721165926
P 0.6926026647862226 4.523824447943098 1.8397189358368833 -0.10667712704428081 0.41592015931236753 1.7798762453071477
Ni 4.031525229343259 7.408998014404367 7.88205888276028 -0.669495465704505 -0.9883937616741688 0.8523183839734289
P 8.434060030530198 0.6660251789233032 13.335844448850215 0.4668488278414347 0.5306057584834216 0.4062026749142875
P 5.977260028566947 1.896843988438511 7.022759690201266 -0.3428002993982419 -0.3696703843162085 -0.3033040410758325
P 0.19726523151616174 3.424939145532055 9.74888005357584 0.3602210659778506 -0.2698843279648062 0.7601836735196973
Ni 1.5008192310765507 5.648671506081233 0.29505236708773197 -0.05520878396165976 -0.041335111303361066 -0.8747183489351839
