# total energy = -381179.1377732706 ev
CRYSTAL
PRIMVEC
9.07638944617108 0.00000000000000 0.00000000000000

0.00000000000000 9.07638944617108 0.00000000000000

0.00000000000000 0.00000000000000 13.28421340998523

PRIMCOORD
 96 1
Ni 6.290073908692631 4.851157612449868 10.27575060719667 0.8762710381342843 0.03920546655486796 -0.03456385401779854
Ni 2.641492492331201 1.9242671359697945 12.435750632878747 -0.23834614814720884 2.4630036999727905 -2.2899926255879657
Ni 6.419711976610145 2.979215860611172 1.7194284600485692 -0.105777755158463 0.895620903415806 -0.5350877055141753
Ni 8.520387814396422 1.7055987657206326 9.024816316726257 0.8540479650700259 -0.36571397077162177 1.7324278220171971
Ni 7.875573891616612 8.855887467305688 1.1178363029638652 1.2131770835352784 1.3478954329874915 -1.572698295232627
Ni 8.246181018215225 7.096701699345679 6.615006829215872 1.3426051311228295 -0.030438518995515317 -0.48939585990401524
Ni 3.112575248128644 5.178670042803129 4.439570588305392 -0.1115084869946531 0.24174180409231916 -0.8197203954327497
Ni 2.8826340024083943 5.9527952834868 1.9559273970150846 -0.6352956798943447 2.4007840319109364 -0.24765354159106384
Ni 3.928606178063535 6.656923410134214 7.7060124178640494 -0.6690714907932089 -0.7011686284380698 -0.46569183141885606
Ni 6.142764110869955 5.419330504249109 7.845748876481349 -1.709669959495391 -0.033341294464607096 -1.5569227775659251
Ni 5.596111338025587 4.066167933812177 3.8109217148122223 0.9014835328441699 -0.24656570784352375 1.3246390335627123
Ni 2.9347324768077874 0.5888706898864132 4.587756257692447 -0.79582379132081 -1.985700509567251 0.05416980117418412
Ni 3.683189688641026 2.702240765703177 4.820203494489643 0.9791334194181653 1.21689541292713 0.5556830131670236
Ni 5.484862034765418 8.771858255460812 3.9034464270121205 -0.8405121353671201 -0.8361281473668116 -0.30736792673256097
Ni 6.674486223368155 1.4211538024449195 7.60735115887993 -1.4547738774093009 -0.3998908737636468 1.2413797712217394
Ni 5.2105009399666615 7.60544239421683 0.5759395580960271 0.5705385901226174 0.5401193544008117 1.4407868191015898
Ni 6.198148238184432 7.923370157502885 7.068941562768929 -1.0691793656636683 -0.3035431536698321 0.9104109172407868
Ni 0.8795774541182485 7.275551949875305 8.294211454944618 0.6974040191893152 1.0091117109478105 0.5647548935613048
Ni 6.062546982517717 3.6452140759429312 12.53447905714345 -0.14535371767887223 1.787191548021638 1.5469548677199356
Ni 2.223252474853143 8.657096389553855 11.619820450864731 0.4372477171455502 0.022201218687387572 -1.146781943939496
Ni 0.42156379122806814 1.5529702037867998 4.319720498574689 1.0938776397412968 -0.15999409329986639 0.5097571971691867
Ni 5.390258829423105 6.155316757227857 12.119028214087507 1.169289895234025 -1.6603957958506115 -1.2596304899018114
Ni 2.015194403658492 5.136945881337273 8.794282382786795 1.3832876964438563 0.4651953513984117 -1.111091689626738
Ni 7.856005196354401 7.290219394932695 10.459737186413165 0.09522543356391341 0.12063950276164385 1.8700476613869212
P 1.5310144181470553 2.4948815764821766 10.259463934293837 0.2616405998987752 -2.5706539895636182 -0.3774767677345047
Ni 8.513880043291133 4.2269198641410375 0.8158258035374297 -0.6914503727090414 0.006584338085737047 0.1197226473743293
P 2.002777903139612 7.381736627923824 3.7448991516365027 2.3562859494985613 -1.4565463959286915 -0.2024689746346255
Ni 9.425013379978088 4.3281125280920545 10.054940209080218 -3.5972831405699015 -0.7301084514008715 -0.18420000112210858
P 4.030125592028207 2.6664979447650565 0.8106649685995385 0.4242955278602564 -1.4876852834253413 0.5338162950009194
P 4.913258267822804 5.656741618337076 5.786085611242302 0.6957718829025308 -1.154192120360638 0.30374010017198655
P 8.035363724683044 5.203521196619425 11.758242648316 0.27507744212997143 -0.12278971633542726 -0.1266653972407496
Ni 3.257743018084027 4.224160641803509 6.588000032948381 -0.33607840729337607 0.11451899168620278 0.4283427013464364
Ni 1.7995757002034412 0.5155316493216084 8.945562193275375 -0.9526852525289657 0.2835008903069763 1.4937762268144275
Ni 4.834402597860795 0.6743965983216127 6.253250997431595 -0.59136606839093 -0.03581598125734477 -1.2571910272223832
Ni 7.492577493666924 1.0725841489894652 3.164671907250184 0.14637984495054146 1.2440909995053153 -0.7337205942321622
Ni 3.464357943385037 5.774516845481071 10.508914878746054 1.7292597087018604 0.9639240586675785 0.22687414295186734
Ni 7.433299595356395 4.826560597533081 5.907835389246836 0.473049814445824 -0.509991938887812 -0.3137800009064919
Ni 1.19531508467389 5.754330955748623 13.17827188613059 -0.9756081798737262 -1.8071067988883265 0.028050992599945236
Ni 6.639832569142217 6.873431599737547 4.818423614554153 -0.465375842840334 -0.7387116196888504 1.457902909956586
Ni 0.21168771926299915 7.8453313625750125 12.698326036212762 -0.3171340049803893 -1.3315290758143261 -0.8252611227453207
Ni 7.299495464764782 0.011357285891282421 5.3114267580731935 1.1539496653325287 0.14917026321148505 0.9460646618886546
Ni 7.847909057127177 3.6536551179623453 8.059426140271935 -0.9885295159210846 0.032920661987420725 0.09138651943379744
Ni 7.616433901620605 7.774971192968027 2.899438937138443 -0.8183219724233262 -1.423948150277696 1.6887920876051172
Ni 0.2687727619263346 0.7485407146145056 7.0294874062590464 0.6813299964455879 -1.0567529669748574 -1.3055617052162871
Ni 7.12022770032882 8.69451834250659 12.263626894435774 -0.7718896491027158 -0.05391577618184908 0.2015274366569626
Ni 8.158330646488443 3.632361908739179 3.5110968099215656 -1.1270960354747943 -0.8012377632475298 -0.17563822759502654
Ni 4.947548866478014 8.23103252452662 11.505244650937774 -1.4154655667279816 1.1241161269108642 -0.42551165965554455
Ni 8.98208558369056 0.4255256351436318 11.111739609493378 0.43447786770989694 0.6526961347589791 -0.7976029947084198
Ni 3.641111547993711 1.143243839442301 10.253858356281805 0.533991644236519 0.27191935611696394 1.234950470656628
Ni 1.403890510056828 2.8344746809513937 8.06419487519344 -0.5535525970875821 0.734484211871064 -0.5427647624434588
Ni 5.153791659819029 6.344958834597357 3.1473223891640445 -0.8667888096754621 0.44318208035211415 -0.695926406202524
Ni 7.97030416640868 2.262398941766834 5.976726999070229 -0.5409271950140878 1.8949235986929946 -1.593810394620894
Ni 7.251826268328264 2.6703917157611086 10.91169235946683 1.7024626431136742 -0.19544523501862468 -2.1669013188517194
Ni 0.8704239155412818 3.8377787506567875 5.360645294157791 0.2512353454050512 0.33026899970045054 0.7710548119062463
Ni -0.3441603435489692 5.806284207919725 4.136345667994873 -0.31503007126350907 -0.40234190640730066 1.3703997847375946
Ni 2.14136529087556 4.157930229313548 11.364471668666047 -0.521040997613122 0.1903066282404787 0.9897854998153728
P 5.728880760240626 2.8502766746673074 9.340648341730288 0.8550311549189017 -1.4805576712416244 -1.1834566736527103
Ni 5.662450667186766 3.247223482922198 6.492021754631938 -0.7984638000468184 0.26207357367113576 -0.5229114751629574
P 3.0645429961213986 7.835129501037571 9.585675454053193 -0.640593180847858 -0.42174345086236403 0.3830925712593854
Ni 7.49830469529515 6.50439468848233 0.1893144197169181 -0.163978274758595 -0.613296549915434 0.5351828363311428
P 0.5369011002146279 2.1303284015254444 2.1327136766251242 -1.4773821017271203 -0.028321215542196385 0.14518376775991126
P 7.400706281494335 1.9667264849663733 13.093212504103777 0.6742630622964775 -0.463770188916111 0.788987485125267
P 2.2698688101345517 1.8188357982305339 6.284149749417284 -0.5685961216842659 -0.065880404742893 -0.3856965845411357
Ni 6.550076155669116 0.10589786414764528 9.841476240437434 -0.6445097422934448 0.907645695790824 0.7550106139591901
Ni 5.661434111588729 1.4052701212255923 11.926619653269062 -2.0504755970611073 -0.5419808330895828 -0.2562911626614038
Ni 5.36304781439708 5.285281311147254 0.9817140625531571 0.7191056725324648 -0.22835612681403253 1.2692093918394982
Ni 3.736522551980893 4.073719489683309 2.4408017263055375 0.9346528205072872 -2.032678678089002 -0.298558298860731
Ni 3.6900151333707027 7.3894606351910515 5.254928957795509 0.6146517783917479 0.8028053648449658 -0.3723258196611846
Ni 2.5003909447679655 2.1707637157152178 2.912271136285805 -1.4260999065133761 -0.49863486200377993 -0.6160882537279583
Ni 4.233100885232673 4.1773446259582006 8.688845599213973 0.11897497057502736 1.2422724582393379 -0.39005023352414114
Ni 3.438054567285831 8.585937497691269 2.394572045206954 -0.20974648213264518 -0.7389224501480758 -0.2480649180968695
Ni 1.1637746319669402 4.324445666827708 2.865231841264499 0.9380595321959908 0.11154653932144014 0.6931560425462384
Ni 2.474305402011196 8.60846509585491 7.021836010105965 0.6997370381978659 0.13498085908498042 -1.3877508744215328
Ni 4.500119181113467 8.93752958877303 8.419587250461792 0.39320677687525185 -0.5035801218241973 0.6952116395236866
Ni 5.337443320271524 6.861605064521099 9.603795557588201 0.7875265843090243 0.986802505927649 -0.15541907233467428
Ni 3.194707494616469 6.803851999607625 12.80602102543551 2.5241363056180526 -0.7313248403064759 -1.6541457011758416
Ni 8.032577273177711 6.063155100598686 8.72776787931274 0.4851741085131838 -1.3601523959779735 0.016320591536894472
Ni 1.0758425727367442 0.6680794313909545 0.25371140157470506 -0.22194430975041776 0.8398241081611602 1.1920413299979278
Ni 1.7327734751895847 6.218951322387117 6.178208318601151 -0.9248690016476458 0.10345990565856375 0.2263565798855005
Ni 1.2598482123707 6.360052869950352 10.7300837942386 -0.926828696477178 1.6722609227193137 0.5449800249272228
Ni 0.34560258180368414 7.993476188210362 4.7192168645750145 -0.9215890453447935 0.971573090572404 1.3938772990342447
Ni 4.329809812885205 3.4627968044309085 10.865649651987171 0.2176837347018509 -1.1550632101116818 0.4046718400920579
Ni 1.7815409147275536 3.427371657117175 0.8287887026902544 0.311812849877792 0.010062526442324604 -0.8265279052728862
Ni 4.671535868832447 1.57124097538366 2.8760191299097393 0.3922055893042471 1.4520086559593381 0.6033890609937349
Ni 0.8547444530804889 8.88236329480099 2.5985648016483838 0.14272167937266386 1.199855683836024 -0.855453844278617
Ni 3.7844005053705794 4.3437057648548 12.85547827055786 -0.2973563081328298 1.0701630697331763 1.3186133961939226
Ni 5.838877521781785 0.7768899088547611 1.189668662910151 0.27590070936221517 -0.6122485682668939 -1.1643436069723432
Ni 0.26165596510114913 2.656223472113469 12.107005628862867 -0.14960066588068427 0.13851998258649048 0.7389360769948307
P 7.148518805677759 5.623866936407703 2.40209092607672 0.30835060236080447 -0.855461557588101 0.03249103064916985
Ni 3.6681773407914444 1.9550905539245578 7.960418163217771 0.6309839398928682 0.7867670804351805 -0.44408608022362234
P 0.400017350744319 4.894669822601557 7.498273835571639 -0.18858604600494616 0.5148816628799455 -1.7262389195976657
Ni 3.8144615066268153 9.501073522045495 0.07543568648575598 0.5729019481484714 -1.273960533371238 0.8701842085102561
P 1.9269718999717143 7.642274381867133 0.7656751222749891 -1.4282634898235984 2.2813999988229487 1.9508687466000467
P 7.906016101222111 8.811621916844741 8.312808976555132 0.935768422168969 -2.162155319526302 -0.5597294153222554
P 6.02899157139323 1.707758946366461 4.726523357935904 -0.1524227087105117 1.7443672537672603 0.3754993322931598
Ni 0.45173461679444865 6.5344466133492976 2.202589167045189 0.5465946777125102 0.15026066806218638 -1.962244592537156
