# total energy = -381168.2779682059 ev
CRYSTAL
PRIMVEC
9.29652305924643 0.00000000000000 0.00000000000000

0.00000000000000 9.29652305924643 0.00000000000000

0.00000000000000 0.00000000000000 13.60640120415687

PRIMCOORD
 96 1
Ni 4.314042087213133 4.717139313802484 12.210152457167373 -0.38911152375995567 -1.3202663584163132 0.3723813554894684
Ni 9.02381855499489 2.48251554651154 1.1720842067519404 0.7521975699904271 0.1714540143103499 0.8572356187693883
Ni 5.021014753044322 0.890722156662119 5.513408799289607 -0.9375579099692241 -0.06644013390110494 0.32946501574191644
Ni 8.821061393742266 2.9079151311864035 5.152172885006742 0.6447815078975928 0.7311754592128052 0.13395678869584027
Ni 6.921800388259077 3.382074977703083 2.2139250593804003 -0.1047742535946131 -0.9647182724340997 1.0578870805793008
Ni 8.656559423620067 1.249722257222781 6.940610972398395 0.6185680827270185 -1.238919482606705 -0.2847324487212322
Ni 5.645490075961444 3.613837289946453 0.3984173570352665 -0.03395990188521249 0.873281102268025 -0.43527542391052776
Ni 4.442148170755598 8.911507263610527 7.45479699763003 -0.5475572987360957 -2.1075792840526346 -1.5717541861518027
Ni 1.644796584675909 1.91880229631093 5.766800401371141 0.24242366065069215 -0.6111777038002184 -0.14129625978004698
Ni 8.003971415896528 8.3134712514042 0.39921592833978736 -1.9274704222807642 -1.2804903640699559 -0.37945240340363684
Ni 3.6594925131886185 7.5652127280249655 4.799481404786567 -0.2218982870038307 0.5049415209480981 0.9583465645798013
Ni 1.8347989167108063 4.927119873234533 12.737822159000604 1.1343018091946142 0.5477161929114632 -0.838704135624104
Ni 6.467116756910863 3.0532755609592606 11.709123800588689 -0.31017171472994326 -0.3419973438809723 2.4246382128207147
Ni 6.1644126795359595 6.902147539158295 5.201550435959386 -0.21603720023736345 0.30294408663325245 0.7681520364371546
Ni 3.034803370248166 8.405655571027355 1.095919655137521 0.8326741273799401 -0.378411106623316 -1.455142059381997
Ni 7.48714052994154 7.401119804903917 10.004514318169393 -0.4251558189780226 -1.6140161801448072 1.0697982301945896
Ni 0.8001526430412372 4.880423439443982 3.729990834184813 1.5288432457208896 -0.5761996450631367 -1.5572948161933633
Ni 4.684173844118769 6.967148826250378 11.95859784798192 0.611316800481244 0.5111805598792745 0.7966303463825055
Ni 3.624695628522476 2.3784223812412226 13.581460216873353 0.7323052019418743 1.3322582406708667 0.020028122295468735
Ni 8.311305161602649 1.7993140893609088 11.227498846300994 0.29089769699167967 -1.6146152471813868 0.7225036424704202
Ni 6.906386753533866 9.031683413244304 6.268794966663908 1.1820821619026867 -1.2376624702711523 -1.2814491284387994
Ni 0.9289317948310508 5.50979802985217 5.8605493257737 0.6229898659437981 -0.8680748754767372 1.2287461416181291
Ni 8.71645691972051 7.3891458835974815 8.181433668389305 1.919252405246346 1.199731499553334 0.8447331154270032
Ni 4.774359411349934 1.1000575374150792 1.7772952752193756 0.3270294097172303 -0.16171853219014082 -0.3052112854008744
P 0.240583782684113 4.055524382485351 7.5017397892735485 -0.8562038350707641 -1.3534112205993982 -1.094589835316973
Ni 6.611305824816786 9.122724260568784 12.06027856559772 -1.0904467596828769 2.2578427803282985 -0.6052443690349188
P 6.447501093901096 9.116886044279621 3.9979686804665007 -1.0203458891007329 1.2309740025073832 1.0313324700192237
Ni 7.085558636561 6.122615513236473 1.0626585560302475 -0.9993787999307627 0.1418192221630525 -1.3948509758014236
P 5.0761431329722475 6.398322488535374 9.428092721364827 -1.3717863806724762 2.0997088801656227 -0.06998465671925368
P 2.070233355441786 6.250386921959813 0.7572789394069023 0.26960613460275507 0.7806450266978426 1.1490506853690146
P 0.7845242586404219 2.6492021994807984 3.328016627544079 -0.32213017264340005 -0.9732000846528659 -0.5801740563298524
Ni 4.773355386892563 1.7520784572506576 11.051159613756834 -1.2116130814822683 -0.17288894698466353 -0.609383330903957
Ni 0.03355579887855766 8.186127482727517 6.047705062541493 -1.1782774434446157 1.0374740641405875 -0.340339239452259
Ni 8.190840819763515 4.958411968822627 9.041997905239251 -0.10224660207675296 0.06320620034483954 0.1134139315474821
Ni 0.47512761453531316 0.2723704532826902 3.943869425607382 0.8576079145071422 0.31056175107951034 0.008915043101442711
Ni 6.065748683553654 5.13326096876941 10.727653637068821 1.4108144411092156 -0.10414459043041419 -0.12402307452189608
Ni 3.827424900206838 4.389622817198637 9.487090314062733 0.2968449157140501 -0.41069362080610555 -0.15309865173161374
Ni 1.4283921280212295 1.4999009810407242 10.470030257829922 1.5469065309805035 -1.1315622987762641 0.5599806121011129
Ni 1.1532336475647813 2.8652440917480932 12.764967075788386 -1.60976228996446 -1.053081174550225 -0.480081781591941
Ni 1.352300089284287 5.492971323668435 8.449806616888013 0.8669862703982487 0.6784989547546959 -0.5474017469948379
Ni 0.5352370713545341 9.138407494453846 1.2100660801134133 1.8217546307084884 1.1688803185004322 0.9320963726340205
Ni 4.917730385253554 7.960445096364902 2.831546056071408 0.2644775551269381 -0.25582476454794656 0.21361419261816758
Ni 1.9506614797869841 7.3271194837865 6.814970326690145 0.9645079561955066 0.6702369718562199 0.22220861915539797
Ni 0.11621025302715673 6.838670881797777 1.8088625478809714 1.0006054732490122 1.0055363348917261 0.1351225268691673
Ni 6.203104807235794 7.298616345024439 7.68734393639379 0.7587891071650158 -0.04003850397912459 0.41284614837273415
Ni 1.1490781018939917 0.08688158304459026 8.017013507667336 0.6634274051335542 0.750369772753069 -0.2895830919453142
Ni 6.013790417884652 4.303639278252029 5.751915738790601 0.5928699066299661 0.7779412546134343 1.9641893749683526
Ni 7.867228862716114 0.954697107642222 2.734342543813668 -0.6874533357345063 -0.3143903807969811 -0.1869747356537683
Ni 5.929675480011487 4.955213964995442 8.135212286911454 0.1583791834042627 -1.567547861379939 -0.4830655468106132
Ni 1.5020205882285094 4.1055303783761286 10.319883048491315 1.1883739084486695 -1.1214699475372687 0.13155820655667666
Ni 9.004175002416861 8.735105744363919 11.617512146767147 0.44150366420842674 -0.508972239374046 0.35821843372552503
Ni 6.747639330996049 1.4125415567266066 0.498014723902018 -0.7136359076671451 0.13020143541846607 -0.03798676365641845
Ni 9.262553259303342 2.6619849182667843 9.309404015371602 -1.2964175768231738 0.2746894626629334 -2.410119964599881
Ni 4.063240496370709 6.38627419504691 7.0580623112131375 0.817230024910728 -0.9502429616360603 -0.5055837825177874
Ni 6.01726731739444 5.742759593530733 3.182210894331332 -0.921578246711516 -1.375129071892464 -1.4041306013311365
Ni 6.141171372652347 1.2325794692654295 7.6740238785926564 -0.6079867076667465 0.19780499350005287 1.3709870246996325
P 4.424373219251012 0.46843597745738386 12.786723727988273 0.4095399668176366 -1.5510236384726708 0.8551303995009274
Ni 2.356510477111354 1.215752763081695 1.988698202632702 -1.2977465800472425 1.474474698272338 0.11210601136933596
P 4.571397726596736 2.7099549756745573 7.720176465802131 -0.16935753679263735 1.5067944934509663 0.22292621404771282
Ni 2.388230212746106 2.908826190416241 7.981120562968562 -1.6919751133187892 0.2770098832659939 0.9619247688493628
P 7.165359987876568 4.711050091398978 12.777294264959453 0.526585324470119 1.9091266296662541 0.6397403459292595
P 2.9826870636923566 3.104053168238574 11.533669597010656 0.04621352244158493 -0.35183181347289083 -0.7555114648550084
P 8.599841338301303 0.9449729448421192 13.323714123534105 1.370128790464395 0.2808608815809679 -1.6116253113151275
Ni 8.024377283340339 0.17262620135643422 9.328929502110661 1.062374684037009 1.7523207042863822 -0.58327634940426
Ni 5.5312172182761055 8.22651157756848 0.6377061340998247 0.11376900089405567 0.2953909568763429 -1.5220802159654432
Ni 3.155574497338163 4.143608935574237 6.209852223450245 1.0459677034338954 0.4248920237936747 -0.823734401688149
Ni 6.584364501877304 2.791002061039086 9.572661087399089 -0.10009433162044051 -0.06738295743034847 -1.0355585922854293
Ni 3.4768809167427093 1.001783995388418 8.735282378296235 -0.16663062477977755 0.877759963974985 1.815427660049196
Ni 8.72485167976687 4.047120325916237 11.297149324422076 -1.0880278658287392 0.7953393954852238 0.9120944755907968
Ni 5.233867938007186 3.602272415641168 3.8732521091199428 -1.600147135472199 -0.9796625524487579 -1.9318505536263308
Ni 8.611554956970643 4.780764715527057 1.9330752476942932 0.9383860622974742 -1.5483183237263658 0.0786544165791097
Ni 6.7368739576475605 2.093344511006849 4.71007302685759 1.027842197477778 -0.3128811432413063 -0.14647908953256708
Ni 7.966097382198996 5.055997568165533 4.370062933325389 -1.1655715658421733 0.6791743835551659 0.21760505894511556
Ni 2.9761980908104526 7.173643189649886 8.99064670250605 0.20709156100830142 1.32329100417525 0.1749841389507954
Ni 8.121377201749779 5.9398830619947685 6.734324851108566 -1.7752955679150009 -1.5799585763394661 -1.2635593926425723
Ni 2.107800603888455 7.755865816652604 3.056024542737454 -1.3055475641488998 0.3298987608452254 0.5709399393260942
Ni 2.7471875493021027 6.112008180774793 11.031226009668897 0.6797307702792681 0.019980556886984944 -1.1289109771963461
Ni 7.453933350666236 2.990263729736414 7.475343242567417 0.6899874150102697 2.9171613054998016 -1.178751297757241
Ni 6.962063628304245 6.98653207619131 12.175904996995959 1.0165157167213654 -2.3860469828110777 1.4056539799541987
Ni 1.8791712198129964 3.97425418057474 1.2677863305849988 -0.1005887547583558 -0.7181618205619567 1.2203211507792275
Ni 9.210436952747532 5.976251059006244 13.03637440931382 -1.9193323665546622 0.4368587092372476 0.5527213594355384
Ni 3.015550271625783 5.552589924086274 2.7185040579986253 0.9192753096099523 -0.02677109744625712 0.3329822848665555
Ni 4.022484540619609 8.730039139463292 10.739518789059042 -2.298329170478119 0.6169840260693502 0.8271526833410786
Ni 3.715550545391888 0.49284771655565357 3.697689136225695 -1.3018351482943191 -0.18545727056797737 1.1511957567364755
Ni 1.7961346785792307 7.533855556777597 12.59928258797195 -0.10684244897755149 0.6208486512310791 0.15585667409272513
Ni 4.524292245805032 5.93213905854115 0.7649123142397555 -0.26727954335210746 0.4159551263153611 0.1189546588600532
Ni 0.4259573760400702 6.104933526959422 10.597644555318729 -0.8028740132993721 2.4540984270633603 0.20173723867492355
Ni 5.812771706386924 8.8913245127128 9.573776670129503 -0.15842803436432715 0.5369926358463719 -1.0055265646997134
P 4.345343479323981 5.567492250060046 4.561681930667111 -0.2022524877484452 -1.0223598342069684 1.3600030148843028
Ni 7.43839886114523 7.4859133889380844 3.1404797333433954 1.8398086599967218 0.33353070117085787 -0.3591987953609233
P 0.8973440698193974 8.342467105872194 9.832733170731249 0.09627135832992452 -0.6143638148376839 0.2471372640762776
Ni 2.1783705081098517 0.8907528351872053 12.911616933267146 -0.7464912636342692 -3.2047834170640037 -0.257991176071646
P 4.103048206800959 3.2028752051076883 1.965416920701251 -0.5710250428407327 0.3958326445338731 0.6823720645568571
P 2.6973395942981333 9.282252591017892 5.9113957273213895 0.28665023456923533 0.13537398075834106 0.20290374817919893
P 0.1944423513019423 6.991078075817744 4.326305130377202 -0.11499207466787938 -0.09487293532050112 -1.5279572435715105
Ni 2.7618481656842846 3.3279506222325295 3.9087927156063604 0.4171350055560752 -0.2022638006023549 -0.5096211858119546
