# total energy = -340863.82507871086 ev
CRYSTAL
PRIMVEC
9.34709372742630 0.00000000000000 0.00000000000000

0.00000000000000 9.34709372742630 0.00000000000000

0.00000000000000 0.00000000000000 13.68041648880404

PRIMCOORD
 96 1
Ni 2.7904906624846872 2.124846740751376 0.9616953511917233 -0.3870217311104625 0.5061514820957993 0.20726922423674624
Ni 4.942042049575155 6.173970288356953 1.30821173885271 0.40371487549542723 -0.3790975911673794 -0.4764732383050762
Ni 8.685796050139038 3.416568337121963 2.1531198293920775 0.19069820725194256 -1.1737921539797527 1.2100817324394062
Ni 4.663311719217538 1.423870805310761 10.062383647899596 1.8583468280102255 0.009091420778306923 0.6064108785391943
Ni 3.728415420009997 8.76823741545608 11.172262212347237 -2.874226710919805 0.3822315088106707 1.1927334709689459
Ni 2.859799361331157 5.079070441360623 8.472542110262813 1.2034392874222242 0.6884285551635821 0.08610778753336139
Ni 4.603723997687363 4.1403885692558715 2.978062528058747 0.45874599622864226 0.659537840271161 0.04676450984904849
Ni 1.9019652944945893 7.195504797895976 11.412600290561631 -0.8279821212209094 -0.7283539306036101 -1.0818322785409886
Ni 6.401422463371114 7.187961693382273 12.567062621935488 -1.2738939417993609 -0.17237601190398702 -0.2106455969081469
Ni 1.8252536975380178 3.1866578764980087 9.408282452020027 -0.5105544962595013 -0.4793220206077809 -0.05873453772673111
Ni 4.348324012888854 1.3625258301887946 13.04326432467071 -0.18838421440678524 0.7191144142832131 -1.6097486631177051
Ni 6.79248616429338 9.277448379145625 4.520734892686923 -1.0488794777640515 -1.0869965963507473 -0.13359863402547315
Ni 9.29309541378743 1.275999784980194 10.16060945013397 -0.012552382743713866 -0.08920956638713669 0.23100076352573118
Ni 0.24478916417402966 6.685050670761171 12.976900895009207 -0.3338024667750058 -0.7881030256377847 0.6416213650020564
Ni 1.2068406396308982 1.4377418921736285 2.674453038736915 -1.5343790879374541 -0.5324420403612121 -0.9452357382294561
Ni 6.646998652824021 5.994730421994188 10.56000888910496 -1.627586205519758 -0.5893372108863593 -1.4263788712063759
Ni 4.541677990547394 3.935472236847084 0.4251460082188117 -0.13670041287924845 -0.9546542033298784 0.20915872794997525
Ni 4.803181627449308 8.683608830242871 8.204952580735283 0.33566034591935096 0.3985081344835072 -0.2754435672201385
Ni 6.0407835520301365 6.156126686725408 5.043203773900924 -0.2864031515554358 0.6815698803705359 0.9643986843111522
Ni 2.160917174850975 8.729783472495273 13.312016632638764 0.22717573335268618 0.3991732788713319 -0.5794667458501827
Ni 7.112783019771732 9.031675900727677 2.0379309217407666 0.24012766552766387 1.3337373963195545 0.983387823819145
Ni 2.925163586689669 0.9809307350563424 8.551245572859866 -0.08957980524236185 -0.9680424517113263 1.6635726509166961
Ni 7.23139763721768 0.9528614130555402 8.485291545896876 -1.4090174971097926 0.28715159968568615 1.9330636000978259
Ni 0.007198196760845103 4.331723574702566 4.400169536812215 0.6394328419911697 0.37324293215881527 -1.3541211021822293
P 4.947341851631251 5.373559971482927 9.1580401934553 -0.0805320932177968 -0.3244259106561122 0.17197054893545224
P 5.109083958824685 1.8945437021973408 8.011402314111704 -0.14340764969609493 -0.5865701896641833 -0.9966827411558383
P 8.760684963848803 9.160628403665763 7.751597044112069 1.534348491809835 -0.6088809373462416 0.17548241874345263
P 2.2085966991686883 3.62610213375599 6.920908687025855 -0.5677679693560157 -0.3283077622090217 -0.03937438803256445
P 2.882185650439356 7.888703951483554 8.940617449845355 0.49972860928859103 0.22231300594374617 -0.32842551873380854
P 7.749207926994718 2.9218173271904058 10.88716277242873 -0.9226563102670432 -1.3423302801948882 -0.1724793702510707
P 1.5757984642521663 6.820518097919888 0.901438377761696 0.614932028636328 0.5006485499996991 1.6465696886007966
P 0.3004361510536755 6.9728289876978025 4.918054603337839 0.006301773848311727 -0.9257143803670767 0.7861782978112459
Ni 1.9734705603307987 5.895810130707311 3.1659082634745053 -0.08107896686020229 -1.4353954728826894 -0.8797073175093431
Ni 4.031336028535471 -0.24863736259818225 1.0784985019031537 0.6679168083634756 -0.4389734415874053 0.893599502110403
Ni 6.270843566151264 2.1233138174053448 1.855461634548405 0.4092733434198113 -0.6249909555342269 -0.3728986614455191
Ni 1.429955763227019 6.746470422631725 7.594833198955807 0.3812938274877498 2.3845223186364355 -0.6103996879836133
Ni 6.666562119673064 1.443097776791164 6.3273430079648 -0.09597670990764115 0.2838356479385757 0.04446980027760083
Ni 5.33699414142394 4.0690795923847025 7.217636846058978 0.25948755811151436 0.019736302086662785 -0.8414253912100089
Ni 8.569022810127041 2.9273227653051155 8.774947693932395 0.41733195205822965 0.02504203057029236 -0.2663891703273541
Ni 9.02787163364332 0.36218772474608313 5.534740318352602 0.8517748527651331 0.8671235673070614 2.352387899995736
Ni 2.154794828560424 8.090124470895905 2.9878162202025487 0.5221617414811266 1.6276258005084423 -0.9962279130066068
Ni 2.522088870525634 8.699022187545342 6.750423308503899 -0.4195338448055549 -0.23647772747990245 0.22074720411852305
Ni 6.493930648466664 6.435352413042413 7.682333211314752 -0.5618528894231614 0.6137156397307237 0.7086505386374118
Ni 5.648635588253359 8.643266774380246 10.483084178414918 3.05788369505425 -1.16745258491497 -0.35135358828489166
Ni 5.39384316453712 7.671141001470009 3.089338742340249 -0.3662477317879047 0.28486666030625135 0.30863239526728137
Ni 2.82328961383361 5.448804074748481 13.382470350447973 0.05973546818741971 1.1128359260113543 0.004088825357392958
Ni 9.196072582495948 5.790711410568442 1.850522630304241 -1.129652997568693 1.2599634477611976 1.1154615365596594
Ni 7.7450671645417195 7.312147178597943 0.6232249416786857 0.13616536631138487 -0.07593830319952727 0.9779121454165547
Ni 4.07068729247932 6.4563459852081815 11.491918791915813 1.6428624149525384 -1.6612234339582295 -1.8677776344058221
Ni 3.077081898537501 2.4241780653446803 3.697406437080373 -0.5096432972991416 0.13329910050718333 -1.318787974098574
Ni 8.542850948121632 0.9454024323839982 12.67710782399338 -0.8784101959644743 0.3142551407706975 -0.47369284734646167
Ni 4.258647997146031 6.264244518088471 6.797155972242631 -0.9083329516658356 1.0109572487969816 -0.20108726379575045
Ni 8.042407558203898 1.8799715833164714 4.027843019667107 -0.3734511915148794 1.3402348311184402 -0.09966135784807997
Ni 8.888048460879416 6.145723371578257 10.862181730144567 0.07482990062669694 -0.039986567695266616 -1.0732123980824613
Ni 3.77022496956364 4.054086854293032 5.469813536973324 0.19029248717309163 -0.11604674118463885 -0.5467574285426197
Ni 7.612151493928529 8.04022033830773 9.494742132864257 0.6381501186240042 -0.3432772390346604 -1.6648276063697196
P 7.410039289591751 5.082304535737006 12.443446374718436 0.26271017881387015 1.8913237971568782 -0.6292918969024259
P 7.673879699887004 7.285433185165279 3.283381600795146 -1.6630003233529942 -1.5282827452317294 -0.8689022564740391
P 4.9837955165673575 0.7499967676861055 2.7985067299332016 -0.3097559673487633 -1.0495029702806635 1.2904222784716874
P 1.6155703474068164 3.881156276092285 2.4489039319742916 -0.3416409889828181 -1.9448418236796765 0.4887484561280035
P 6.443119847801875 0.8532298079477307 11.714157158134753 -0.616921291152215 1.0580032944421907 -2.201481113709118
P 4.174720443950825 7.355340098000443 13.318049246831011 0.2506455343398522 1.0953012595617009 0.8404401444786043
P 3.880969334220818 6.105128944189151 4.364887062700849 1.2119321553845837 -1.145656572085801 -1.5334036113980622
P 5.355202279704846 8.301022943191644 6.127130133042128 3.100744498973518 -0.2897178177509656 1.3206049727026545
Ni 2.5082832133177804 1.396614680450841 10.831305475943685 -1.0501015230966109 0.7496105259895414 1.2697441812970454
Ni 0.21158641838273765 3.8863813013997937 11.235479410311946 0.3059761885913569 0.05461460202108658 0.5201341695281365
Ni 0.8344085003284115 8.291404783904655 9.433276580235194 -0.792656706446738 0.6195106491459459 -0.6301753279486437
Ni 7.020031810243274 5.012285457778962 3.3060090449175377 1.0393643391847647 -0.04841361541669727 0.22821703013300698
Ni 1.0827112369766676 2.1940339273813922 4.904648067025568 0.43225103526190717 1.001420770061456 1.0696431926739642
Ni 5.928796023927701 3.281624347203354 12.318927198262195 0.611988629737288 -0.3345478295814625 -1.0205441211544681
Ni 3.795490163492434 8.148151227799328 4.900694246444036 -1.5354152425114522 0.7694252467226231 -1.4025169769871135
Ni 9.191025151966333 8.7303349510161 3.5426120245400177 0.5147219973736297 -0.24178705550795782 -0.3018631948642479
Ni 8.010814381925938 3.4586956878571 13.665175999702338 -0.5530787427749572 -0.8870411321665949 -1.0635370797762265
Ni 3.3627664665136985 1.5163509491255922 6.451233125023553 0.3128171227725903 1.619562049663701 -1.5069055651075338
Ni 8.425320593530193 8.303527964269303 11.613893689501385 -0.81175151829466 -0.24060743337755983 0.07984997954910765
Ni 0.4007014891057587 8.686814883338533 1.2690502209084003 -0.7785729746601623 0.6446295557007607 -0.48565053392897006
Ni 0.8297443006353045 4.331377732240352 0.47098415510257274 1.4311330980619092 -0.8163854175222456 -1.2527149937289006
Ni 8.296078330691335 5.3778970229009655 6.184970882783442 -0.6031214091546451 0.2720083162863445 0.03384343091200623
Ni 0.9856229760301695 2.205128927452971 12.66634184161558 1.7870519371199802 0.47589062632872875 0.4205851688882047
Ni 4.116600216111668 3.6019585910559995 10.773518939345097 -0.8209635238112312 0.8711406588862546 -0.16878983721462545
Ni 8.608009537421529 2.925574858806897 6.30393601623839 -0.6918468368165117 0.5110126668428425 -0.3139160122637239
Ni 7.891358526058387 7.803579970310958 6.264659529043128 -0.22037670815298177 -0.5602040409658288 -0.2570336972543832
Ni 6.159211227604617 3.417446963917859 9.254268521793048 0.6247356449903112 -0.212283389621886 1.8888326553039083
Ni 4.936760941706206 2.0157194232823894 4.836410545102606 1.9834019433410617 -0.3714724705219538 -1.281690555025644
Ni 6.380410197018199 9.53328767734208 13.569522517619351 -0.3455855754528629 -1.1864782340878532 1.987957166811912
Ni 2.1271180844897026 5.725048078215584 5.437199658077153 -2.04444250349315 0.19848736427905814 2.232190626977833
Ni 1.1075558116946602 1.7519444426421493 7.376535567387396 -1.499235964377418 -0.2471344358628002 0.3074098357140899
Ni 0.45761407245523755 4.895465482299099 8.048079374584214 -0.14214858047801326 -2.299714995082052 0.3144888540480584
P 2.862463282999565 3.4420298200157977 12.576899503212093 0.11196305803356846 -1.3943814923641726 0.40537735079951476
P 1.4113643941096041 5.370746496317346 10.1236444991794 0.4860477693673887 -0.17122364346709867 -0.2651588974646788
P 6.459860492391765 4.1478475499274134 1.4666496484679612 -0.48097241172701044 1.9440679216281294 -0.3173641187133244
P 1.8955438412096905 0.24639966839671967 4.588726586048906 0.19598748067533986 -0.07709298562926079 0.36989355607060814
P 8.226077946920435 1.3437101308256192 1.0114807756915147 0.9524155438073467 -0.20150069718408523 1.575631666829338
P 6.503763790905841 3.532696627677397 5.234975288617494 0.8078033322801894 0.2929412097842697 -0.32952697932810343
P 0.9760141638367547 -0.07096406911831205 11.431766505933806 1.1850373878762688 0.07834691264101991 1.4475202811706813
P 7.671112960189289 4.773691547225355 8.286816295669492 -0.24944508627384782 0.8597781826855837 -0.38994327563263165
