# total energy = -340890.99549053184 ev
CRYSTAL
PRIMVEC
9.03625386234116 0.00000000000000 0.00000000000000
0.00000000000000 9.03625386234116 0.00000000000000
0.00000000000000 0.00000000000000 13.22547092607132
PRIMCOORD
 96 1
Ni 6.1565172007865865 2.4184177918702834 11.709409031707304 1.1201607418075419 -0.6232906850136686 -1.4017129930285794
Ni 4.686336776321509 0.29351740392358594 5.943143235642969 -0.5067634046481853 -0.35536348077523316 0.07734623929064743
Ni 2.823413651955228 1.656498942037793 5.023192957204719 0.3831427077710305 -0.7518810671912728 -0.9844064948916467
Ni 3.4425506551333482 4.38568253912866 5.0792556831722555 0.06344377027694235 0.2792346588314546 0.994696821074061
Ni 5.172234216882155 4.4592105364849415 2.2119863805387374 0.3951248198335711 0.72801788742043 2.841280080790455
Ni 7.528310893628807 5.8792578247410185 2.4043112960274793 -1.4028607334797776 1.1545847278133665 1.1910630252450585
Ni 5.053524950411777 4.760659964014198 11.403834554307931 0.02452189640076422 -1.4503801192169796 -1.2668336925184698
Ni 5.492876647531081 7.742994211951352 12.553114111264753 -0.1704021760070678 0.7808494293991649 -0.29422778980617714
Ni 1.9265564237865749 6.340513401126837 0.309417596150219 0.6815598530682069 0.7505950013899977 -0.2570339543646993
Ni 2.7171924882679854 1.3419469464654479 0.2754683905378863 -0.7302460054200005 1.2694202222987236 1.4078417316341367
Ni 0.6814898654317213 -0.07310148617584476 4.819388384859466 0.4831709620402259 0.45112678912048754 -0.7857334969643436
Ni 8.759500476987958 2.3161906523727267 1.5443915626103657 0.29751185987408757 0.7039330785570844 -0.4095921602118107
Ni 6.840281491305512 0.5854344872951505 4.48602652332954 -0.36522803227413875 -0.6278672486407575 2.7814088583561194
Ni 0.9035558031275092 7.249632825733055 2.4071812102416072 0.375277960310973 -0.12082050842419836 0.4275006650611154
Ni 7.650499117820972 3.8287511072668283 3.9716088584533105 0.6998877048431172 -1.5227021658201583 -1.9562469801928244
Ni 7.83493809459854 4.056555066140107 12.44262873939852 -0.10603357992301093 -0.6268884296672559 0.33733927628367066
Ni 7.9175655995544005 8.90446909706745 6.937076938630172 0.08197448209127817 0.32602590815338045 -0.04414738394117559
Ni 6.836432047176991 0.6596799632049642 0.47610123779132885 0.5517587384119529 0.08867786225338277 -0.8227463267432669
Ni 1.5503771771426011 6.790193536365623 9.199663629700552 1.1972658116216608 -0.08557402651707843 -0.9403843236744256
Ni 9.217430711966978 4.998421874600223 1.1621318207690168 0.6614967637697445 -1.360891073916211 0.07485406899641302
Ni 6.187457333875921 1.9603971943530336 6.738125738213156 0.8682239994600918 0.5833735371037566 0.5115142890696094
Ni 3.4841626039874316 4.099892939474349 0.46111099632465363 -1.2986264115490347 0.5643571439022538 -0.1308534671801682
Ni 6.196086956276713 5.403128574562838 4.632141844019148 -1.5362557361348768 1.7293209009570991 0.07603857622281744
Ni 5.371284816091222 2.9597255408724594 9.448064825537564 -0.07817567717047827 0.13572313656764368 -0.43380578134353676
P 0.24071134383379358 5.802639428577332 12.26929622219458 -0.7551450826545252 -0.7428084154660433 0.35343103963921063
P 3.9540839477893344 6.114308859180197 12.574923109866127 -1.311252070732845 0.06492935368353334 -0.15638040780667906
P 2.5004760128353065 8.345079804165811 1.3050763199921975 -0.9432529034714723 0.7899986999986007 0.3035858339823094
P 6.329425917686237 7.845103880149211 5.789952528210093 0.8132432723488381 -0.7593323812629955 0.07311368926653859
P 4.702791794532863 1.108513401460553 12.754749982692527 0.0864875394702833 -1.014225120914976 -1.7535250090071284
P 3.8086273700034097 6.344715259154447 8.155248894732168 0.8303413654817055 0.17359137236832684 -0.11068650531399002
P 4.604088794026206 0.9421830773439154 3.7262628200337926 1.0668599735018722 0.6287239402140978 1.064672221821934
P 0.3242560285526708 5.346615843154925 3.5239799528323035 0.3861159314667415 0.5340551504846027 0.6728859794432928
Ni 1.813883374869839 1.0701364314750388 2.69995312322481 -0.4832210985518711 -0.3490696773467214 -0.49776042981862656
Ni 1.8407933387541955 6.266253467210906 4.896876068640908 0.08958083368362638 0.7507713790668619 -0.47095025160431797
Ni 5.8088834799689 5.6776590019539155 9.162354744916893 0.42053914614161764 0.6502913819722285 0.7914158920611015
Ni 8.532645324766074 2.536241505466026 10.235099039245197 -0.013922009397730861 0.8405753845048879 -0.15475958437380444
Ni 2.2182105521718953 5.295985712985668 7.230060299952829 -0.9191480400034686 0.008754092043546213 -1.091062796000321
Ni 0.32277950467802213 0.25097201004960507 9.55884116477689 0.09049100420272156 -0.2768623019445361 -1.6150212243705542
Ni 1.2402258371819694 1.14824580951949 11.412298813263767 1.3409154021252325 0.10572504754365662 0.6170002240192664
Ni 3.9462675882325957 6.601371976483989 1.5613327312773875 0.9456149759457456 1.4607468071632843 -0.23120722310958247
Ni 5.721466760486944 7.956285947185182 8.040399012269514 -0.7794206673724383 0.14694548764602433 -0.0050735578681654556
Ni 5.077281261711969 2.8839565525681183 4.7032951138707935 1.4994555365873918 -0.3596685359084903 0.3348180525237137
Ni 0.8652149781572862 7.569172833415597 6.6875389820622475 -0.25437723346814256 -0.40715629707680845 1.297113574448934
Ni 4.886444617227845 4.584751210845372 7.278889504735198 0.48443800167810763 -0.1537815367312513 -1.1712742726539054
Ni 8.118784899680945 7.374215657188267 9.069631033564796 -1.0305158876551994 0.33367956804389626 0.140078585322862
Ni 4.755355683020203 0.48787547652246255 10.403711017452098 -0.39721615514496106 -0.7009498275590444 0.6203169470973252
Ni 8.179201292740315 7.097914124047917 4.811637989955635 -0.20213987342998088 -0.2860267420526235 -0.10602560950321094
Ni 6.977524114366494 5.995409831379539 7.056331091206067 0.4913547834025989 0.5693687381842323 -0.92194591446358
Ni 2.681092654245822 5.039229596864077 2.9272203286210132 -2.917507375985311 -1.2716802219774939 -1.8434447140874124
Ni 2.0826757810834264 5.097251382660399 11.33405660228812 1.4596196355373767 1.9644398004162622 0.479638009186303
Ni 1.1389565405896316 3.049139272449258 3.9661862025342365 -0.6196132361620813 0.9631347299970637 -0.9301325640394302
Ni 3.8967218085220763 2.6219323004678228 2.6316038029343867 -1.7574896500818313 0.05524683628844679 -0.4564636279523687
Ni 1.0756485463069587 3.3320463071340893 8.214696601381732 -0.3958449858290473 0.25053754800707817 -0.29735733657409436
Ni 3.465737682442703 2.7362951288494255 7.176285553453231 1.1150930974766473 0.160073283277234 -0.8451380641749058
Ni 4.301076094585601 6.836983258660182 5.8426031647341325 0.26322619921834023 -0.6911359267924162 0.1387254137290772
Ni 0.7832109747151997 7.72062044748605 11.5150473446069 0.05510953937963412 -0.8914965968347873 0.18222745077677002
P 0.012380571362644926 5.92041796090396 7.8500177949780605 0.23678934518305023 -1.3880763760817514 -1.15789116647878
P 8.686523691114868 1.6891559633534625 8.074097010025572 -0.9986959149311251 -0.4695536283671075 -0.6578820498352927
P 1.7407529726817614 3.320886533662907 10.363319866489478 -0.08796283846422916 -1.632384912459982 -0.7777543354136089
P 4.2797053542946335 5.992698955232693 3.6757944388079635 0.9278070012300472 -0.05388646560581042 1.360125142284464
P 7.056446755254999 4.27911799779615 10.30904270427733 -0.7672282390713046 -1.0646570523132826 -0.03879717537285576
P 6.3499924313869744 7.832127819659643 10.325918811916827 -1.6472680002194018 -0.29379044515844244 -1.176589771329548
P 2.678463104383381 8.293979788797767 5.7960890481811695 -1.205975937801149 0.9440735996005547 -0.23470803717398933
P 7.184824813315794 3.956993621520282 1.5121737032304852 -0.2461473893591825 -0.9646563088479129 -0.2978394184168354
Ni 5.414514254379591 2.8023139992789443 0.6221984859732913 0.42595826027465994 0.12428249883086982 0.2801615415210981
Ni 1.6636195100501745 1.0447716669943847 7.015967049004914 -2.1440537248295852 0.5722527446002467 -0.179728081393684
Ni 6.852516578981609 0.8983165831610385 9.160622495059059 0.6121158993437715 -0.20458242143320252 0.10229596725744963
Ni 2.787467434248052 1.747484981779762 9.092921074167732 -0.0923041461520604 -0.5692769498013744 2.4631361117855968
Ni 6.4001617126112675 1.7405632113514822 2.6441687138750165 0.9526168611848755 1.9310352568138873 -0.9506029160786403
Ni 3.828317367083333 6.614104058120342 10.30608062027421 0.04249262194657198 1.4295256443654736 0.718912325574736
Ni 8.081311555077713 7.405327479100235 0.3994286241047058 -0.32518438608869155 -1.9495659686282232 -0.38847183329342777
Ni 7.501626836090021 3.803106218917667 8.070843958649359 0.7361582571393773 -0.5035392412839328 0.8662182818839728
Ni 2.9921205108272666 8.468731901477273 12.228349341621856 1.3622036220800475 -1.054326616921552 -0.11353580183732705
Ni 0.11217966945800976 5.137751872294277 9.875551921387506 -0.9654824042936341 -1.433331648375125 0.7504785304167915
Ni 8.613375216419143 2.13191432816397 5.686079886891401 0.09012950709824478 -0.15986965190686014 0.7291162626909313
Ni 3.586091547108835 2.7569068238192767 11.576995382689239 -0.13848938645887118 -0.04033932304899504 -0.4685244157716447
Ni 1.0853986641817808 3.2651689925914025 12.456290651553243 0.1766124185828378 -0.16200083931725004 1.7154827095224263
Ni 3.1042423482608106 8.687635150335074 8.05423261324687 1.4179623650079063 -1.968340678132565 0.3710428391837029
Ni 5.637077186035634 7.651456960726191 3.4481052403582355 0.6128422359868348 0.28693536990982194 1.2765930858980787
Ni 3.3488266304830647 8.26757585512749 3.587091860407021 -1.5220519338306688 -0.7413783678877361 0.13348730525858946
Ni 3.376351059627373 4.307780994922133 9.217571677526614 -0.09864782898190108 0.3240996376649451 0.5254463257696692
Ni 7.24403938461673 6.118881203614544 11.418064846828107 0.08966645141889719 1.223607534839983 -0.2065824825823668
Ni 0.3657206864694424 9.181827871905071 0.4791193465681505 1.4418096039391493 0.8349505821189428 -0.022376825033303394
Ni 4.779066813051282 0.3771316677968988 1.6371017195817288 -1.3713143261320642 -1.494982845528019 -0.4563247883816593
Ni 5.855076809511153 5.388670568446327 0.28055037968783997 1.2348743660030537 1.1801224670731547 -0.04082603287742646
Ni 7.795865333068669 8.70941252204807 11.4936883514459 -0.22262128121278435 1.5430897283375749 0.5843688111374904
Ni 9.03260317627503 4.646640513277862 5.763329917197302 0.11357076884032052 0.995454525175692 1.1222731601648541
Ni 7.944954484891366 8.491611696156651 2.647435319631966 -0.09450449623748886 0.01514714005408359 -0.41170226457627807
P 8.616321035165383 1.3364529041411737 3.49315096566499 0.3915864676630095 0.665502285384712 0.47222037656599314
P 1.810982737392714 3.2958470743198744 1.7921439554229002 0.6435697469776787 -1.0193866105112575 -1.2988338995741504
P 4.867956441906356 1.1248419121183877 8.228980207799463 -0.8136214816238633 0.13767614652895646 -0.026584949577380022
P 8.363414363172312 1.7448012143943845 12.314182909434054 -0.5621143706146642 -0.3634254318477612 1.3474298062049825
P 6.195662252347041 7.581525392391391 1.453294376946376 0.8487383799316545 -0.19304819554135785 -1.3352923995115002
P 1.7340119273299381 3.320940751185844 6.046658944935659 0.05279528942416068 -0.23295608747988913 0.019693878884501567
P 6.836775424822258 3.9460055368717337 6.018211010650659 -0.7417624907000322 -0.8055939833336964 -0.02186620394547202
P 2.2867776461794493 8.467864421110283 10.171233508101658 1.286780310843726 1.9882181337827822 0.020259521579984466
