# total energy = -340865.82661667705 ev
CRYSTAL
PRIMVEC
9.21376548717624 0.00000000000000 0.00000000000000

0.00000000000000 9.21376548717624 0.00000000000000

0.00000000000000 0.00000000000000 13.48527713216884

PRIMCOORD
 96 1
Ni 6.139150219607033 4.0355278320273165 9.92245307042208 -0.17634810917785756 0.5506382516542645 0.3058057244517636
Ni 7.57891160651002 3.55474434704706 11.891303870805245 -2.060447106451522 -1.6229574484984952 0.48831882478975247
Ni 0.7518312672401529 1.9463894834347586 7.8309679758180515 -0.11489591540964728 -0.9455728098539005 0.5792206912776475
Ni 1.0694601611434869 8.918003394193095 9.237077927865567 0.8558353959877519 1.389241600034446 -1.6564272981211667
Ni 2.2148048929601574 2.315428423353775 9.875052855047116 -0.8464002187167811 -0.5051389816708848 0.22113724046809013
Ni 4.351173002270386 0.12790088244290881 10.671101903141771 -1.688039782820125 0.13780213058385943 -0.11241814329311609
Ni 0.4290979473833291 6.604168952229128 9.771552787139637 0.4834843795155867 -1.970175931569091 -3.0689787765261465
Ni 2.5244795433153904 9.214870910838307 2.135016449946732 -3.723242255772246 2.473357275292973 -2.6806640376358737
Ni 7.993825883653634 0.422314773399648 13.069754582574053 -2.479004960497053 2.6339722900062896 -2.4003703414122857
Ni 6.957876186757156 6.353775667550347 9.949895348869505 0.11429839103496443 -1.6787115634406635 -0.7784870998145754
Ni 3.36207530171596 5.132804350487746 12.96233129341929 1.1848867212310175 -0.8781217181897781 1.4707098319132672
Ni 6.340010302253391 7.746694271876542 11.623243191242317 0.2815031431506571 1.3140283479264014 1.840384844215166
Ni 1.9498354316416273 1.99640180126065 5.791831809909601 2.875902555960331 -1.0713756019840386 -0.7829957863182063
Ni 0.2678837752699538 7.824698008559297 11.528657441222927 -2.6440505001778978 -1.4438340905683456 1.3286229579111246
Ni 6.294439019282341 1.12344361179601 11.483212386835927 0.47053141889934447 0.2735116403047483 -0.10334317757504138
Ni 4.996846030325836 8.919459169104018 0.2589501084748204 0.8455998343026726 1.6430858438172542 1.111247241367996
Ni 2.448484407459098 5.2100709859497805 2.657893942889289 -0.765383729663398 0.5476724841577213 0.5239136911752267
Ni 8.0700513636414 2.3476858155255593 3.8927946302704575 -1.2992897561646461 -0.1293470578379708 1.1970269561379772
Ni 1.3700776802491157 7.3571270629604575 2.5576444913651866 -2.737143203669525 -0.5072503715869329 1.0974586722243358
Ni 4.661999373282995 2.286202359952204 9.697599421664739 -0.23978159504215482 -0.4222738694445372 -0.4218938603972992
Ni 1.4948597031518505 4.387751650348645 4.718498181851227 -0.03124301717468168 0.20629760435209632 0.9395039779520014
Ni 8.26597286810893 4.664256745771452 5.429684766404321 -1.7084384010811349 -1.3447885119273937 -1.584924919205806
Ni 5.586886343747399 7.126506518527507 2.678985172943682 1.6287432019423367 -0.5969551324429332 -1.2183218609610114
Ni 7.067510779574083 8.183491241510298 1.0336831106427617 -0.3527828645322505 -1.4949422220980706 0.36838868939030744
P 0.8704234826418867 2.97692148635894 11.665438550622467 0.52651950422919 -0.8419632659913499 -0.019527014289334114
P 2.7741817955997448 0.7004838748282317 4.050181404295241 -0.39329393727241946 0.8062922949523016 1.924809073398517
P 4.2587220816615075 4.508802098321481 8.303748384294334 0.7060632375262099 -0.17834662766512513 2.573621556832374
P 7.3812487004085385 3.9796832007924734 8.206505384374246 0.41630376790403145 1.05906130339306 0.3491519526478825
P 1.6785361135901595 5.5234956387654295 0.6177212283891992 -1.2264414047443524 0.7122925062653732 0.45121060708354555
P 5.256536004150954 2.999421501121436 11.919029011846122 1.5842834289670649 1.3245865830582222 -2.1866335071733247
P 7.499977279536106 5.774902437622701 12.114713722546496 0.23063052467050604 0.9492605431181329 0.8485126370740935
P 2.5745655712633533 7.697953453656394 10.145998364512637 0.19172150631013432 0.1732771835620177 1.335667523462732
Ni 0.35642990216206505 3.9087740633591537 2.7596673511872307 -0.5634765410695135 1.2980903365399064 -0.7783510884573435
Ni 0.029762304539645144 4.944106437983278 11.435662908463769 1.790306439501536 0.8754292589592794 -0.4561967474442272
Ni 3.7962371344856396 7.543595244272246 4.0710026710275455 -0.1277527167676574 1.637055064242142 0.4305039706638134
Ni 4.260067291389323 6.2271140365347755 10.269321848374872 -0.045137001547954525 2.5380341466460674 -3.044363549080628
Ni 3.3987737287425857 2.530597483447371 12.597446840255559 -0.8905427175619501 -1.23876110265197 -0.6700078865645493
Ni 6.531380206682971 0.721408335731437 2.5239313242824792 3.284687389779498 1.090245442305348 -0.7597468430925948
Ni 8.882751528312133 6.616073136943766 0.7530622262787563 -0.17818130573185445 -0.9227211020667075 -0.14426202727659027
Ni 5.076268686858477 1.463505259975449 4.981501425663485 0.48905621717640935 -1.2026422454422256 -0.31878182499645746
Ni 7.562713807184686 6.059193164689368 7.5559223408122715 0.21067722147703072 0.788613646725616 0.639529515470034
Ni 5.817184406396285 4.8044626117177645 6.62795981550441 -1.1853729168388167 -0.963509082617347 1.3167799425296096
Ni 0.28104932444854924 4.142665494459052 7.3048527657634805 -0.08899565060411771 -0.06741175378575487 0.8876281150183164
Ni 1.592322912061629 7.690886495702736 13.275688685748547 0.9731658889808209 0.5743319957267786 2.196896579662229
Ni 3.956529008696588 2.5300446575318305 6.832922787820604 2.2383656454402936 -0.058709340915750495 1.684590905039576
Ni 8.100189589803614 8.342788029073274 9.563839505893629 -2.026577450287271 -2.3122444950076306 -2.3959758118890155
Ni 5.52841578941374 2.8352414179711856 2.94095002541125 0.2452279628687067 0.8126503759598456 0.25571549266359184
Ni 3.3679168288901704 7.26651889540338 1.638123617787628 2.3253090415010726 -1.4122367753780387 -2.0746197984074786
Ni 1.880501848067598 4.697942271558381 9.033773433295995 -0.45576480211313125 -0.10810923150511703 0.4560514801156146
Ni 7.131260821401154 4.932570803879001 3.1360551902768314 0.12235391434958925 -0.006442413191234066 -0.10698643075458349
Ni 7.426552784187077 0.5930845414631397 5.504069336093338 0.03129906722359771 -1.8660840487534829 0.002471858579260259
Ni 0.008397425657059187 3.219169802548758 0.2075898167915364 -2.6059966307289697 1.4722265256681097 -0.01860475958538086
Ni 1.7954311534311844 6.995495990309683 5.241295515036031 -1.0459245089007856 -0.1614061431560446 0.474063600422319
Ni 6.272786670923674 6.39393847031436 5.057289251801448 -0.8832952919709174 1.546823227238078 -0.7432663289390683
Ni 8.483666499883494 6.888091128685436 5.486188181855183 1.0389156816831204 2.3888194033498924 0.167217350521183
Ni 2.1036131738144577 3.2772718062720574 0.8211537942958715 -0.4905546560988068 1.9240873647411445 -1.3367761831458784
P 6.069558650605752 3.418749171824113 5.066040486044454 0.5522295074007845 -0.2757436149590606 -0.7499961914637341
P 0.1773244406687495 2.7318261167040885 5.5507693053086165 -2.4751207949512986 0.47899446206503316 -0.16885591456587049
P 3.0492679711726645 1.1428017326051845 8.09080168438121 -1.3088223782454298 -0.4353492145712567 0.7438998487580092
P 8.458816974979952 0.3636350665946087 11.069308859741225 0.4377084588320526 2.6390072813270353 0.41280526783246974
P 6.052642177590214 8.581277129037417 4.128895522279466 0.5491806932721316 0.08961862890009728 1.7414025147119816
P 5.706794284828119 8.183509669040815 9.562801114548938 0.7221899678847433 -0.35637495275888303 -0.5930010328911917
P 8.524050433013723 0.20579866082518544 7.561208277941364 -1.9405514238344388 1.462941243711442 0.7720667981105284
P 3.477560635472357 5.718680042012238 4.8069890261517845 0.06294086249859483 -2.3339793155815616 1.028885294030312
Ni 4.587948341896354 5.191385470004514 2.0142820341222794 1.3884098481617702 -1.7222038302963438 -1.0196545194606632
Ni 3.549381935666318 4.184809256753751 10.559039483179095 0.27000465559275433 -1.148660906129764 1.172141505750207
Ni 1.0061523800488483 8.656774721569722 6.804211773897011 1.2185805139390367 -0.5033245541699654 -0.6740105799660392
Ni 8.104814899963635 8.034375664558524 3.355662521095691 0.09015418968859312 -0.27818024942501124 -0.6010699259422552
Ni 4.498464253700875 0.16275747779425906 2.808416461796112 0.5950851691137299 0.8878672276123161 0.23694746802746933
Ni 5.380940262678069 5.517819959365881 11.986509707226567 1.477979883212119 -1.810984793786494 1.0936557535384779
Ni 1.1005013363010823 1.2604430874321886 13.408100627662265 0.9725855909973186 -0.4089211022867151 -0.1782810645345123
Ni 0.5224260184448651 0.4264904518150301 4.402767323591249 0.46004003244971736 -0.06438710802681814 -0.042239882505817575
Ni 2.880167737374105 4.5307400734031775 6.843103998431808 -1.4842371769757405 1.6179556244085298 -1.6552718443604848
Ni 3.8263016505257803 3.5118358422358638 4.7844687411057185 0.3003444442268763 1.4994431952922176 -0.7264898808116779
Ni 8.739744677727082 3.2288166147749386 9.75574841559086 1.3471133034058285 0.5580209172715809 -0.21398803101781855
Ni 0.5023952927717835 1.7279679642047332 2.196710900744519 0.08887429453490499 -1.6808563776978083 -0.21653933668476258
Ni 2.5467768552421877 6.9069793474664 8.204712385654842 -1.3540825356348098 -0.4105046447237511 -0.5538660145629429
Ni 2.829703945050522 2.906823160268413 2.7352048044245665 -0.4515985865505835 -2.2936356216571916 4.401491813520297
Ni 4.235300690373111 7.096957973341871 6.726981993496013 1.2098477620517292 -0.587037359108589 -1.3976203110164447
Ni 1.6648076033542387 0.2756878344443329 11.37011157552856 1.800077659955687 1.3317231941030032 -0.21077286651463056
Ni 5.188013231919717 0.6184426662089795 8.028217183859404 0.510197884251031 -1.459782900588118 -0.29994103814087053
Ni 3.323488052811238 0.015083855105520731 6.156406680560628 0.1264180571166339 -0.33799953557548884 0.006443441632498581
Ni 7.528438600421179 1.3230782636629197 9.336868533879771 -0.8443451359599652 1.1117727748541626 -0.7535625686587538
Ni 3.8616364402940726 7.667243974048122 12.267084522764277 -0.5815848206344499 -1.9929258236710967 -0.8336280066527773
Ni 7.066340631386189 2.272013161453333 7.098352937402084 -0.17771310784618427 -0.2060978296364644 -0.9723310517843513
Ni 6.036315385551253 2.2143165634014297 0.31880180622080545 0.35039148148193844 -0.6323399397001302 0.405014053922825
Ni 7.080502188589284 4.643682407948089 0.6419801509396392 -0.5210451113781801 0.6385524962687454 -0.2253942159722312
Ni 2.0306032979020845 6.082006447470671 11.520094167791207 -0.07058500930741392 0.21461769418201748 -1.3502343655333133
P 6.309623304429184 7.957330159462707 6.928182064080428 0.0011847643367205402 -0.5954078425604713 -0.34963377738030754
P 4.220871933977506 2.8427045678309817 1.278908394387765 0.1691996710585344 0.6928397968574004 -1.4899159725280728
P 9.15285305687993 8.92547575781815 0.9372822488673469 2.7152366334044205 -2.5604847623401 4.1564823944202995
P 7.524402971237734 2.8320258138957923 1.8809800424845404 1.1386485161990842 0.6017551249347378 -0.9914724005994925
P 3.0519307493325174 0.2571727731563579 13.09614557040543 -0.2585753307098902 0.5424940252805753 0.41623254834646384
P 9.178854302440849 5.994429608683807 3.6167778644063784 -0.2029106901577344 -0.3979774587910178 0.04264148881961043
P 0.5150209153062011 6.247909504724355 7.208986302373087 1.3952633807484938 1.323779513775894 0.560520543764983
P 5.361259660084831 6.754196691941543 0.29517218383755556 -0.3505866282118801 -0.38697493703292707 1.4739041704808487
