# total energy = -340872.53431232536 ev
CRYSTAL
PRIMVEC
9.22729523162832 0.00000000000000 0.00000000000000

0.00000000000000 9.22729523162832 0.00000000000000

0.00000000000000 0.00000000000000 13.50507928078295

PRIMCOORD
 96 1
Ni 6.750283212592869 9.121587367350422 1.034030084365248 1.1656157888165475 -0.34301267251936407 -0.07756066929429868
Ni 4.758433120889213 1.5319893777378204 1.3786123531654844 -0.3953220234460418 1.4628571686380678 1.1235294011694585
Ni 5.804134811031201 0.5136327771043854 3.2762240783596575 1.3166462451652228 -0.4867123995345811 0.9757063960144875
Ni 6.5166019600860015 0.442344539370227 6.116842311078833 -1.4219642870784477 3.0201321873370888 -1.5833989694795827
Ni 0.4900441194969399 3.9766136206461957 8.143400873910014 -1.341796262068289 0.3597464403342772 -0.5579718092012004
Ni 7.42131057862661 0.3031904677145379 12.133719796208666 -0.3947736071417394 0.01113699045342598 -0.41033700879763524
Ni 1.7854631785814006 6.5356470975065015 11.908698360305063 -1.2979790077730227 -0.6193018755692495 1.135828787362102
Ni 0.08069269706505673 4.784371047870331 13.145331244005675 1.699364720914641 0.031692703117590586 1.3403261052806656
Ni 6.822209979159149 5.940744917383193 9.991031108859215 1.5193561321660607 -0.9114619842131205 1.3706890338432396
Ni 4.764661545190976 4.000724543165463 3.775060887511634 0.30572833424660895 0.09400878754799294 0.746998799398307
Ni 3.5836415700336586 6.587430678516118 0.12216569834905948 0.35406944455415795 1.0152381355605224 -1.2967333082913794
Ni 0.8039539361171927 8.056536039044293 8.015224515427372 -0.504419329896041 1.3902553860109412 1.2719802697164158
Ni 5.080068951832231 7.232557026749788 9.772991044550743 -1.865704553926877 1.9489321916989664 -1.0529616182532253
Ni 2.560758981074276 0.8852750119895827 6.6518187448534505 0.8996889028375925 0.6373109105521605 0.3212994492119886
Ni 2.7867631239232677 4.206290227009412 12.231415630252771 -1.4332414026541638 0.6846474908545951 0.4279089562431276
Ni 4.883232289306011 1.7067728045881696 7.374178477158502 0.13414293656471737 0.8312451082428973 0.027676382869345883
Ni 9.074786525782216 5.653471533995381 2.765367794399569 0.8830307254556212 -0.7001934090089941 -1.3043208908306503
Ni 6.937385078617815 4.011179068697162 8.503067925004355 0.12308642164023964 -1.886317087970906 -0.875884601329143
Ni 7.266282790931925 2.092187700381235 1.9047564199154399 -1.4205396388167792 1.089878802994549 -0.4259921988363889
Ni 5.619976452194792 0.39673678707938015 9.036667646325903 -0.1384053113854971 -0.14848737821184751 1.3856919350099748
Ni 5.895807989457884 7.6805145298278115 12.010066657863392 0.0772955885583701 -1.043373460344158 0.7465221168722046
Ni 8.788952600455255 4.504903956274062 10.939613670910962 -0.10599244227243035 -1.4618564952876953 -1.2418862785445128
Ni 2.6001872137282485 6.797434691381028 9.62783830824531 -0.48144832292216433 0.3709315104168192 -2.565137687731079
Ni 2.6840633276586505 7.702457037960539 6.72627194486243 0.35847708670355033 -0.9619065140169175 1.3024918080417116
P 1.1087610259616103 8.14315265966747 10.585402719504966 -0.39935582719578316 1.0557391809983625 -0.7391343090485657
P 3.0957298784717366 1.1702886307677622 12.405172059140474 1.484967884494178 -0.01923956495590235 1.015239421112103
P 4.55703817450363 8.540396947986252 7.0135388691435585 1.3165932804401004 1.608815352670158 0.7639454545549746
P 3.8585411504753013 6.122135087641041 11.11531521363987 0.44725470775959103 -1.3109047146957553 2.356543316925006
P 3.7641182380605818 2.650706655286989 5.851967264209685 -0.5089971790747105 -0.3742939991311489 -0.7675028328889298
P 6.604805675494221 2.821337799269496 6.344700217545934 0.12749097846583848 0.9422506874592032 2.2111487187058693e-05
P 7.034659225268454 8.169099813943848 10.114062327503838 -0.04966677109750801 0.3448127018425804 0.9133592012358335
P 7.627503718548366 8.647027572032426 3.9835931467822743 -0.006397675996227693 0.17042660148710004 0.01388241440904706
Ni 0.30365921431384096 8.246627548734084 2.6788139193841727 -0.2251990692422896 0.07650111768153277 -0.5198528908422918
Ni 1.0576879466871576 0.8466200266785553 12.089287601334181 -0.01988799717317865 0.25801277333820083 -2.1786391761139385
Ni 8.685809894018067 1.348310838255028 3.7029034385638075 0.5278040273685685 -0.8895669839122422 0.19677578090459014
Ni 1.6438149690164279 6.993754625372582 4.969991010276222 -0.22073820525745855 -0.2692410379538524 -2.4212407571033916
Ni 3.1559933438270122 3.224856648366351 8.40411625607511 0.44830577473192473 -0.5165215124762137 -1.734253562372026
Ni 4.6338092710823915 3.4335596125993364 13.374660904067042 0.4456477682837874 -0.5244546512803613 0.8066558489393075
Ni 3.9665835506965426 8.687590762003609 4.837965024210327 0.3631683215316326 -0.8141508717647721 -0.22708368785951213
Ni 5.113693215766486 1.1598248779408011 11.524802277312101 -0.0664326777019372 0.6406556586546772 -0.2765357718430527
Ni 2.3986907670947843 8.872745668728301 0.6793753000571541 -0.8567293685569309 -0.11516613835189843 0.3552634648622591
Ni 0.0991934240651069 6.260424561730693 9.627973949485662 0.3012301892659393 1.4309577488263097 -1.3225818939233673
Ni 8.441978616723143 2.3116035544132516 12.96941378256764 1.6830675264165142 1.1307444308606591 -0.023266426727108318
Ni 8.467759679684809 7.139841163958514 11.737628919797617 0.23073156902474454 0.8552962356548303 -2.3186395999006972
Ni 7.877074373496174 6.685682918464514 0.34409599033993565 -0.8525433555000413 0.8284274362884442 2.428189934727715
Ni 8.569629019375858 8.447644176013931 6.119813500153154 1.034961839241695 0.22383252791206612 -0.2613189548932983
Ni 7.769050427865458 1.52049216784153 7.589962467775446 1.8821470157536166 0.9752199432963721 1.4731791193893662
Ni 5.452759407459176 6.6039844462159145 7.461786109292804 -0.09624898973242133 -1.303308390405736 -0.3058021249073378
Ni 1.3575012243358509 2.829439364509419 4.162156996501412 1.2361102952926841 0.2207960550785875 -1.080861429987287
Ni 6.721097277679573 3.176173438564723 10.986827895306902 1.8735947553082315 -0.7673619364356914 0.8586566674866308
Ni 1.7348422367747796 1.1855136679498484 2.5210068703566124 0.054339493982829 0.14927233600698808 -1.720444938623708
Ni 8.998956613320164 3.0997160700248645 5.6560893176611735 -1.9054396677329701 0.04665138130995192 1.4542678843071597
Ni 1.920366235309946 2.5127401365315025 0.4654238502792173 1.7700515459072421 -0.7115319739502649 -1.5633299666438496
Ni 7.022866741923783 8.227979185009845 7.850178653266874 1.4508658006041464 -0.9963235580442066 1.1713285229306085
Ni 0.1996925104097685 3.154110975593591 1.6468230672717976 -0.7630214000788085 0.6544712243815309 1.5156665991296152
Ni 2.863100537624722 2.214006452428448 10.335882814681097 0.1011104315897807 -1.0100681613238087 2.260554265722191
P 2.5160158263494665 5.243696578710979 8.0388583867816 -0.08521612895702743 0.6971751910079605 -1.10955211305376
P 6.424513553372534 2.069756145599628 13.299302506392873 -2.1975126159796736 -0.3330121096632265 -0.3502004485170549
P 3.9451577710984793 -0.2464933519779752 2.524625815558318 -1.5312099461808533 0.44070250846337 0.07109357351271627
P 5.2082637649053956 2.5687959552473654 9.616913190655257 -1.5030949331121919 -0.4484939794833308 -0.9868642124035197
P 7.351339998655846 5.343286776472345 12.218896036041466 -1.4179929611355258 -0.1653360743380701 -0.4035940336468468
P 8.93075767403968 0.9272232189795719 1.2869530156816944 1.483244216934852 0.2269538471498672 1.1223901453586929
P 1.0549751218801677 3.041242699950392 11.580118989677487 0.2728346688423817 0.3019446988344606 0.7598324608278656
P 6.851820369654491 4.180121617646748 2.7550092327385935 0.14439418197908035 0.9216597506817288 0.25171459903431487
Ni 2.9714935750659137 9.09528957585409 9.039529953316135 0.2903469666945322 0.7423875258785407 -0.37540368725555995
Ni 4.725611631642741 4.143110936351385 11.120595071988712 -0.36473052381242993 0.15472898824618514 0.9031928022257928
Ni 6.252110768699748 7.684989768029818 5.471744567460474 -1.2563592753497073 -3.058754013474345 -1.841816691565686
Ni 2.6170178002859 4.955915694083764 3.588097430915616 -1.027683817523043 -1.0669360781554464 1.15532366286192
Ni 6.516057549665551 5.008889596182162 5.260079641448429 0.39265321836462697 -0.15317861303992975 0.3103583768194526
Ni 3.4155294776576417 8.259471943738609 11.427106443267995 -0.1990036417938444 1.5472806264904708 0.4376680925124204
Ni 1.7641481265264798 9.291886328703502 4.434473856999258 -1.1410944066364155 0.10753047618351158 1.3149122931932515
Ni 8.289737472197542 6.673955026186678 4.702859889715546 0.2983536390490927 -0.6594774193468708 -0.09644927866868551
Ni 4.586168745645355 5.285302453046752 1.725678609850216 1.3181994485849555 -0.2776385179889283 0.2390454882070787
Ni 1.7440972139224353 4.62403756540007 9.998958278218687 1.4447324340128989 -1.1315497003707737 0.9448883821923661
Ni 0.5442157245203287 6.034429646176963 6.7491095006355595 -0.7605659965597805 -0.2848802871530062 1.5600407543696164
Ni 4.577624270232863 8.97856429079143 13.555453145591922 0.3721869800904752 -0.954823124807575 -0.7408741745578079
Ni 2.151971346382893 4.01871776892611 6.132238053223263 -1.4922909005181526 0.603059188458142 0.5024871458703347
Ni 4.367158892604861 4.609024756009008 6.464125409202218 0.9580452312892985 0.9998462264854844 0.21240963078710515
Ni -3.7831910573668676e-05 8.620286870363527 13.386477378379395 0.16620973519227503 -1.1461196277651486 1.4856443417359124
Ni 6.6916622057942075 6.32982304939522 2.738911293424734 -0.02413031738930038 0.5188637874561453 0.3949124467124489
Ni 3.0203982399538267 6.949860381811864 2.8068823185122502 0.20733812980146873 2.2035266833842373 -0.9066923307386191
Ni 4.797861353543185 4.8934192232751155 9.032764500430131 -1.2361766297542454 0.4228593096343621 -1.341785463435012
Ni 3.7193197195642007 1.8016293998801975 3.9199303458525256 -0.3876117992859776 -0.6343353728636044 -0.7916454915734044
Ni 2.283358803616666 4.854775310718403 1.101823945383736 -1.1597410752033253 0.3920775483668151 0.05949404160057496
Ni 6.739422686069648 2.7081188864063463 4.208750223926226 0.24429825196558572 -1.0220582438061496 0.7595115871533371
Ni 7.075010187448613 4.439122568352188 0.6418681902767032 -0.48403922357779217 -1.3650048389742686 0.35048892629175116
Ni 8.374610134016228 0.6443807827765106 9.83240006236477 0.6951450479518093 -1.5011789470364016 0.45849634211168133
Ni 1.145947025866948 1.8164115268897139 8.652407085170097 -0.4045610255458065 -1.5379760612600932 -0.41602094655628996
P 5.71617100529979 7.220579997499881 0.9600926901614065 -0.5396413863231287 -1.0756811713379282 -0.7568669504416384
P 3.3696513656156215 3.313577092309235 2.1923066221611074 -0.07885470551537387 -0.7315829790638692 -0.43489952862834774
P 7.781737958850529 5.896536945783572 8.080670029801714 0.9919477975740141 1.1921331183807857 -1.5849164345653737
P 8.481425303967638 2.708220386654227 9.604488637585147 -0.02415320020743582 0.989345841174793 -0.9381865446921585
P 1.2715028324952187 6.93237465729062 0.9467075756545373 -0.21858722035272676 -0.8752731929973893 -0.09240904716104086
P 4.65269754448344 6.136317440458536 4.657199541841707 -0.1401868287659521 0.04162024664394767 -0.05519952799027913
P 0.628842940285047 5.065065369736429 4.7951134650142 -0.23527008032504645 -1.3306027073453148 -0.9703083649273676
P 0.4769819603242362 0.9810368049468 6.522763947861879 -0.21392246788720576 0.8740575754227334 -0.007725907889347984
