# total energy = -340888.6040269045 ev
CRYSTAL
PRIMVEC
9.10781515761747 0.00000000000000 0.00000000000000
0.00000000000000 9.10781515761747 0.00000000000000
0.00000000000000 0.00000000000000 13.33020811523733
PRIMCOORD
 96 1
Ni 6.220154921163363 2.1808662983695184 11.34475354721241 0.3728811779440223 -1.102969574740236 0.9687243082696995
Ni 4.675587901152541 0.31564499005823016 6.271196027125747 0.3413255146249283 -0.6958911820892144 -0.42604413512024686
Ni 2.903534986239336 1.4268211878733363 5.0175435471419885 -0.30270240293609163 -0.17740868923188802 -0.6356188675617183
Ni 3.796674647199912 4.360311777601239 5.176399323781252 -0.5497944155967305 0.6079651104001916 -0.9365328111388193
Ni 5.215535604775588 4.353180358467293 2.695781172503868 -0.3063356288133047 0.2459265315976281 0.8080910387239372
Ni 7.311744762851331 5.985109539822699 2.5527083284536394 -0.7757221354749285 0.5696834412111738 0.7031278090469697
Ni 5.168184074663985 4.346340389412896 11.61552979752419 0.11994607623904503 0.29415039960102246 0.1197056780934648
Ni 5.467767432994613 7.9211304479267435 12.712152617773354 -1.0662506220526475 -0.5032319944561591 -1.9243627298897181
Ni 1.71749710314777 6.434698610970807 0.4263468380856353 -0.11819541209652548 0.17830009069790584 0.0688986227439265
Ni 2.545242652509712 1.539366457653884 0.2839825820413089 0.11365895767875264 -0.5108491446817848 0.659378174764845
Ni 0.7392002828506925 9.064024611430185 4.704617239857044 -0.2826431702923713 -0.34171349409196633 0.6913429005968997
Ni 9.001763588186693 2.270660246315332 1.431530839002536 -1.4185701737952343 -0.8553450866148946 0.13295457268357103
Ni 6.88314920524568 0.5852609047408084 4.82397606602853 -0.969619309280143 0.08784585327039066 0.801216165980975
Ni 0.9908209766841644 7.653943587500899 2.653617453808224 -0.7821581209082594 -0.5369656392631784 -0.44575266929276786
Ni 7.851974808738939 3.7366632542579343 3.6513175631512254 0.3195971218089012 -0.22136092644312202 0.5025665929580183
Ni 7.739201843583745 3.6850219432879814 12.76653993496155 -2.129508222915242 0.02346260189831443 0.5334625112059264
Ni 7.942688645998327 8.958565221708653 7.024566248531475 0.18606302247277634 0.06736727370106463 -0.8249736734118889
Ni 7.04607890752813 0.38881444331031284 0.28483598430548607 -0.6048232223371003 0.22745881181074376 0.649594870125836
Ni 2.147568126781133 6.650535610506246 9.147628888311592 -0.9217021738838901 -0.05641694533714799 0.7310345627595668
Ni 0.013174454377078757 4.829947149533274 1.5623272592332933 -0.1564570266808854 -1.1374174720054604 -1.3781799429036456
Ni 6.222468306169778 2.2413695133207345 6.978217488849818 1.3151187527771027 -1.9422013007330357 0.29629315697563813
Ni 3.6027783739654637 4.487037915314805 0.9220943155821951 -0.9922614721596912 -1.0576693081415398 -0.48787685215632753
Ni 6.027506418581981 5.573709536910395 4.773907674706639 0.9402444556624516 0.3100791550161369 0.4019999496868496
Ni 5.244607750210524 3.277538300819607 9.382066778392698 0.41190101085064545 -1.1401832076760556 -0.8206657900651544
P 0.11350705504305685 5.590185574219856 12.238730216370188 0.17393101509593273 0.840937652940313 1.654782563428892
P 3.908400213631731 5.780812141874373 12.59371368091544 0.1444450898216738 1.1659130083419922 0.8244594527796316
P 2.570061448346241 8.620637962287462 1.3662660583767008 -1.1689389396525094 0.25634155628336497 0.14960555097669073
P 6.314429914082231 7.716587138973799 5.920211804140795 -0.13794328414741405 0.8600239801478027 -0.5274389307196659
P 4.494251304783624 1.0062678309002209 12.64319552895224 0.45945716336305387 0.7158815091682122 -0.036965521480755686
P 4.108362291646777 6.08344661822527 8.190453090966775 -0.02559558908091721 -0.3761529067167586 0.6949820400113838
P 4.682282145167164 1.0677546898699122 3.8292751601603796 1.015923077442689 -0.7409230255178724 -0.09692339009162662
P 0.198309920376607 5.626735235758202 3.582386886993572 0.016427292318087837 0.583804196883272 0.934812486013603
Ni 1.7647302316645557 1.1657365634880341 2.8293764242797863 -1.921413674563723 -1.545999445785202 -1.1968678048522936
Ni 1.9661404522623571 6.696347919885234 4.811084864697512 -0.19983770765936554 -1.3153815195201863 -0.3415234895683473
Ni 6.093028039590418 5.76276956038734 9.291155301548118 0.7872483909469733 0.1556576707080416 -0.597800511162364
Ni 8.44503928935965 2.4573431300809614 10.344308342432663 0.8826129211919121 0.6690066989935446 -0.5270820616008793
Ni 2.2406864271967932 5.444588043855542 6.983362493535343 0.8887483446656889 -0.5468880405832129 -0.6305378534943851
Ni 1.0148018535419925 0.13367357898479745 9.224783921401498 -0.7900393234285491 -0.34157851117599886 -0.708333007396993
Ni 1.3443043841012428 1.1877592601238975 11.382050960361097 0.04820818427411052 -0.15898390686779715 1.193105509596384
Ni 4.018959979745357 6.980994461639015 1.6927630099906095 0.49270178434879663 -1.0487033571975037 -1.0482225609063431
Ni 5.782761214281352 7.927050527667567 8.15676783724149 -0.9776172398839551 0.3989382800423904 -0.1140399951672552
Ni 5.629476688068952 2.960868681575465 4.607013340560836 -0.07627794592713313 -0.6839633203033769 0.49081125219430305
Ni 0.8576483275235905 7.5394492453133735 7.019154384866863 -0.31633053524248744 0.29987007569361906 -0.13633814444382328
Ni 5.283816893724747 4.280827876219444 7.101228548830643 -0.7921836234650615 2.4019425709954114 0.37713481101405366
Ni 8.456888556656285 7.655865336462922 8.97673531260549 -0.7106760537078729 -1.0567406256796834 1.1492689720274079
Ni 4.696544983435056 0.5311805209176363 10.42728873398754 -0.1780056993859386 -0.06901200839333921 0.36965547191787307
Ni 8.085499184976962 7.230512160992246 4.769215328425913 0.5964774214755663 0.07392950029961462 -0.23537446711339466
Ni 7.4319314894050335 6.424151761217155 7.2059237928748585 0.13531587382689597 -1.3210096643402411 -0.36692933123596166
Ni 2.1575411841906735 5.2603642701361 2.61205394012015 1.2708183881978308 1.2612798525797762 0.6527802098323532
Ni 2.1343617950516034 5.678221713873395 11.474656490793052 -0.5529653571255445 -0.9301001681395983 -1.0484416188956844
Ni 1.3231104986290947 3.3988999355064884 3.699159093709068 -2.0630596043737053 -0.3708782885813806 0.955219331804729
Ni 3.393517216849832 2.6448548250103063 2.883084298470036 2.4113931748853505 1.3939917131249218 -0.6004304925860433
Ni 1.354477813440473 3.4747589265239025 8.065349055102196 -1.5835102982464664 -0.7363929988580027 -0.09605410011279586
Ni 3.565081127738897 2.533375169583107 7.118317542088655 0.41441992061775723 0.6897974104866508 0.4918736320205464
Ni 4.32140319198155 6.756140725267552 6.15085082459129 -0.41601811834281255 0.6621364542362725 -0.3435078669882278
Ni 0.7000257490334154 7.786107090761038 11.315320732304032 1.0710621845086779 -1.937003815692496 0.3440992207153235
P 0.34119787578262156 5.5552024568590825 8.041034832215884 -0.18482092253555912 1.0677146081926836 0.4762017298112445
P 8.545890124698326 1.6980154868929678 7.959920631951617 0.636996207525219 0.18100797654737213 1.3088077229574104
P 1.4434884892975008 3.2274271027672827 10.444124529988942 1.010480309160563 0.8750379370581316 -0.3883211666481764
P 4.159202114897972 6.233661810787427 3.8604411922605704 -1.1691258588523348 -0.7224015696749171 -0.7551898198495317
P 6.975092597528162 4.077514122289593 10.461213523246952 -0.5711641395217582 -0.41696325586490124 -0.07736346568182806
P 6.071560919668694 8.002863979610051 10.377260417051586 2.539142806329214 -1.4843968424820566 0.35018013680208077
P 2.5498238834476106 8.416841494163359 5.8727300322748945 0.3758932252974687 1.3091751335991584 0.7627000121836478
P 6.951266553525095 3.6237263484329936 1.5967056176790047 0.9634656309739215 0.9534005334284353 -0.4535387409960898
Ni 5.412328163175546 2.8064365706748444 0.2922297085110253 -0.6833233727265329 -0.6122341700891908 0.37655631280276436
Ni 1.5596859928873874 1.1796350891564904 7.034537484378019 -0.6670184649189222 -0.7200808919615405 0.1892077387493451
Ni 6.910436218943384 0.8392505412521082 9.126460504721406 -1.1139772387046492 0.1377800190966724 -0.28567630069174027
Ni 2.696423273460372 1.7533818941921464 9.499439190115766 1.7964794010814673 0.13093959913607128 -1.0980525970545927
Ni 6.486130442196084 1.713480556738996 2.5466561853955207 0.5819252346930043 0.34035260918869775 0.3266877101070954
Ni 4.2827223017365075 6.452048998518913 10.49042046434368 -0.636066496622098 1.40812043921682 0.8361080927621536
Ni 8.085180411452455 6.798974779146156 0.4118071222421727 0.46275794560151273 0.8732870158052961 0.06366694203134197
Ni 7.633842639827058 4.046246993443059 8.262676242241826 0.7413639697100329 -0.6807211592169955 -0.6356463783655439
Ni 2.8731786388913902 8.238464937664855 12.507081055551229 0.6558097406872962 -0.22231403438501068 0.035622891409932196
Ni 8.839498756398214 5.089702032930638 10.143381746810613 1.651659444418878 0.19185057568883088 -0.6790437715145724
Ni 8.790571574294054 2.2813163898488145 5.929396124772558 -0.09810198378076009 0.7625532021931383 -1.379887669623372
Ni 3.2105503215984426 3.1472236840016032 11.919645204591792 -0.1332808456747382 -0.3488997274277604 -0.5297935469947714
Ni 0.7925465767860024 3.394610154648138 12.538113202771127 1.84941070186286 0.006870758977904296 0.4633220456350988
Ni 3.1268039628032547 8.507710164277508 8.05443151727862 0.9022517784687623 0.6499003171813968 -0.07613962057705596
Ni 5.70526281656648 7.958563567518719 3.5472616877190184 -0.6268969143076881 -0.23518009171440143 0.3247100175554343
Ni 3.2043661152230287 8.313586195668412 3.43660720032954 0.4919836752358494 0.9229288472021395 1.5886093100359284
Ni 3.210031176144247 4.252174690273859 9.257829806514774 -0.4458668262731289 0.9776990009644839 0.5059586493587028
Ni 7.149516362322794 5.910061144339029 11.651481075617962 -0.8605834521956985 1.3452903912644765 0.039026517774842465
Ni 0.5872546054412179 8.834316409671247 0.39987133070317393 -0.46438416835102597 0.13011196102845335 0.08255452296446426
Ni 4.752904142567696 0.4102906710470233 1.5756437955241516 -0.690533774432043 -0.39171142327664793 -0.5655984725085226
Ni 5.746311738707851 5.340276238822232 0.6147383479426165 1.2648156336471765 1.4685609038910643 -1.1640332748207758
Ni 8.28976925948033 9.27403260937466 10.854788621450387 -2.112144277715498 -0.44761183398869364 0.4106473409492024
Ni 8.983210969060451 5.061167248579869 5.9005899275352105 0.8034527686209776 -0.6660892682364334 -0.946333599279325
Ni 7.795834237165961 8.643061402782704 2.604908859263725 0.9288254151922326 -0.06952057259864156 -0.49970701202203616
P 8.519951067618534 1.3823841585572165 3.741963091798219 0.8273041213172785 1.0003139101505225 -1.2015608394525887
P 1.7528809643679228 3.3003898086191854 1.4286518586854986 1.0784119400055299 0.4929336978539446 0.04558925859402471
P 4.803652887669032 1.2265949832236995 8.371357066123863 -0.15229569621434416 -0.0627562572916145 -0.5569783349396794
P 8.565171369023439 1.3531207490075767 12.614948551555027 1.014435180043253 1.4546352949489076 -0.28093030136632263
P 6.151199653905248 7.628068285126008 1.321191482011569 1.3314475718441134 -0.6830122692440173 1.5295814094384947
P 1.9944384334234935 3.352960116717698 5.7326290682545595 -0.957250760412461 -0.006647330113188551 1.4823913820162533
P 7.116864845598407 3.9544402183853657 5.9711736721128 -0.23877937902988552 0.292971805911889 -0.6146011276594706
P 2.7723551269976734 8.672789310896624 10.397601811041056 -1.745467943030607 -0.7852519293422346 -0.8278959892650064
