# total energy = -381171.5712483876 ev
CRYSTAL
PRIMVEC
9.19904990257654 0.00000000000000 0.00000000000000
0.00000000000000 9.19904990257654 0.00000000000000
0.00000000000000 0.00000000000000 13.46373938663099
PRIMCOORD
 96 1
Ni 6.3421837634527085 7.508687684020225 4.541413631480445 0.5861405583259325 1.975057685141424 0.644376044929058
Ni 1.413020059766206 0.6506589183251164 11.94315776089755 -0.2578767619809688 -0.09753351287179976 0.005010565840713951
Ni 5.360470357260269 9.092966455759788 5.952695990720693 1.0750898176108323 -1.885786669388733 -0.2383669740828153
Ni 4.641886574384468 4.111082997100985 9.826093016621227 0.8062879240769276 -0.11113079194026024 -0.812875090376142
Ni 1.4061667675913039 7.542917348695138 12.956829586344792 0.8336544890153386 -0.4838947275801279 -0.9115550581475591
Ni 8.329666091323988 4.54124896848725 2.139091869259952 -0.008782888398952615 -0.09498400697706867 0.6478856007442132
Ni 1.68172430732176 5.517369352340978 6.05220671300526 1.609414162596422 -0.958593904703917 1.1517680843001776
Ni 4.7630840568063935 3.770221402136127 4.010767357950238 0.1662580719317072 0.9964562269673292 -0.1925458019836426
Ni 1.4406080104138987 5.181576433870578 0.5495356025932199 0.2353654682523301 0.6372420049874381 -0.23635971384479942
Ni 0.3822655986561551 5.127899977708761 4.371366434378813 -1.5303427130845515 0.26934336785967167 -1.9103669298312584
Ni 2.990482335530463 0.6655310222971487 0.8132033703289634 -1.5448450204657844 -0.2885322820832967 1.2102352272981352
Ni 7.510472299700669 0.6239090011232403 9.564182267416232 0.9170646751118787 0.2269584751355575 0.8542557102054578
Ni 5.703788098548212 8.86531756790435 11.41069375510726 0.7068836765449762 -0.119594092216265 -0.39200401481640224
Ni 0.7981978801333927 3.752770804477349 12.160786123697791 -0.8467190355087804 0.6572351602799132 0.5572439298962403
Ni 2.2660479569187744 0.23673938896582314 9.677830089585884 0.1469601429340437 -0.07165973042883142 -1.1033488124565254
Ni 5.341842281214394 6.480013128092382 8.956173824043752 0.8465372585152776 -0.5547797846264639 -0.9725819914528928
Ni 8.646536564151742 0.9584214118476723 2.5877709285683523 -0.14196346105040067 0.6313870888685578 -0.2759495603222796
Ni 2.2675933973018396 1.0770799564974185 6.615260319425351 -0.7840162571629208 0.5984471436074273 0.8331279270879071
Ni 0.41268869648278056 7.953930898191275 10.10810460976096 -0.7127653321367337 0.08814461545773207 1.3700789110630662
Ni 9.014636545868122 1.7751130618984112 6.123497509914061 -0.4284100642492622 -0.9465881384922923 0.4134467580712105
Ni 2.461923326422383 6.8584068466459644 10.632597638813595 -0.8301739866659058 -1.517439117649006 -1.3431388921391128
Ni 6.775054255509338 5.350710165317221 4.747153142190963 1.0086445415034049 -1.994412435518952 -0.21602305916997636
Ni 0.592647869850798 0.2814348127110532 0.5887989873729739 -1.2992445047490075 0.29316206754582413 -0.31486629199213517
Ni 7.231566305806904 7.396082114204149 10.014114237320902 -0.7896945384946206 0.3672005826194773 2.118157573789113
P 8.50189070353676 5.554248343386861 9.47260204604976 1.598791649885569 0.271201761224649 -2.290890969032519
Ni 4.515785998366272 1.7676434333802629 5.13089610826093 -1.1433991435101922 0.7938949497292134 0.16238959011523646
P 6.157788808223298 1.3848249718251662 12.538511071323702 -1.1165244306065352 0.9079760825470492 0.5046059919855502
Ni 8.219921426026565 9.067908243834372 12.088902907975482 1.2955935382599817 -0.9340077307241205 -3.5803596253416856
P 0.014974213425913414 3.3405337813446194 0.6862509622901007 0.12309722027351701 -0.8367716944880816 -1.107186183924745
P 3.844356545273758 4.375123326357645 5.9438639829124735 -1.5465267790435817 0.713931584530693 -0.678796945611089
P 8.550535279403718 6.857339756857658 5.186300145993815 -0.9681332116529199 -2.4382120948504076 1.6589387516891105
Ni 8.718703110610944 4.0387048724941 6.342888410674987 0.2782473552175208 1.0380319935265865 0.30572242070933797
Ni 3.3790134070729616 8.083122354975602 7.183699049656432 0.5357852458018321 0.9809164794605171 2.337688646112348
Ni 0.16093921779643713 9.078588340767341 8.129109325326679 1.6420489179123074 1.5008868697172797 -0.0765283713750424
Ni 0.8393930653919782 2.4302417985695475 8.197196093155588 -1.219286795977442 -1.6941469241591274 0.27235438677185353
Ni 2.881767963821749 3.3115751722619464 8.341324967166232 1.6922113976993116 -2.6339980010379027 -2.1500809048602716
Ni 4.838277090682433 6.325524284085262 3.177926775801458 -1.2296905078092693 -0.9386992226625189 -0.3220373558192776
Ni 6.506487993702272 2.593653720978889 10.112089638177293 -1.032236984111364 0.055854902186090905 0.4806245414692884
Ni 5.247975176042984 1.2318815682011113 2.928269161062192 1.336501589328253 2.59050521996159 -1.244647643339734
Ni 9.01133408695431 5.902634761169262 11.463404311029661 1.0202381598782753 0.047344036501602335 1.084825042620725
Ni 4.456525718915643 8.509755891200575 9.27125232195114 -1.7770218065774879 -0.9005774760901328 1.5352373221726914
Ni 6.944224783155577 4.262775329938749 8.340059177900102 1.5488649402584551 0.11625114388596107 -0.044624066467277984
Ni 5.984929461567481 5.869729759679832 6.818522525998016 -0.3478265489682397 0.3549449051805758 -0.23025771471211956
Ni 8.193483356616273 8.729134833196634 6.281264895305254 -1.2450423076749912 -0.15702498336921344 -1.1907375235848396
Ni 7.24457376236437 2.0921675157241464 0.9622776535654157 -0.1314047116979479 2.5504348343032652 0.5986263494977689
Ni 3.5593699793966245 1.4468265681457562 12.21445246090472 1.7214808360873899 1.856557083099654 -0.07765014368431143
Ni 6.888460142666642 4.95864665861343 10.553174881793906 -1.5512714928174185 -0.20886896462369833 1.9358887282514465
Ni 0.613449681387853 6.862141660905039 2.0502308870436856 -0.7394029893289201 0.3983782937738623 0.6326595278230782
Ni 9.017994199081329 8.369396787838623 4.0014100843927745 0.4790445985766782 0.6507251270755373 -1.6561797008867347
Ni 1.4516836664925323 7.748000967147843 5.970428079306386 -1.2910761100056023 1.7354689228363662 -0.47334086332368164
Ni 8.056601494116215 2.233271742127934 12.063793181370634 -0.1860511953982344 0.00826995331827608 1.5972312473769847
Ni 3.534109388373429 5.773406508185337 7.722101042156652 0.22573308736888864 -0.6792929114109011 -0.47093456787503407
Ni 1.306550256232896 1.0471002528759346 4.236540559531227 0.47163416504522 -0.667469950634044 0.2566017519232871
Ni 4.690080396806364 2.607654674925467 0.7224896994629987 -0.11308791566663104 -1.7169346114776045 -0.014928339175058161
Ni 0.9534907211017024 4.6934288509696716 8.144552690297452 -1.7367819852208348 0.4750192794673691 0.6418159975113656
Ni 5.085234784276284 -0.02440139976261084 0.5795815393739783 -0.24939340710030597 1.0187744308485553 -0.3308752658258818
P 7.029987525365794 1.3490406677172886 7.184695306760514 0.04645597746969419 0.5220617255681524 -0.3853296881200203
Ni 3.1401876735900007 4.444373773998803 11.593908472234604 -0.09926746484377097 1.532555147354838 1.712767367473792
P 3.294520133748834 9.079370260008773 5.246563121883458 -0.26667816232268265 -0.48132490997042265 -1.2788643984307588
Ni 4.631740022345654 1.275025112228347 7.563766995291668 -0.7140835367275251 0.7250948002363641 1.148885106325428
P 1.5465166719033574 9.133184701919077 2.39468747070915 0.58535971429585 -1.0247779567301578 0.6142352596796196
P 6.803148153901486 3.1335183624130827 3.2619674558705447 0.2289459378792315 -1.0520992702529302 0.6410858042135605
P 3.524891940374433 6.533634389954803 12.680042133642814 -1.4721229102107098 0.26761507231465526 1.8057418002199999
Ni 8.77570962283627 3.2388290856590936 10.294038566038507 0.8874499375692394 1.1627286970767394 -2.711565612310736
Ni 1.7261005240354879 3.0938612582976432 5.291989870095673 0.8425397073201102 1.1191490127135757 0.4639573652262525
Ni 2.942306911208367 7.130100785418758 1.497517932615283 0.11386798836576519 -0.40133583374028947 -0.48055306480140464
Ni 8.02206826079463 7.159611337495383 8.000006179421383 0.6049070403001582 -1.842836391079452 -1.4017543877894763
Ni 4.029340239696717 6.899351817747292 5.392671631432409 0.8268580349187953 -0.9598419181784051 -0.17441875336562868
Ni 8.795138016223374 2.9187021491670264 4.070559342485041 -0.4543476100506304 -0.41537688521438787 -0.2094783160729231
Ni 7.242301597039268 4.621151915911678 13.343602719451555 1.4854563940948224 -0.13523796940110902 -0.41662721268172115
Ni 5.304254963326274 6.930656184554261 0.8717396845525258 0.9760326690056547 -0.4664567346093386 -0.19510687784259947
Ni 3.8255352891800003 8.774458552049978 3.029449510903463 -1.6955281207773705 -1.102485693125282 0.7896605999328916
Ni 5.436482106577336 3.8117459133811034 12.192412457251233 0.3929015869300072 -1.464155318624201 -1.2793894176962932
Ni 2.2375584993809605 6.565858661751691 4.008761045167223 0.1477240176832617 0.0027845047236726237 -2.0101930953919767
Ni 5.114055407610469 3.547328423078575 7.315994265876748 -0.17948974013063282 -0.7019170765683201 0.25606799090700416
Ni 2.1768171728965604 2.709175389613009 10.70382128265813 -0.644168299793626 -1.674915329623025 -2.0551820013978412
Ni 1.3096963312984216 3.636559207100789 2.5311967716882884 -1.074089915591408 0.7748736714317043 0.08269413386612211
Ni 7.34301279533568 9.151251635921101 0.49455656096567713 -0.06994943260594405 -2.5501885226204144 3.3102744942199833
Ni 3.4636078699459807 8.444332248317483 11.756913796638402 0.352285870291174 0.8925101257009661 0.6008413548712168
Ni 2.9465476732118967 2.247051918876932 2.945987451073036 1.7734029788779782 -0.8322910330089085 -0.08901621942940799
Ni 4.286978030223537 4.885780984361888 0.31459278807270996 -2.0889341581476217 0.25494467593583836 0.8948197476707492
Ni 4.813586840752987 6.225999763225846 11.079876602727339 1.2783100685891855 0.36510539065334546 0.7948442010163601
Ni 4.263778026377762 1.4138571733070329 9.968996577185298 0.7476734568678285 1.4458783746918842 0.1801980790515671
Ni 2.272275713700531 2.9519199183530285 0.28630203001271853 0.5334491414694877 -0.8250132684005727 0.24477930536706227
Ni 7.1849823171173695 6.380608194881655 2.697890915101664 0.40505647712498627 1.4934062450695185 -1.4455148207048782
Ni 1.440985171459766 6.959789575585019 8.239296464924255 0.2797758760469053 0.34938438037366276 0.2560628487006816
Ni 6.998039225065882 6.752838550002776 12.40526099372385 -0.5247235886710317 0.8112421827584092 0.49852250479563176
Ni 6.745470111033519 3.004575279976034 5.54198508996624 -0.48610150542345965 -0.28998032738373286 0.5262575088170549
P 6.118352481305439 8.526654545865402 2.5781717199985397 0.45484614695360376 -0.8924985557367403 -0.709280716022243
Ni 7.019454613231213 0.8234731896364273 4.464010065913629 0.5338396920396871 0.0385043267227853 -0.10218669537309498
P 8.675108813138648 7.198063366074028 0.2455907147788308 -1.1031603505948033 0.13567865648295344 -0.06543380412377764
Ni 6.208825137064045 8.77042936819413 8.096998201843551 1.225616851960528 -1.3341045498509863 -0.9842144334854985
P 2.572955858705695 4.89182476014566 9.495759734266 0.060351247394547676 2.1220489384237196 2.3379544981792253
P 3.187056832826411 4.58204675479019 2.7377301604051074 0.6169408315362408 1.2415841739230618 -0.7731240357304492
P 0.3683492759686494 1.1621343718653971 10.136000728580276 -0.5080497275597766 0.29754374155328756 -0.38393409332407424
Ni 5.939237780718168 4.27604955894329 1.7292695967257614 -0.1279334653198958 1.0170741603279967 1.0407586484291302
