# total energy = -340864.86478759244 ev
CRYSTAL
PRIMVEC
9.31612248939184 0.00000000000000 0.00000000000000
0.00000000000000 9.31612248939184 0.00000000000000
0.00000000000000 0.00000000000000 13.63508695131882
PRIMCOORD
 96 1
Ni 9.024676845134952 3.0419655050720547 10.763387626335039 0.8338984867053446 1.0963880648679762 0.2234491764307184
Ni 4.25314526462919 4.672808631232812 10.079860929624543 0.6309615712953649 0.5266532015935769 0.21639252669425313
Ni 7.944565611889144 3.533670446340933 6.936304972799005 1.229357807060199 -1.240277025075864 2.2295557604581475
Ni 9.155102558999376 4.730633803086846 5.104526128634232 0.6299071618889216 0.1864934251419756 -1.5404661746717985
Ni 2.237071160325019 4.572800057066055 8.782754846549041 -0.39036699343361153 0.35373751513603596 0.10109551919144524
Ni 9.206322600058419 1.7394504813201468 3.021685238178378 0.5272977771561113 -1.2718686838392161 -0.20724171343292053
Ni 7.566107454744261 1.1320951963432 11.745755034774122 0.9610912172044737 0.8620163279874831 0.09299834400560758
Ni 6.596504065631295 5.440894976302824 2.486153530602086 0.9073559324645469 0.20108829223701494 1.9988118501382284
Ni 3.160690169178356 2.894826667588146 12.643489197486582 -1.5058192740218905 0.5381041237429959 0.5742844303182948
Ni 3.3936957069971494 7.771649063672174 6.4898922238940315 0.050545574158035525 -0.23210428100255512 0.19245529915236534
Ni 5.9418880916233325 1.8685626219235076 13.404271702580184 -0.5541287813060263 0.30132866251701657 -1.116541914108032
Ni 8.815157251934174 9.445896004182528 4.98198837562188 2.261060773044964 0.17593596134110345 -1.9508011265869047
Ni 0.8571223902518025 6.010184585076196 0.9298934173024579 -0.7938514980857876 0.5310760132516209 0.47701214152768173
Ni 3.22052762347487 8.30708388357531 11.70775363981524 1.1290318190449267 0.8939010925112219 0.9067206128733933
Ni 1.397893485076477 7.271047225493258 3.166912407341931 -0.5704187767153014 0.01859627494494862 -1.4487919487942533
Ni 0.12723214709922936 5.7579412544624 10.23802726121569 -0.9269613654003003 0.22788535782520108 0.1848090954610172
Ni 4.891765456443924 4.227162599202913 12.505515561238374 1.9794424444726813 0.7822424530919495 0.12884235028741034
Ni 5.544676580049229 2.0968821501656008 6.043111488153512 0.25204241468737887 -0.08944019434070404 -0.7874008573644374
Ni 1.5718348067595245 1.9306638939678114 0.9154320004716189 -0.9564663168379527 -1.873712511833018 1.0448659857292844
Ni 5.686756763059681 7.966682086511582 9.88399225060416 -0.1220168427251447 -1.1878761428766444 -1.533452462358127
Ni 6.856982848463388 0.8942657703359067 3.677996746466579 0.19569668890779843 0.6173460373944594 -0.22581639111131432
Ni 3.1397382098582782 5.79018435415417 13.579646775503498 -0.32133878709035624 1.401671855377999 -1.06415183054209
Ni 6.028611875220756 8.582729313705352 12.088813789951717 1.4234616975595806 1.2095603127182977 -0.09807575852851497
Ni 5.065557720168268 3.845471747578676 3.972473786454159 0.1637065091544471 0.320656416311351 0.1834081013484325
P 0.7471846928109958 9.152866689618843 9.2100919031891 -0.6908811304691327 0.278789600874236 0.23039501162093226
P 5.617817457159915 0.3879410381550683 1.568252757689462 0.604632703592849 2.1260102370643126 0.862042039019096
P 2.465595643260327 3.057504797266759 10.337277503017548 0.2392491195774525 -2.280417323194705 -0.652685850346334
P 4.156089901269221 0.43329285370245424 6.5204621479993685 -1.9985082028548808 0.7096460697814617 -1.5035183938028556
P 6.32190204121217 0.6412408170511661 10.03359706569235 -0.08798212173793879 0.6866336680466885 0.9486272804095083
P 3.734265194264417 0.9110562177714675 12.457574795270778 0.4898805128499175 -0.645741814928333 0.1666383380892614
P 2.071775200246699 5.358847886159682 5.141695593861109 -0.32391348979606793 0.8085852047515364 -1.7848222764585133
P 0.010515107374198238 4.336757463338705 8.738235892345903 -0.6159131616026748 -1.0559579818773877 -0.7291327177511636
Ni 3.820867868270395 1.7238366601460917 1.1077959542380158 1.2725677667887698 -0.2365564032366378 0.2835595114590536
Ni 7.13270280757278 5.737296727182146 11.005819216817263 -0.03436947861880533 0.4483152878136215 0.8858360561149001
Ni 1.7872515054514582 7.111238461519663 8.1597270488268 -0.3338119798567025 -0.6822476231638509 1.2360424181692262
Ni 3.791326444080102 2.487814595229374 8.003100672271497 -0.8100131954473146 -0.84137551180868 0.2078461797861388
Ni 7.660218923419862 7.432821691297239 1.5503229484820713 1.0414968121467354 -0.9183738808416054 0.004849100562185197
Ni 4.583373856011493 4.1997918315362215 6.465989848603892 -0.1158888754505359 1.750047334871173 0.19819451562898768
Ni 9.17926858055397 5.839941763993448 7.057670757611061 0.13054930567618805 -0.5502317602444653 0.646747373374712
Ni 4.850066492496983 6.634662903059058 11.70067711322585 -0.015762405040579307 -1.7434043756333588 0.7985080230211925
Ni 1.917854225641841 4.752042252405449 11.348019025507837 1.1060605549607339 -0.6662473910808526 0.26417776449833213
Ni 5.950403027514196 2.7508553117266605 1.9454271531650222 0.5165603361339491 0.25871417028059956 0.6315338988590672
Ni 1.5476222045928358 8.148793647555994 13.582741591371054 0.4807219862791011 1.3743474565314329 0.7686695995035214
Ni 6.981204024796833 4.941215434243378 8.60215808700994 2.060282812959516 1.2633048534296052 0.5316668527580843
Ni 6.6197664233112565 3.3453077671534484 10.472005402215013 -0.45955306551096986 -0.7467136640577204 -1.2547937306348003
Ni 3.0083901998743845 5.3583354994266434 2.7143640602118784 1.0761959061908175 0.936032217353317 1.1401793510213136
Ni 7.527874088337147 0.1306614117616218 0.3902262829844214 -0.9276658476664927 -0.20292431700448924 -0.043614651366157144
Ni 2.9577384422828934 2.7338533883121907 5.379805435153211 0.7128373230252498 -1.4829097164135687 -1.6970568987170709
Ni 3.421308693846732 -0.03184157481551533 9.449469668742413 -0.263399748681727 -0.13702951408389305 -0.28871945839343827
Ni 4.373258030975905 0.8037866577914301 3.705457880520733 -0.07784374775235625 0.4690075260556503 0.06492215459468173
Ni 3.5760681194692894 7.476998743807603 4.245284320532133 0.18328237440384565 -0.32002881002968114 -1.2224001447954431
Ni 7.885277808815345 3.7566052558249092 3.350794963258173 0.019588720765204976 -0.8601167969719251 -1.4753131350132334
Ni 9.161539999590827 8.351866484042901 7.139127205592844 1.3950198972791201 1.2030682772360506 0.7861957813127427
Ni 6.896883800783483 5.265015901156647 5.826504189016444 -1.0764327047919717 1.1858285163189966 -1.107334536577151
Ni 1.3178120967637208 1.9119943846403609 8.569134296259469 -0.23405600541228722 1.7389270565882955 1.584541310614142
Ni 5.562870967133316 0.6055106927380072 7.986001861183871 1.325924328033039 -0.03557224067765486 1.302720636223066
P 6.781177560340901 6.833114942826199 13.219544174360548 -0.14053727012683537 0.052477758183741875 -0.9712424467058628
P 1.3315906418212553 6.366302680660587 12.368673833864062 1.2801262958623179 -0.693918888854192 1.9288760443790394
P 9.010684029261784 8.752273425606683 2.8349389062305703 0.21788556630001185 1.0547397931995706 -0.1354130615263926
P 7.333129865292724 7.693030306579183 6.663248493089173 -1.9686412400921194 -0.27556569462029956 -1.8838837959390653
P 7.501611939238303 2.7862193124287566 5.1110306453071 -1.0939856260740708 -1.633078338982581 -1.112171295844162
P 3.570152381733296 5.919072907819477 7.624836290472927 0.16797762572597522 -0.6566481774281917 -0.32826379634496367
P 2.5553751150111452 2.0087236837156692 3.0941833028421604 -0.7343772539795547 -0.3028420138377494 0.5297817199202295
P 4.202027700916754 3.9464957790890915 1.3209553564678536 0.8422998233951622 -0.0601455591416448 -0.35192103075258746
Ni 8.09054925019311 7.081967204879519 8.599376292855661 -1.7801235854312634 -0.8949058796266522 1.8310782221022592
Ni 1.5934854752610188 3.9354841223899664 6.662130558398906 -0.54579840706346 0.5638046138328935 0.9111264552505728
Ni 5.677831917782387 6.559984865749256 7.496952946416617 -0.7166006467224239 0.743765380062674 0.26823239418368
Ni 0.6752819283697807 3.445791463563568 13.139233609436289 -0.16505993785854797 0.7568384111965483 -3.1897221518555066
Ni 5.243411813267247 5.845317166629146 0.8786081633864826 -0.38160441674963314 1.0780460720256788 -1.2830468119432228
Ni 8.446220171901393 2.5993658450731316 0.7770605657961259 -1.063304652050446 -5.709714867618831 1.8506049792812773
Ni 7.6764755570408205 0.7435765585981607 6.621075338511112 -1.968056828343559 1.8336812069427453 2.0023900544077904
Ni 2.5059624017013666 9.257728963565839 2.2873400252850935 -0.6426688324299641 -0.4794870854307355 -0.3364507030311302
Ni 1.1889142269759945 3.7471866560594136 3.2948777332755266 0.5991307999380133 0.31456778691510984 0.27866387392964914
Ni 0.7329440680814845 7.370571361294232 5.34109508327825 1.4928794260317708 -1.1189626077343826 0.20590139735494215
Ni 8.157597383241843 4.524151265794625 0.5241166627764295 -1.132122285044792 5.512930859184125 0.24997061976001467
Ni 8.336792997969141 8.398204876954448 10.381046509365964 -0.3539177494676421 1.0494055254708508 0.13281573311286157
Ni 2.029573165689139 0.12778459315866939 4.7221030297878706 -0.025955800633813364 0.6254447552421938 0.3917746724144156
Ni 7.9210144544141965 7.395594466111365 4.1358767104569605 -0.944024234419858 -1.3465250350025262 0.16928811700728263
Ni 5.664481914356121 7.974610106690056 2.801710160786883 -0.40252779716586157 -0.7069345843875696 0.2461594735440406
Ni 8.905775174702692 7.280521721993267 12.356851674514495 -3.488117699886128 1.0168715573988873 0.8988864615409552
Ni 5.750199556732305 8.77323470104918 5.297476998113019 0.25099906102452896 -0.7720822247294962 0.6690537501813961
Ni 1.4075077234127689 7.638111764919842 10.702438758633951 -0.46544680528758553 1.0255210055437691 -1.8717445894733697
Ni 4.4551094825482505 2.263957489625928 10.724255254114501 0.6424813990095064 -1.3579800709170031 -0.458787648099855
Ni 4.525958593543889 8.458526769616745 0.1528170140982199 -0.4881483606501594 -0.03283067337677571 0.5268516907576282
Ni 8.120202467852428 1.508885767575102 9.24632044005167 0.1645012371416006 -0.657238759824339 -1.008116951134709
Ni 1.8386019722243658 9.317240353577692 7.395888855579802 1.9523435313733604 1.4774273531427586 -1.8195972180458535
Ni 2.0880318338676576 4.101991178382741 1.0245340417314515 0.5273872515461239 -0.7531123684952127 0.901649626108389
Ni 1.4577309393729911 1.3099772378094365 11.865020965592961 -0.20579623923564555 -0.46667604970899623 -0.5071099893543266
P 5.275142526225978 6.123291627363908 4.16579171115625 0.8186402749946933 -0.7277926587835014 0.46394785214455586
P 7.190416185957788 3.8769509252320966 12.368236907722617 0.3958712110812924 -0.5299984639167259 0.7999316428415966
P 0.7038339803591869 2.001103095577019 6.469889577448439 -0.2851836773260379 -1.854942430314367 -0.6055768126736732
P 3.6326449309191933 6.987306084981204 9.89447847799886 -0.13212873434816602 0.3613292114403648 -0.061213852505159094
P 3.4602407694352624 7.371195541496298 1.6679119772655104 -1.008296928355999 -0.9053509862193763 0.9240459915257183
P 8.960321071465277 5.633887768332495 2.7689313840560277 -0.21245025421705346 -0.08836418766770589 0.27915958261914503
P 5.497704690813199 3.6656705848941487 8.446540646512604 -1.3568773247711277 -1.5497758821084986 -0.17818310550406732
P 0.11129691970172241 0.729833414805818 13.493799639025694 0.7268845451469352 -0.07278973026821657 -0.7242069983147721
