# total energy = -381165.82181672443 ev
CRYSTAL
PRIMVEC
9.33324799371749 0.00000000000000 0.00000000000000

0.00000000000000 9.33324799371749 0.00000000000000

0.00000000000000 0.00000000000000 13.66015185797934

PRIMCOORD
 96 1
Ni 6.667663167173471 7.673852653809749 10.838907377242334 0.4006040977805875 -0.6479254528432131 -0.11767347815478443
Ni 8.430125753906566 4.043181778454172 6.386585864932502 -0.06808615414496015 0.749954025371889 0.06526462553576502
Ni 3.865756730535617 1.7496573702289262 9.321291356636843 -0.4328508736294352 -0.26603075854667085 0.4929576091133445
Ni 0.8494805163800074 2.0638891699828403 10.241781091826633 0.8464536976625359 0.3040596882949344 -1.5271792277549052
Ni 6.833561653588637 8.210309092750448 8.31513920299329 0.33511321516662934 -0.9619553649769821 0.30922914831101583
Ni 0.0695270989986577 8.68748073924619 3.5541391735971675 0.08793172811597759 0.6177381306265555 0.41690412049219167
Ni 2.4464683461653487 2.8145156549302244 11.83978624566369 -0.35548303707223294 0.42643519991107853 0.6295163542084061
Ni 7.710429653430623 8.95941425824435 6.241172924949552 0.37800847186825864 -0.8652101523344325 -0.20881317168509844
Ni 2.559176651197672 -0.08622521331907256 2.5435201273742436 0.8250726608835985 0.2340439212274292 -0.09911345576440996
Ni 8.731804334857195 8.927802546655704 13.637408111618985 1.8394715883722774 -0.8468506759906383 -2.5882763306310714
Ni 8.9233132542807 6.774006196946433 7.031016785428181 -1.8870303119878469 0.3842017451631641 -1.0605335170632122
Ni 2.1914186731264036 7.243253915736607 3.4679298268000025 0.5993308317639614 -1.3588244211951694 -1.0959149818862997
Ni 3.27881675218453 5.693038725884934 8.783531996250094 -2.1264858911491507 -2.8035738244889328 -0.8592261668368557
Ni 2.4944505750632593 0.20011604089591367 4.966325889426604 -0.764238303205045 0.07983223893729477 -0.33597170651218267
Ni 0.6318254355025815 5.6265393325961535 8.621482541384722 0.8655418246422384 -1.6300662916291346 1.187808779973819
Ni 4.4105197603573005 1.5496551949608193 2.176253078157289 0.44363510872913275 0.31386973240682076 1.059239223731821
Ni 2.8895269705599684 3.23264517343371 1.3305189275970875 -0.2819237756278435 -0.8683990915853755 0.1810372871234108
Ni 7.20200095877711 6.771775550631203 1.8748554279769052 0.04430704944749144 -0.5240425034436071 0.4107614979295635
Ni 4.710705021598988 -0.04102335905424598 7.644084258736828 1.3324575011658666 -2.121104315122263 0.22970878418718504
Ni 2.1720615163992556 4.7186476158009185 3.3535126040257603 -0.21706512728124552 0.09831152868840488 -0.159329463132674
Ni 7.522803365250365 6.688588309595007 4.909745872304464 0.703338382395879 2.5694417144230717 -0.17180111323712347
Ni 8.746485534245721 2.5294409224933836 11.889208594755912 -0.848555574496887 -1.313781007802286 1.3222360805481743
Ni 0.9442260519634065 2.7101979400125136 5.552701206262747 1.0288814373755701 -0.5645489481980859 0.4317743527358048
Ni 4.402007838016337 7.3355970732382465 9.520853002590814 0.61715937530495 1.366237940050421 0.24587048154871202
P 3.839856966833671 1.2888469077942704 0.06102824320514711 -1.51414810560256 0.670996989950696 0.880128978427794
Ni 9.288504589102226 5.093788193183265 4.4778526127086336 0.18886758180110697 -0.07277790319367466 0.1339868706028273
P 4.132183633107057 4.98203187946539 1.6748028531686214 0.27988746192410513 1.3971197172309422 -0.5668056054427464
Ni 4.023301959828895 4.253609191940323 13.159562604604584 -0.237484571477862 0.5084598185140017 -0.7328901279110668
P 7.752718600938196 5.767116716696589 8.583779952033234 -0.6916951417299958 -0.276012295239415 -0.09247306762975686
P 2.6358399517554316 8.999509892429415 8.911363896634716 -0.08999272441006437 0.11006455545927497 0.7381814582169932
P 0.5978486788249009 7.367236784571434 1.944098796230864 -0.615605657664585 0.07287586222411965 -0.5488245954842935
Ni 2.7770519967321667 8.673816863909378 0.30540814692370877 0.6802167087767511 -0.05456986482608021 -0.16085464152794876
Ni 1.8913547441110672 6.940726009201517 10.169464284946711 0.3734511915148794 0.1149275399785311 -0.8350287436550458
Ni 4.1240823736860515 3.925414852907811 10.47467270035935 0.3791538983266115 0.3220844070071292 0.28954401117726264
Ni 9.283511301325454 8.018912172305114 9.137657832028367 -0.6998725353344657 -0.8433699165308894 0.18360967583627733
Ni 3.2596929266619044 7.163071980614654 5.5508849561667475 0.049015767777070424 0.40709870436599566 0.9053257894083956
Ni 1.0756475195983972 4.090912009651199 13.719573361979373 -0.3101550025593949 -0.7949172203461408 0.605868375772163
Ni 7.712912297446738 9.116128828449527 1.8855793301367378 -0.2567992126460738 -0.7284380056769841 -1.8467704360265358
Ni 4.847679771901604 6.250373641006265 4.281187073665191 1.5588757875272379 -0.6964010318460974 -2.035003212457121
Ni 6.901545033338176 7.792552904174198 13.212140524906761 -0.9810638036716587 -1.283073808526416 0.2586133830366772
Ni 9.213381274494312 4.6970131465176355 11.956047718278475 -0.2267119063423902 2.3704563274616723 -1.533054969809392
Ni 2.947141111580549 8.93824645137011 11.181271453663062 -0.23314429223129526 1.3104969377343751 -1.698458664160604
Ni 5.847242652329456 0.8966759524562703 5.604869396969784 -2.0098274845224418 -0.8201865364358907 -0.5392246105006843
Ni 4.126387685986729 6.481016870052206 11.869429575210988 -1.5272134234269503 0.5171257217191159 0.3393761042080413
Ni 1.6109933020055718 5.357573786519514 6.3598666420402745 -0.09294872171459476 -1.1367353583367714 -0.268264532973196
Ni 7.096833918274939 3.2936472835439505 8.456917776134604 -1.1858747961758997 0.9297558974263019 -0.19292426836898388
Ni 6.004619883155478 5.3764736140858 11.42002340872855 1.1350517999867613 -1.1553992532948618 -0.7848891466861773
Ni 0.2744600292807242 0.07875114817582274 10.995480082075163 -0.38785888229977716 -1.5060311329223806 1.5969245147698434
Ni 5.767490046623824 2.6643343584516628 -0.019411289566597077 0.45247301873573686 -0.06991832225769248 -0.3260629320389029
Ni 0.9819230413659864 7.525640672697352 5.361281886021779 -1.3861961283399031 0.057196503815649884 -0.24950319320529288
Ni 4.885423427545088 8.830148770939143 12.363611999841202 0.6441413032104326 -2.6324620240093504 -0.2295321494000047
Ni 1.5527631666050528 7.557028386329657 12.253880067653762 -1.8020622944858835 -0.667192014382309 1.742788853536547
Ni 6.374515175060168 2.8254448885500367 11.071840052067046 0.35748566932455855 0.4217102836315834 -0.28084519785168405
Ni 6.339618160111853 5.304980933020248 6.412525761601625 -0.44560714485383907 -0.1070252544123189 0.5736642802357926
Ni 4.013604714968959 4.6527548836438966 5.694098049553464 -1.1212789145723852 -0.518801566759642 0.9946209735308033
Ni 5.279025169829216 2.844690046299014 6.807604957072789 -1.0270652101024376 0.6157025882537654 0.3005143941458373
P 6.91469558002504 4.930400350528755 4.12819366950973 -0.34073030424309064 -0.7491819230925549 -0.9790177197759073
Ni 5.786772537365525 5.765268733556774 0.021707268619093893 0.3163009675561327 -1.1284258100298115 1.042089708535728
P 6.93429540120489 1.721993622620794 2.6473917130289086 -1.432343573430243 0.20247643083379321 -0.06049831449537323
Ni 8.091226179210583 1.7891930095231399 0.7036503802033721 0.07105912073035504 1.167198302812319 -0.2859539798331591
P 4.515042806734991 6.4762289137354125 7.269126613018827 0.5629929165648755 -0.43443390184583885 -0.2716771581991708
P 2.1777454645414123 5.2382668750233075 12.176536373303618 0.34325924131253144 0.6924980972472654 -0.06954679785088667
P 8.67923948110247 7.258672441731422 11.528307754123137 0.48553432006608 0.3314177685929131 0.7413498286426458
Ni 3.045252216457974 1.0680595888273405 7.109317137716868 -2.9237453864752228 1.666377724465659 -0.6806530249832212
Ni 4.4504193963305685 3.849544878445426 3.439161955932072 -0.33340985932227735 -0.9102376248877163 1.1144783467107837
Ni 5.375092293355029 -0.014656932943256106 9.929387008639535 0.7206804732187524 1.78238049978624 1.5617127427554005
Ni 0.660718371896136 0.5645084496731565 1.512684332266712 0.48493808124297777 0.9505023859450339 1.3531577098276955
Ni 7.0645968790581755 9.200669390471951 3.847149966962212 -1.5746309934789655 -0.2744809461965531 3.0801350502532823
Ni 4.448132750526253 8.596696234190755 3.7254378774097923 0.7617445902489139 0.05440942798881597 0.2626602994125412
Ni 0.5694914708769291 3.198784149033472 8.0090973285181 0.30977782172563423 -0.5663831731933472 -0.47413122043546085
Ni 4.480444455728464 1.5382966319246867 11.777605346308205 0.2700627625241994 2.0968914653214856 -1.3986585224729717
Ni 1.3512396718834623 0.9824923695050202 13.051045861330294 0.2702849058373345 0.7369249601020729 -1.2069827817991086
Ni 8.836924709118462 2.137351166414558 3.703581276819804 0.1563330995085114 -0.31767419375457545 -0.295251345974685
Ni 1.8739109032610002 7.493450299721492 7.456394504468939 0.5473222999071541 0.7319771291784941 1.9438203243936976
Ni 9.168012355087047 5.237632214147008 2.061248794072469 0.45781731376678575 -0.9940843843010427 1.0983230771071602
Ni 8.984586028588186 6.329724917040118 13.744435268483606 -0.4393249113895531 1.6448735318452963 -1.00518743619274
Ni 2.0224215483151844 6.277832057154417 0.6707721468365814 1.3210605721828346 -0.3066868415051363 0.6249950692992849
Ni 7.858958964981169 4.199625684462105 0.32724421436769885 -0.01179339309050227 0.025647525364775183 -1.0400680501200088
Ni 2.941634495153829 3.373511888227753 7.862824796377691 0.10360902964191834 0.7746908659969368 -0.6989209700544737
Ni 6.778047493408756 2.870235146570087 4.782364767806978 -0.12997440700932453 0.8609246375852012 -0.949246659161062
Ni 8.636035875273171 3.856171484653852 9.780354635012039 0.4029576856144286 1.1458087813929494 1.9958879916232144
Ni 1.9401489656007151 2.045680002781941 3.253684181483053 0.7097949366545002 0.38802677533620916 0.5702269724194696
Ni 5.543370758056319 7.86925353772468 5.966795028252819 0.7935884742323881 -0.5318440017658969 -0.29873339098601454
Ni 7.864166917466101 1.2736617130039765 9.721821169045642 -0.5478815148447338 -0.13026391322528535 -0.41161716106163954
Ni 4.848958426902384 7.465963883828797 1.2884147784034954 -0.8118379073608794 -0.8919897344211218 0.8084813321838205
Ni 6.383867089737412 3.869844693238843 2.1065318475964694 0.23666927466541823 0.1554920916644548 0.4719941194878
Ni 0.41268730148921356 0.7662503424021797 8.097737986466383 0.453732859284767 -0.12977206119053136 -0.43722920520278896
Ni 7.126093651322002 0.5559349278941988 12.06114942604338 -0.22618714418717173 0.731723104186159 -0.1968112621282159
P 5.939399144867478 1.473057227140326 8.407550493206651 0.8514979449546626 0.10779889935354983 0.6750971281619986
Ni 5.599874242543375 5.013074262915002 8.841710798785618 0.28640906509270675 0.8503525184963096 -0.035424659356197055
P 3.5323637722663537 2.172966841472801 5.187839335102006 0.21774981205309596 0.9152664455608754 -0.09600422071146691
Ni 7.541637860079383 1.9020413132781764 6.825499593809992 1.6276849358811516 -1.3109473950082324 -0.3486678139226124
P 0.30728319648324787 0.33878570906817673 5.9155694956120515 1.2837304682738084 0.713031698424243 -0.4965260431908932
P 0.5122917260755795 2.9957673346029408 1.8974493551731828 0.13923294949311502 0.141306287082376 -0.007313760052593856
P 2.0075443507148596 3.825063768466974 9.853068104939648 0.05371908679001071 0.6144638307506579 -1.553563631285705
Ni 5.578687769172775 0.18991480063421032 0.7004285429313319 1.9107119718755032 0.35937285904494237 0.5730626420960518
