# total energy = -340856.20266178146 ev
CRYSTAL
PRIMVEC
9.44173572436778 0.00000000000000 0.00000000000000

0.00000000000000 9.44173572436778 0.00000000000000

0.00000000000000 0.00000000000000 13.81893461788799

PRIMCOORD
 96 1
Ni 7.211069111682513 5.374953622708885 0.24625746631997236 0.5145499905721396 2.17784676211963 1.0289662837798923
Ni 1.4781131904185292 3.999122756847873 0.1051733840774577 1.4367864396929448 1.0439869255584409 -0.9027983950008517
Ni 4.3097275413921965 4.8950396307459885 6.213781040737247 -0.10781586863441432 0.5031348067566626 -0.5044558395609312
Ni 6.027972399905559 1.5034359259916172 0.7267115255739877 3.7460872786912196 -0.5429599091734003 -0.23063592398714475
Ni 9.330701045021797 0.25619772583203315 5.195117823981424 -0.08450110516787382 0.018702461505509724 1.2133683736104781
Ni 3.903355230032872 4.0815396691586425 0.8699077241280981 0.41100395295767284 -0.28533742929508277 0.5688146654529752
Ni 7.868043976203992 0.4084400515123835 13.07081904796684 -0.16139020231644463 0.7006055568457483 -1.2766825602880916
Ni 5.583417708733571 2.8140149553330125 7.1301836489280275 -0.34185670453804995 0.9186657010504113 0.14802689363566118
Ni 2.965668116695779 1.6976996412847882 10.723963243625176 -1.190704613464375 -0.9394936935393562 0.03936333228897092
Ni 6.857494987245154 1.580480490598775 3.20631058270057 2.0887595802429706 -0.2855444030995663 -1.5205344687448779
Ni 5.466944455180396 8.345078238729979 6.170181937062434 -2.9290997088086006 1.4092666370061213 1.1697447233832565
Ni 5.492918670527737 9.193201045711252 3.2880080347389056 -2.804247967737822 1.1265005679826405 -0.5189938852761061
Ni 0.5218456850850595 1.2596691895911754 11.644511718031522 1.68123484408315 0.3652079776694807 0.31602971617261705
Ni 4.304883930896673 4.117965886101586 3.7017194073812125 0.12433443511472782 -0.8538157944545617 -0.32406981286827413
Ni 4.851399927606982 0.9182154214756548 12.818043007210004 -1.025734407106156 0.12634195246305982 -2.9045688135467715
Ni 9.33561074766833 6.064908470584874 7.985036525229397 0.2068701890261147 3.5708704549043273 -0.04705812983006734
Ni 0.6146806087423414 4.184369614395966 9.197150523820955 -0.5546918528983479 0.4556493595811894 0.9260555657565793
Ni 6.170438752277791 3.588964309409202 13.490140700056399 -0.08463737363542198 -2.2380013201223394 -1.8582969486088965
Ni 7.40632420924085 8.760061413192457 1.9387830363541818 -1.0921930529500223 -0.050820167975660864 -1.1757173960269234
Ni 4.551332120280991 3.2073199042638674 11.839248464291217 -0.09472175445461752 -0.24254321694769196 -0.6182927175784448
Ni 7.528481387780974 7.916574498517815 6.5930555701820435 2.9628973740843363 -0.3993925939709896 -0.9663210981448455
Ni 4.727288309744104 2.0167264542150902 2.247220942518929 -1.6971420022317092 1.4251131171200746 2.1009579220813754
Ni 4.028373254538188 7.026105506210182 10.812694788878261 0.25808604977829747 -2.944657968258174 0.5119400637531183
Ni 7.010479433364 5.349489261097917 11.521855071664472 -0.13208528270474026 -0.16973626028829478 0.30475002949373964
P 3.9514986411764874 0.647738958504479 4.700192416176748 0.08165592240959485 0.08874162561178264 -0.51397483479496
P 5.77091169941604 0.769053934206005 7.612284346915804 -0.9988905474404346 -2.4546465862573466 -2.451490300016552
P 0.27848022245861315 8.405911342867714 12.736235086862123 -1.2779827671567539 0.4074748567584918 -0.15639120643995646
P 2.5084520577372458 1.7138072426597653 12.931165388706921 0.11808099800584826 0.893687690948835 -0.29919233290030406
P 3.13956600774169 3.2957512023166418 7.106746428005926 -0.12738530612590962 -0.05548183511738832 0.36785441415339226
P 4.296112558283921 6.170023315900007 4.197432255956506 -0.7864683182478391 0.3053310988081903 1.3140597153849694
P 7.420647322538529 9.211631314107473 4.417539890642167 -0.2537313723540275 -1.3520883880229166 -1.3047464084038434
P 5.897733095470372 7.496766597031533 1.0444891968501808 0.38076855111189906 0.6284040949808338 -0.39144248588597746
Ni 2.447382910203043 2.3087876695328866 1.2574418841021031 0.5609139225486598 -1.3573326671409915 0.39708991397974197
Ni 1.6246583726817276 1.646194972175469 4.22273516388429 -0.1713920507241629 1.7595069376221764 0.418608247667492
Ni 6.772632665346975 3.4292006969437954 9.535949275813003 -0.6385188148173326 2.0651247144328497 -1.2313259865301633
Ni 8.781097600685685 3.129397258221848 13.61405498563983 -1.3531417689880956 -0.9937038610331725 0.24776795568174106
Ni 8.608521552659994 1.3017132393700568 7.932399791990616 0.2976974935223325 -0.4233843288998967 1.2079921969002292
Ni 7.3797173975909764 3.412299989756686 5.38709097415527 0.4536986636127219 -0.2263452670315908 -0.2137751436760641
Ni 5.466444043179885 5.395876509371809 8.415911085315685 -1.5101919491682894 -1.3495849048747726 -1.2665673262309607
Ni 2.2573396508387193 4.1499261619833545 10.88861578691823 0.5640761223267254 -0.6961248953665754 0.5577926033108587
Ni 3.024556223246617 0.5618522082656293 2.6655068361847856 -0.8447153748151903 -1.545409120499371 0.3741613302080266
Ni 1.5402020454254741 8.508524128180287 11.02919568046589 -0.5336810549746357 0.27515483233512616 -0.9647493827823513
Ni -0.1712627025677425 0.2956575725063831 2.777149697672639 0.9869120349223196 0.9960731325962974 0.5453271238539963
Ni 2.596675637601129 8.950708943651737 13.324078505599639 0.15884069642171356 -0.35987448127170923 -0.3873899130831586
Ni 6.644612168838585 7.846195799426913 10.989908617557754 -1.665702038554873 -0.012827233671655329 -1.033770132926439
Ni 2.131698471766728 5.743964985275252 8.284741769898412 2.5111761459129593 -0.05277266371634137 -2.662889487261272
Ni 8.469954637197414 3.0892793225581454 2.60481346973776 0.9322660654426654 -0.3370551693843486 -0.08619237682736769
Ni 5.08996426754927 5.897430959922892 2.1767034499109044 1.469128089248444 -1.0224140844836713 -0.3236082998508233
Ni 1.9541938376227852 8.821612089255453 4.620333270110105 0.3483474544687162 -0.433518332010105 -1.689526908888613
Ni 0.9397718486146994 4.068765000541794 6.769440414453142 1.7504227159327208 -0.03558252509030001 0.2274223021458535
Ni 5.855849555201088 1.2884664839602722 9.481585649085662 -0.609733258044208 -0.8373157399170096 1.6704673211540004
Ni 2.8088408840824335 9.206882120970539 9.001999285357064 -0.9849456552245683 -0.1413361118790469 0.008956437862339413
Ni 1.1434508629061866 6.919536633572806 0.19944911662678036 0.04966419999434672 -0.49645122408889986 1.3656321881456222
Ni 4.175739867821096 3.1104099274099615 9.20030123107701 -0.5711417709242551 0.6103212693371941 -0.8299492722496092
Ni 2.1523758732973253 5.442764169646215 2.4575865941455617 -0.3184972038765031 -0.5515504790558888 -0.8010091921764915
Ni 3.4474326888869844 7.342913511213684 2.556890051039653 -1.0004681763401995 2.5942104367273195 0.1826308568627758
P 3.646077369618602 9.017263739719857 11.289751711570307 0.5980028569811572 0.9442895722661028 -0.4968836836406281
P 9.35376720572465 2.486575555752591 5.492598595682126 -0.35577999948736144 0.369425358184938 -0.029861563446122764
P 0.16682414254055805 4.65389769691427 12.320312459681704 0.11775806744879075 0.39051843140981135 -0.9735710948390395
P 1.169292893951504 8.161219316353117 2.261828252065955 1.5847891649588899 -0.5525688930180741 -0.36291043988455557
P 2.9862038921884952 5.752641940529416 13.743662637946068 -1.092754324770131 0.5795631622187308 0.7314960757770176
P 7.027805018664751 5.298872115159316 6.426164391316888 -1.7581823052734817 2.1783704958335837 -0.5337769571225517
P 8.308973040806233 1.287050223581464 1.0621320244757857 -1.2429514865842335 1.148937299719602 2.1095577479352445
P 4.8150492445509085 4.857036643914639 10.335015655793121 -0.7073279631712464 0.3050513627842424 1.925298611440426
Ni 9.226445397669806 4.90034588629859 1.3837033852200127 0.49948435448826883 1.0192649973317285 0.6653526471807252
Ni 7.556060698224296 5.282868372878785 3.0691297140620506 -2.286232644324901 -1.8058443872361352 -0.009904146487589393
Ni 2.3909402132396123 6.731325070965074 5.50044751070148 2.0065760674646795 -1.6069322767148326 0.8325782252320241
Ni 8.363470740182766 2.967981341981165 11.161443242118228 2.5753241413457775 1.3279030490259647 0.23922263721489123
Ni 4.82780502969604 7.673912445212843 13.008579125186154 0.031260243565862295 0.9586975201613166 -0.8212160061416696
Ni 0.7468073161756881 0.8005978295364038 0.28464945266870106 0.4145518182099312 -0.21515968272841654 0.07586811208322418
Ni 2.048403478021097 4.382447790976061 4.724790970609472 0.41845989501508574 -0.4162996541389734 -0.5847935573797348
Ni 6.179115707531955 7.36514879916097 4.214457594056951 1.3847110591539442 -2.700917902788903 -0.33224720647274397
Ni 7.467431123718488 7.614674994435232 12.991387612534595 0.6017175868285831 -1.3519693459465492 1.5873414990670986
Ni 4.420252501354376 9.249247189768615 0.9243374430064493 0.5059277961207674 -0.7249320494062548 1.6645887508860364
Ni 4.780756859912037 5.383762762265071 12.796389330191618 0.7148749222805688 0.0456350242302956 -1.6225517284196445
Ni 7.184443416560923 1.0083301810320395 6.086632960622204 0.3343765941109209 0.8083306655385691 0.10421272466418827
Ni 3.2153170545362033 0.19159925743384026 6.706951229845787 1.67968009800152 -0.05990593232701296 -0.501678276815794
Ni 1.7767080869505603 6.271805228457013 10.284783732677559 -0.8555854847604748 0.8341751374054989 1.5320902919032775
Ni 8.8072606507502 7.117898062228661 10.682119358646501 1.0227107897884837 0.2975650817095263 -0.13363565791099566
Ni 8.747381161934195 7.002538933506816 2.737848472160715 1.9306462489055845 1.3652316102730937 0.5738398865817085
Ni 1.264399499256394 8.394080847836738 6.803117197914026 -1.6893585016315484 -0.5362279897662056 1.738697714186309
Ni 9.009823651863185 5.0171118336633835 5.014891137389412 -0.3541200952864353 -0.7661242073738482 -0.21327223589771657
Ni 4.941917849284534 8.437172930295937 9.410044672310553 1.1424869161085678 0.5790936787814801 -2.084504147400726
Ni 1.3280367989441693 1.6990120425691504 6.913377789272162 1.0754641702311156 -0.3945342374374237 0.7314775638342564
Ni 5.624054939869504 2.285013378640629 4.7717475555556454 -3.8221225124799276 -0.2843490972398845 0.47067077269068613
Ni 6.940657796688762 6.913824383378279 8.514951117779319 1.5892955374696758 1.3347468114206753 1.4369892997323703
Ni 8.307906124654197 4.202913183622493 7.561527463286494 -1.729448941894531 -2.9086555820216358 0.9331605522324767
Ni 8.14018312885989 0.3438991777029288 10.634112852672835 -1.0352832271368557 -0.0552280672353694 -1.096867575607556
P 3.6739776990811204 7.306015207477805 7.560823109791435 -0.1930973036117384 0.7824717954939364 -0.14713883460375304
P 8.108052901732664 5.301950121049259 9.64574061289896 -0.19323871428560913 -0.5988343517435172 -0.4762886330980959
P 6.5460970968886985 2.130886482482878 11.230123372928146 -1.3446255039869681 -1.063800103629626 3.044625544492763
P 6.023903011750452 3.923947655940742 1.7111984910420008 0.3499651925777973 -0.35618032024957363 1.8693825169990967
P 9.159626232997642 8.6543800637258 8.964440060111075 0.29275737590823775 -0.6425942704382869 -0.5710522965342424
P 0.8587579782525353 2.16237467157171 9.313174350747254 0.3678531286018117 -1.9510358683055302 0.8884107588206119
P 0.37137179653104746 6.855691615696138 4.972011493987034 -0.03754042014761922 2.3459807109178117 -0.04655445072077144
P 1.3576366408612575 3.383899248293655 2.7846539893331497 -0.6878737111013766 0.5980226544754991 0.1264836202472467
