# total energy = -340888.33540387824 ev
CRYSTAL
PRIMVEC
9.12333888608790 0.00000000000000 0.00000000000000

0.00000000000000 9.12333888608790 0.00000000000000

0.00000000000000 0.00000000000000 13.35292866101603

PRIMCOORD
 96 1
Ni 6.066938277379909 2.043481946553655 11.236222114249065 3.2870337785244876 1.0894926232997235 0.4722067497192384
Ni 4.685089993257578 0.4934613312951138 5.864445769862594 0.2937858171727521 -0.2423943500746535 -0.8386203176610462
Ni 2.713472587443454 1.8456240952120007 4.799202891907052 0.7953211406527787 -1.3079338049928895 -0.8258630179953776
Ni 4.18043250042945 4.2477353717047475 4.965914576480814 -0.32543069777154277 0.581214838889541 -0.18217217205880237
Ni 3.9172424190210466 2.9593192015488423 2.7453887640169086 -0.6299020196825991 0.06467250047772087 -0.4229742379456715
Ni 5.611446458037287 4.581175162862343 2.790188007491251 -0.3576782449513388 0.46357041420047906 -0.40280650474854496
Ni 4.961508916112258 4.759773645726005 11.11680764334826 -0.46161946112169533 0.043286578602777064 1.0970238986797622
Ni 5.722304149357084 7.849830294119773 12.508476289493192 -1.5400599403723156 0.3933813547799032 -1.9873907527854802
Ni 1.8426681333991775 6.914651560596237 0.04707825353867317 -0.4334471124525374 -1.9942990498695394 0.4952176087921149
Ni 2.7979547059210543 1.7289274669779848 0.062004948359537314 -0.24750287494581247 -0.4791142754723491 0.7967884692269245
Ni 8.401545969140932 8.831611042889918 7.08598512867116 -0.9435141275526588 1.0772896534756284 0.3602341786039731
Ni 8.945844369613248 2.437582818246625 1.2515487575459718 -0.45025492803849554 0.1122602775590131 -0.17548884650135585
Ni 7.282769163020935 0.765286652999311 4.836323933339197 -0.4907749996397289 -0.8261311840550999 0.4039817560035688
Ni 1.0053098398666591 7.416553805067968 2.4878241333917974 -0.23578918605331006 0.7049815744262569 -0.2463836737397047
Ni 7.888029714213263 3.8392926112162282 3.460638464663045 0.7474495137824805 0.0976255583649738 0.5953348232306909
Ni 7.815690759849452 4.082584690421646 12.554423249004735 0.3746387840650774 -0.6463218558015191 -0.2826202874742359
Ni 8.309728686164844 7.548677999430021 9.274223444667221 -1.0184430156510653 -0.6610673895418099 -0.9245897798443301
Ni 7.1097632869204235 0.6492423434986804 0.15094564257147933 -0.37957478791411403 0.3848195812528211 -0.02820603012057078
Ni 2.0173070871678846 6.620971280488898 9.070778460565776 1.347658120165705 0.74062632021306 1.2189607800965911
Ni 0.5427337478460832 4.904880351383266 1.3658176652911227 -0.3682251672292497 -0.14863187420951177 -0.7661509468467257
Ni 6.374467785980659 2.275926375773126 7.026765535686484 1.0077276861160902 -0.9532457530181261 -0.20576075801201985
Ni 3.882509867720374 4.05947527291584 0.28490910206151093 -0.4088174868293153 1.0535288036106047 -0.1719219550857039
Ni 6.248574832106749 6.099508597354535 4.649396754367738 0.8588451293483531 -1.0242300546464878 0.963047055379264
Ni 5.177412731854419 2.9594651749716983 9.23634060443455 0.010908419382387664 -0.5904178455450476 -1.1208654811840502
P 0.33894390153313986 5.7653754324383755 12.250564059654906 -0.7712826116463362 -1.1557936605198031 1.1129505972123477
P 3.957147903494159 6.147351386695413 12.732511737222294 1.7415048446178008 0.5103650059565146 1.0416248530841674
P 2.3853152095254404 8.52090661234206 1.2431242663794257 1.1953853067694962 1.8914757493537102 0.6716893880320304
P 6.724658027410921 8.026941672738095 5.8321318157118585 -0.7364747599385316 -0.08549226543654954 -0.527021383566273
P 4.791860428737422 1.131567727297708 12.627397187757968 -0.7795829039819154 -0.7485530312593044 -0.7985159934409926
P 3.952996784281707 6.10227296904986 8.230437747537541 3.340806344260253 1.2407220830330825 0.573904935491689
P 4.775046115092258 1.149659308392857 3.4376850562529158 0.21795112943062467 -0.5705509314177916 1.1406701746148034
P 0.4891414303124849 5.656533999021769 3.510792195754504 0.8270624376201176 -1.3159186229705788 0.6915830416321638
Ni 0.5071572876945278 9.20909831439415 4.898788697980729 0.3161958094368361 0.4366159970988222 -1.1381893171744784
Ni 2.4137526569654706 6.688119055002412 4.637752636893336 -0.8404889954386686 -0.23799442123474499 -0.1180894826462805
Ni 6.126221733737085 5.853561626520934 9.08092635045591 -1.3157296468882242 0.40210125115140427 0.3105941469793425
Ni 8.740103953437398 2.6179147355066954 10.104294927397577 -0.9033033596617283 0.5998095711725928 1.6296695704113482
Ni 2.5764491600768147 5.4874785286772845 6.90562766606209 -1.8397675223461412 -1.1907753188013106 -1.536495620059825
Ni 0.37075424737502427 0.4713080397090113 9.23317663049416 0.326028993477174 -0.39933243015701547 -0.7608264493100186
Ni 1.546825621965792 0.9581239309286301 11.289220502418418 -0.9901624235388173 1.8306845862082664 -0.34188627222440476
Ni 4.198122654611747 6.975723191383392 1.6729749416635922 0.4592545604339445 1.1449919419186088 -0.9363245517827553
Ni 5.632986661247397 8.152022649447371 7.818340177474278 0.1232982805407296 0.14019479918575212 0.9710755821106954
Ni 6.072804584310913 2.642976547543193 4.3663679724593845 -1.5181402574810887 1.0962281422513442 2.105388189938587
Ni 0.9771460925944829 7.380096942709816 6.460414200356279 -0.20507658746080165 -0.2875148965623758 0.9152129666151206
Ni 5.477196525704902 4.422803122403093 7.112117108363967 -0.8193421861577244 1.2456372609465127 0.10071885257831686
Ni 0.6305130410124314 7.48811727562286 11.037503932046457 2.5428143416435303 -0.32980311580762556 0.509456120989
Ni 4.7566443404735415 0.43131588351607814 10.305282996325586 -1.2419158462308677 -1.007075397244072 -0.6293055237491807
Ni 8.383189811216859 7.230392074232608 4.379199948662272 -0.008793687032230017 1.149249688753698 1.053770744418082
Ni 7.313505691870938 6.431132844065366 7.163645726631946 1.0299363610026457 -0.3145204786169422 -1.2255420328585345
Ni 2.6871426312958997 5.435886047036805 2.49954853624877 -0.4311326053867478 -1.5209448168094193 0.06634474597382123
Ni 2.49865444903378 5.5847789383493796 11.433485123892583 -1.9825820185429277 -1.393054546022633 -0.6569777928534686
Ni 1.1850213700795937 3.4217538818160276 3.4447483452513343 0.2510777367812644 0.470492338131293 0.4218758626751702
Ni 1.6291546324562745 1.1855870170931586 2.388331385375191 -0.10671646492264847 0.05389083648118461 -0.17183145225442667
Ni 1.0744373789276502 3.610369790823145 8.0744624082148 -0.7564828276293424 0.3848044117441695 0.3694641818426734
Ni 3.1795566032820255 3.086863479768805 7.520329048377596 2.342176249570057 -0.9519486314732573 -2.134777955954614
Ni 4.390314912478823 6.9491104117290545 6.060306522312807 0.2974272705800813 0.22518338551300573 0.1010114441180712
Ni 0.6602688109276251 0.05019022444717311 -0.046775358686248075 -0.44666052581901783 -0.29818291779918327 1.0069463278653754
P 0.32249452144511465 6.004744475904553 8.167145496055198 -2.0653687121228557 -0.6515067424365683 -3.432205976320173
P 8.498171251732321 2.079227188475387 8.001128097573892 0.27387827961554767 -1.0891015585088921 -1.5024081914578127
P 1.7148684016892177 3.1076555691867807 10.312720342220073 0.7353573585046368 0.690761574172133 0.6156563083968623
P 4.338722430838345 6.260389556019114 3.7602379670671726 -0.18439566207268243 -0.08608361916364529 -0.188205779847392
P 6.812105231040273 4.02735199654871 10.304228338345455 1.122678366023073 0.2963782604902767 -0.1362021330865912
P 6.41314161969843 8.085796332165632 10.205844076008658 -0.6825157892235729 -1.4117066139061816 0.21966348413604106
P 2.4708100186241 8.760193545757883 5.607869196843436 1.0204147946654556 0.11832473858553814 -0.16386257511633714
P 7.228065622805849 4.098222093345037 1.3654171507121629 0.45225216097418247 0.19126179306489643 -0.09967035670914448
Ni 5.842075342809994 2.7822899329808775 0.22640934051829048 -0.006192501963957077 0.7079614829901871 -0.1026204404764039
Ni 1.4358584505788532 1.2286491768355208 6.8526165052182355 -0.4968183776203315 0.38706312587135916 0.7427132846490757
Ni 6.9908770573435755 0.8653623823734464 9.225605171517424 -0.35899259288738816 0.13808392349033635 -0.6854316773187873
Ni 2.5764400367378864 1.50489475625056 9.102784958194622 1.1530168691056142 -0.3182904871823357 0.15718773419932283
Ni 6.588245863752489 1.9184009698443782 2.317520590281898 0.6816626971946583 -0.5796881178323693 -0.5392552066283035
Ni 4.071682300402128 7.127252727646293 10.583010205982609 1.0525502417474195 0.2778161812173731 -0.840457885090417
Ni 8.036740138747268 7.29153669173119 0.008391647146403546 1.478735273320905 -0.22144654417839282 -0.09948472306089964
Ni 7.8826104508897545 4.258929708569976 8.141828230528704 -0.8222056237484484 -0.4041517059225298 -0.07942266220370192
Ni 2.96540446861413 8.672463518621747 12.366508012427325 2.140375504647049 -0.5801969391479879 -0.1992252708863472
Ni 0.16086362432061532 5.185240556655043 10.0698306022614 -0.22167177281532144 -1.4016237757488827 1.5052816563508657
Ni 9.11437980963881 2.885447526245049 5.680736392531205 -0.5599145347498681 -1.4633464495696604 0.029675158466929544
Ni 3.7574106443332407 2.6118750851360506 11.312881881929398 -1.4817380647029708 0.41788396790695775 -0.16803367577489126
Ni 1.2267880156941136 3.518160204273134 12.668337258865568 -0.14614895988665796 0.1005015943611882 -1.0106615719334335
Ni 2.984964907276762 8.564114745507277 7.708913025698465 0.9041770205159331 -0.3376300680512121 0.38696748083375937
Ni 5.995347436808232 8.19349734821618 3.3815491518260608 -0.3780655503584392 0.2984533978517505 -0.41253453066958634
Ni 3.1427074373499493 8.778203016802674 3.458582064068568 0.8821745481029131 -0.46048560462756816 0.01984685952259808
Ni 3.289876017605043 4.408935647231823 9.398218744044012 -0.5351116167735752 0.28885624108161867 0.5013466045079882
Ni 7.117472508314977 6.048837572945832 11.27260963923136 0.7055474742320559 0.9021908433238398 0.41874220214219493
Ni 8.349752774044028 9.070095122480033 2.3920172143022915 -0.5877621530897554 -0.9213417052206777 -0.7341311994070195
Ni 4.753460295187506 0.4571367573514242 1.3015565152145754 -0.5728297001496392 -0.7211188463077516 0.6512791998067945
Ni 6.066062436842777 5.815991716813508 13.856067348273024 -0.5232536889937247 -0.893939401948325 -0.672364559722184
Ni 8.162934162805819 8.929668689693075 11.30679296552854 -1.634565979271701 1.8130599311479678 0.501508326896833
Ni 9.228439792922499 5.23583859435232 5.751760673755425 0.14526218640633046 -0.05575334361122011 -0.039031145760532786
Ni 7.775128394973489 6.093249986849607 2.410270278496475 -1.1274446770634647 0.7102042562777768 -0.8851899378904691
P 8.79560122413926 1.6160991344496387 3.5531208390470175 0.45349528935266414 1.8263959861352417 -0.13245732133217833
P 2.1544035012459513 3.2791834643808806 1.440941062695902 -0.5976521585099578 0.4929601802165058 -0.11682527122187622
P 4.668494639746697 1.0397139509659066 8.001568754844136 -0.07282932525690039 1.310316960513085 0.4310904392949027
P 8.640230762187475 1.7059366528782491 12.461179988154129 0.5601958134357127 1.0932716307261816 -0.7362582730523514
P 6.340510718488908 8.007025423857252 1.1257078067039539 0.7211512422075839 -1.1667735565700745 3.0030718894206925
P 2.156958036145922 3.6538789941730023 5.6263229744940455 -1.091314506999811 0.9825123631927273 1.058523685722035
P 7.117052834724268 4.110146297324543 5.719072662708622 0.06831369677473396 0.7797952771030376 0.2621414507945937
P 2.446104016805813 8.596219775196552 9.941816472086622 -0.1540651294099411 -0.007822067147580077 0.8320964004995992
