# total energy = -340858.71730440465 ev
CRYSTAL
PRIMVEC
9.36782629029186 0.00000000000000 0.00000000000000
0.00000000000000 9.36782629029186 0.00000000000000
0.00000000000000 0.00000000000000 13.71076069023019
PRIMCOORD
 96 1
Ni 1.161010908816384 6.766512019032384 6.858931245262204 0.5494599150754472 0.38447531053952494 1.3177495055317305
Ni 1.5806145802895917 3.454779362608216 1.8519396146420262 -0.4990619222388696 -0.7355566189996365 0.5672074688668555
Ni 2.5987099324888283 5.771433415824255 5.369119941181688 -0.4185156879536857 -0.25624668257671357 -0.14635876190461888
Ni 7.042338293877382 3.8568464634215327 11.833538300684067 -1.2166683845179886 -0.16474832015540014 4.120798567865445
Ni 1.5475086824733228 8.682682134064123 9.424694532980284 -0.7060825207999194 -0.11810953725093853 -1.698298998654288
Ni 5.19274531970026 4.700690880340515 8.547932511551798 1.0926890187498344 2.1290081433503723 -0.17006330461041036
Ni 8.832202008157351 4.922502269274758 2.3309933847914097 0.1550956275569845 1.742965488323727 -0.6267035673499595
Ni 7.057317447982706 0.4159380410783277 6.9479686862312215 -0.19943018780830168 -0.9026068478153358 -0.9219603126412832
Ni 3.1726110694209395 9.135888198142583 13.181799877208446 -1.1278686519747607 -1.482510424092621 -0.527799142272562
Ni 1.0041841302815346 3.982721944167771 4.1776139477129846 -0.47442818285058935 0.3488665601969798 0.6436970165841623
Ni 8.338770498345147 1.404387033679617 12.208596084976763 -0.6025897050208913 -0.9411700528005147 -1.2596155775034759
Ni 3.4049799984907048 7.247465584336589 9.624090587365925 0.23431080173557067 -1.8741164321396562 -0.6498357824920485
Ni 2.7839024887791 7.829544833547591 1.485492736198993 0.1824735053493051 -0.09798474147660545 -0.2160593117245505
Ni 5.915913399418005 2.1128663619044614 2.3855628460136313 -2.4850205705635138 -0.9412641551762176 0.24486543732296534
Ni 1.337753685867755 4.167324327406988 7.321957601553677 1.8015460169710973 -0.6158159739031781 -4.432098739772877
Ni 7.2970026493203 1.3067461811219006 0.5299210664545166 -0.5646690187157178 0.7526770807300069 -0.2244614197453167
Ni 8.412823164513117 5.692827986119583 6.0303217241040015 1.1916201833001092 0.8644015403902081 2.214727180085747
Ni 0.32649028932143415 3.239422405930739 11.48773904798434 -1.8976654231041898 -1.272148162752848 -0.21907778683590012
Ni 6.425223374651425 4.393304399003438 1.3338894575572822 -1.800741261681615 -1.8603216923484092 1.8002234415049319
Ni 0.30798883256220067 6.747354814438647 0.9293417563642972 -0.8375774782188284 -1.9137505015915106 -0.6939592551738242
Ni 0.17198766846859284 7.631986746663808 11.355320140632367 -1.766745107241828 -0.48820749602286895 -2.3444089955553173
Ni 6.017554313766199 3.9176904946373408 3.8363121883753353 -0.7529928121982128 1.636279619528698 0.13033513278285297
Ni 2.9915965636190824 7.498326602339381 3.9685250035507487 0.5892621346740496 0.8807532422753541 -0.2444656307813854
Ni 1.5482581085698994 0.27735323051677224 11.389090217326727 -0.7730430459808687 0.6718984187190429 0.6178196345967683
P 3.44178618765882 2.694486587631311 2.910931148931445 0.469546686388572 -0.008478469784656367 -0.32978948896087074
P 1.7634745478542686 9.077610951307548 3.198336993751171 0.5818660993202946 -2.11717155572676 -1.2487642366112686
P 9.293942161910577 1.914193503702019 1.4862187427300515 0.7917791889377912 -0.8253842785867463 -0.46624410437790026
P 5.444280821189971 2.423681467633376 12.944836029384046 0.1398854954754494 0.14831768540320261 -0.05528797393902736
P 7.000988708998771 7.203652261165484 1.593218053668768 -0.8877080763266324 -1.330005182970632 2.2801653550848986
P 9.046818906564459 5.083497730471815 12.253813645296331 0.5700053433269667 1.2707140014094824 0.9441425051652772
P 0.6613423003154211 6.881014958763073 4.741043728510679 1.2885168339188584 -1.0080097361328832 -0.1274351855272386
P 1.1273054701228538 7.707585104155966 13.067149862606305 2.7725130985283863 1.5498417023494275 1.205740424751575
Ni 8.551345210639084 8.068358827047916 5.635122176683188 -0.7105539263077119 0.7786387949010913 -0.8661642887175857
Ni 7.9230638425741375 5.528619360533454 10.610757819422602 0.6485474026979282 0.7341098592507809 -2.938031978301224
Ni 8.578212136201353 2.9252067792886076 5.8578815896296 0.5863241350916483 2.1146379906716293 -0.9377006061946754
Ni 1.232084606250462 1.7077921888786314 13.0817524300981 0.3684439681082751 0.9338766044628948 1.8139873280582437
Ni 7.427927388392222 5.5576596217757945 -0.07034394377253671 1.5470050042315808 2.3167992042578485 -0.20596156116891623
Ni 3.853052493807614 1.3676089479901232 9.364353554031805 -0.7916010114887141 -0.985855054412715 -1.2993488915373557
Ni 1.7462845867640442 1.4664769857809836 7.994141287138699 0.8134075658408444 0.9899464508732694 1.0149689410595357
Ni 1.0887006583229546 3.444296765082352 9.348558462263833 1.1633663306607385 -2.5083816138869572 2.3237311554909916
Ni 5.4185661382511885 2.093147087738291 5.247505884577109 0.07006024715219547 0.7114610115030134 -0.17755472789144908
Ni 0.9753499612157521 1.4801821155221275 3.7419959773385565 0.15588829866160894 1.7600113880624206 -0.7240236786593724
Ni 7.65867568352814 2.9825097721980915 10.14897925758193 1.6454959959206434 -2.413535418039334 -3.920918179893602
Ni 5.157231890548739 4.724316538035091 12.831133102011451 -0.5485823975665004 -0.04067819444565252 0.6642121058183788
Ni 3.831984252667606 5.290123873124175 3.1896577027701936 0.9770423412170915 -1.518535436036978 -0.8362317628242114
Ni 1.8096204597509695 4.9028673055444525 -0.008224951409927584 -0.10210956227825639 1.016255263971127 -0.7976816704651554
Ni 2.370481582602649 0.9503847043735459 1.4467727001367452 -0.3175566943401047 1.0831563966690507 1.1289084060931849
Ni 3.536944566271627 3.4264791596362443 0.5082026981757284 1.2827213102830037 -0.5867080007936283 0.25372288771359525
Ni 9.321549145743214 7.733758810578903 2.8858272482613723 -0.7825111333723039 0.23837108784787336 2.126005866188939
Ni 5.424589650502422 8.650119570167874 2.3423462533719235 -0.08350531691350781 0.09345574325800034 0.5939765094305834
Ni 8.952438057526852 8.136603440967418 7.926780059230537 -0.08220562426547778 -0.3590599557902139 0.0008266096663534151
Ni 3.513375115534295 6.33408379348151 12.146856489575546 -0.6623863654635496 1.0072746577390717 0.08370534873945584
Ni 0.2347586615352235 9.082894405288414 1.068194486755379 1.5173434726114063 2.147278145304153 -0.183569052406329
Ni 5.5293313153252015 0.11431651998916549 12.363842511230459 0.4132930061021656 0.027140050749901647 -0.2421171851538669
Ni 8.42019564373819 1.0524940100321 4.74304563297116 -2.2036292704003726 -1.3480460996327428 0.3440416280045107
Ni 7.816139474245079 4.274258063562254 8.176275248172317 -0.6468108796227957 0.07002810836267939 -0.10916595490440553
P 3.941822014947106 5.921655876883023 0.7909096413699193 -0.5085814316935305 -1.064931903241224 0.0567722717940377
P 6.027774612158262 0.21220187281089026 4.7117439784823985 0.6353702418860219 -1.7677840900293038 -0.8823789508042352
P 1.3575197991649612 2.3050754200239307 5.791192034860495 0.8919529676459155 1.5072392942978687 -0.30727485279812244
P 5.023328182742926 5.825429566082595 4.860861972831338 0.09302019838247849 -0.5361603697530638 -1.548414740094914
P 7.541858890724271 8.663918378171088 11.593024046727137 -0.8213538172711145 0.27629460236652414 -0.2898669417343202
P 0.26770999021907355 1.3077579063522788 9.512868260372999 -0.751593617857841 -0.6801508885358222 1.8029876345136304
P 2.7039855634054186 8.382077958901064 7.630970337520325 -1.7238351952521795 -0.3468418164574672 0.11267859604335433
P 4.260833968607327 5.8038179910225685 6.822817338450801 -0.9614180044162733 0.3357760455616088 1.1456398599152526
Ni 3.24840615126345 3.5578067152350767 5.546222442759416 0.08083368361861563 -0.95650899715043 -0.27622029748516297
Ni 5.257383320529987 7.5604633935717835 0.08101202425730382 -0.5070361986935977 -0.3200699476802617 0.8120459096066271
Ni 3.6127396481141374 1.6570560421403993 11.695388157258526 -0.057068719988533974 0.5898843416390809 1.2021017995577232
Ni 6.416932848458047 6.679185143128802 11.908782554345594 -0.29734988037492666 1.3214161557500403 -0.6438805933498782
Ni 4.571611603031413 1.037318131576425 0.7774602532842324 1.053059320173354 0.4318525142719079 -0.26534324556134303
Ni 5.8596221317389 1.5048194984470813 10.362853287370807 1.0313098443114044 -0.22758299609343385 0.5375353957237193
Ni 7.822809366504611 8.218646862890134 0.09449794686519875 -0.4451762279640075 0.9045500875846357 -2.7189220526758078
Ni 7.889199150835085 2.984692475704371 2.7568088618226168 1.5588909570358893 -1.251430470589522 0.8247247906258763
Ni 8.434331693484864 1.9545688346550805 7.830709254345148 0.2517274545501213 -0.19794460440171072 1.6581165128981312
Ni 1.639425793218436 5.638681950641927 10.527409459309222 -0.8798785529798847 -0.016744823558506646 -0.01311853965982902
Ni 6.514536229710935 4.028643028235499 6.121018207094315 -0.6550697771974783 0.9768705915259177 0.5265536999012351
Ni 3.5885144495423007 1.359768077454691 6.552166787585285 -0.6202071609923383 1.6948442073364682 0.9945574672827194
Ni 7.771520518020154 9.21551472090384 9.48033286317275 -0.40726839717464053 1.3449836586573352 0.8452694475464476
Ni 6.1863344385414445 7.38681199916879 6.073770638835647 -0.6003155642747339 2.1718864307711367 -0.31519976407215394
Ni 1.7376474510009994 5.884165836401782 2.6250897310883228 -1.1837469511996195 -0.24603220393755693 0.35509814292898845
Ni 7.580098357302089 0.34441375120368295 2.699607978218791 0.031270527978507434 -0.44944811586648403 0.006056233496408925
Ni 6.878569956122993 6.595586662055688 4.063444502595272 1.0741559929426532 0.11473187902795726 -2.504184030865842
Ni 4.287607215907524 3.531080307065916 10.404863303997026 -0.47497222827951746 0.43216438908537186 0.85768710448451
Ni 3.499623146662115 0.625563761682236 4.17977978913209 0.8604955204675827 0.9094745214694465 -0.7729108912783785
Ni 4.140626022716448 8.681520523614429 6.157063728774406 1.255233132165064 -1.9102247478264391 -0.6310883266812163
Ni 5.7231141682474815 2.428646415523196 7.710931291677181 0.3731737694837767 -1.098796931419785 0.37876360486672833
Ni 5.473452231999213 7.586515318254026 8.544025191240774 0.9774976835869553 -2.0611690722192115 0.08913217618198199
Ni 8.89224040631934 3.6095733228561016 0.12852657556287753 -0.2315574073601496 -0.6130371256064604 0.6922348162835498
Ni 0.6155223887707311 0.47381059782120993 6.401321366083737 -0.6142704837929291 -2.130418650544654 -0.6573855698148485
P 8.04355282325123 4.741206728686685 4.335698825307461 -0.34859350904125125 -2.7046416314973936 -1.8898297291098551
P 3.7200387294914843 3.256078400927152 8.240263121863263 -1.7578280072578565 -1.157870854763806 -0.634496838142133
P 5.008386499942431 5.585931721269144 10.662090696690234 0.017667592483092152 0.5929807211762175 -0.16986455833604294
P 6.767626790351041 6.07936323108135 7.494850202033886 1.0871045826835213 -1.5306270770941897 1.6948030696858876
P 2.2287276364351953 3.842457482367263 11.68849156360478 3.149919675146588 -0.3256147887578908 0.480074068282457
P 5.236802206352754 0.14939247165681 8.043321437943913 0.08345003819554014 2.4317056611904575 0.13200275029326297
P 0.2610953681341648 5.145990499100091 8.698586829398721 -0.9182597238612444 4.19051480141466 1.2750522237735202
P 3.4654680523106394 8.67903804966952 11.031513733519297 0.6020001510660083 1.6786287739188703 1.446090233592374
