# total energy = -381168.51967305096 ev
CRYSTAL
PRIMVEC
9.27201631955925 0.00000000000000 0.00000000000000
0.00000000000000 9.27201631955925 0.00000000000000
0.00000000000000 0.00000000000000 13.57053311344833
PRIMCOORD
 96 1
Ni 4.729553383578137 6.577382729764137 1.761645030006476 -0.5225193819308613 0.18049427013574723 -1.2495931602704673
Ni 5.142677329710494 5.334765685757357 12.666748658334985 0.14490737417007304 -0.06534998616071971 0.5819337193334365
Ni 8.142165242671062 0.7107232085669818 3.1126732670144994 -0.2379481413778418 1.6212674623905818 2.2252177952044256
Ni 0.72741654622334 4.896857640782828 6.8407561994355355 -0.7161095660186182 0.14791505064814528 1.4414103116182013
Ni 3.168961821915754 1.4150487260748172 3.9619982799706746 0.4833856491541934 -0.16862168706787736 -0.8725905039589037
Ni 4.75280759977573 3.158132107195344 2.784483769301126 -0.1313975126090963 0.5549127106599024 -0.273543007763316
Ni 2.08329219321067 1.3675018278845237 5.999640629470328 0.04372289480924728 -0.27769122560373466 0.11176662575204623
Ni 4.332284584853231 8.03563905052826 9.230947487156662 1.8540520572896133 -0.3223492306327416 -0.8207691484122381
Ni 2.873360678935108 3.567194910307546 9.818524414851105 -0.09604767235489266 1.7501203542009536 -1.0999575273867896
Ni 1.9467710292181029 3.9336806158203284 5.2208413520260155 3.5303236438302172 -0.42906081045938366 1.6058051050889248
Ni 6.059930059287557 5.560428011840696 10.343745180355732 1.3507987226772156 0.6454052575245207 -0.5719133589829569
Ni 7.701049080150934 6.333482348154217 3.4250530501989584 0.7819586033029435 -1.0302801174953096 -0.32044198630769977
Ni 3.22790402780415 1.5404156547860028 1.4022978496334577 1.1369335903905065 0.08976543889060669 0.23980602052218702
Ni 4.050285489385292 3.189258265000495 12.865340406423712 -0.009116874699603653 -0.015501695180024914 2.2027736072682966
Ni 6.4423172722879265 6.870749316882096 8.17190337967686 -1.6136114885072208 1.280772156976433 -0.3023306214189696
Ni 4.251831301780458 9.283235167141942 13.356824014409776 -0.16430531908071058 0.3956457253340476 -0.6457307591847395
Ni 5.1572529389061135 5.301748036682545 5.583459699653623 -0.10258418792182979 0.6250377496117623 0.2186011043097977
Ni 1.136229932104396 1.1825251081309438 2.3413509432949624 -0.445803062914729 -0.33413336775186325 -1.0534763531061149
Ni 7.023839573516248 6.006319262615115 0.9629962206499593 -1.0697653200741255 -0.12780799548562505 -0.2555954221459598
Ni 3.8608303858903095 5.826507055788991 8.670987259200869 -0.06418630486992172 -0.8531470505223113 -0.4644918975734839
Ni 7.622774720844683 0.2040056782473279 12.204970735298623 -0.11032552243014547 -0.565881036745948 1.3898920891342514
Ni 0.7611147612745887 2.8628554847756695 10.438006349697028 -0.4288268400717066 -0.4631094154036605 1.8104422910194629
Ni 6.937980705099299 1.5122379980776754 5.564352856225242 1.1488030881345828 1.318260640840194 1.2673540837983142
Ni 2.181705371329191 6.084723430145756 1.418772367711561 -0.7776021261064607 -0.9013886591375186 0.4938808922585623
P 8.211696090863148 8.452963219921187 8.538606050364692 -1.015171543988645 -0.42800100173630157 -0.7168312746759913
Ni 7.990400884328877 6.832632058992022 12.149453612130877 0.38715851379864286 0.010510669723336738 0.23528036473769157
P 5.928860840719305 5.213339363857965 3.0162952964140683 -0.8995732031953345 -0.9588350741804454 0.287799260572014
Ni 0.9252146097400904 9.173936642206845 8.777813864662969 0.12204692463213174 2.2773921632151355 -0.5708581782455653
P 3.0032430794518077 8.11850305776825 4.991622280594432 0.34809908590333594 -0.016111046629249674 0.47307809658059813
P 0.9991709911822196 2.2012044210355457 4.162271971766834 -0.7832665234810898 -0.6804650773421314 1.4920204204655854
P 5.996750542074479 1.7650766031383458 12.73195503825173 -0.4001294721370141 -0.963676975653779 -0.12128870630986854
Ni 6.917359741453587 8.037243109301063 10.280954160614217 0.25970353077706243 -0.3565806410117859 -0.2415044912705325
Ni 4.484021127147333 0.4979916360359399 5.934705919623198 -0.7124627132946504 -0.5950440314631493 -1.1717365570023044
Ni 3.2304074721316423 6.889766221755008 12.974066847969898 0.6758478902850941 0.1262401367778729 0.2914988209107883
Ni 7.928324737023102 1.1049276059947175 10.334326666474745 0.6319067088174537 -0.3391650166384998 -2.6270596220468563
Ni 5.824114875653832 1.2336973645880869 1.3986335488992914 0.8633957248335131 1.983658796546874 -0.0358108390510222
Ni 6.565403285056287 8.380882567321471 2.6900056347847814 0.32190263001362623 -1.075119385297187 -0.5366614777591984
Ni 0.15219365268427004 7.117431303300341 6.258187087597681 0.2561798338945201 0.7870722703804252 -1.0589533170602858
Ni 1.4500784026276505 2.905608750679617 0.4920909250358808 0.07496874019740637 0.12684640290330412 -0.3417014099071083
Ni 6.3102559480047065 3.5259993430962604 0.27989620223284556 -0.15797269199446343 -0.5976763268796739 2.12717597523764
Ni 9.362510904179192 2.8025595645472214 6.117175486242875 -1.279676609919409 -1.1311097846198777 -1.5508086942483872
Ni 7.684887956214569 9.251163263701962 0.8864473835264716 1.525575116492579 -0.6325160602666784 -0.624465164937744
Ni 0.1440778570551819 8.17388480950199 2.505201374529318 0.16944701118265013 -1.6592627106874327 -1.6919236912555633
Ni 7.45802954006365 3.1754985932153166 9.77121766187593 -0.026061472973742214 2.5776677018772896 0.2344406424452156
Ni 4.3225767840721785 2.028095881797484 7.437126707130693 -0.2466209865614914 1.4579149941414442 1.1365623230940167
Ni 4.426200835198294 7.576637169090606 6.690380789094307 2.425094326521527 -0.5484330164728297 0.21876205536769422
Ni 1.9710637112108034 3.6778378775666676 3.0233920974817075 0.7482108174285372 0.18459003747167563 -2.0587357801873707
Ni 5.313347328733258 0.2746436051531261 11.118554709303305 -0.05633235604314169 0.8969455357645004 0.4737072455241649
Ni 5.632360312183969 4.211859640684835 8.301325888198583 0.36331898817688396 -0.32746058371737796 -0.6898884275385603
Ni 6.485858659554234 8.51706993873704 5.655790696686088 0.6966591706034905 -1.2342395606325325 0.23687547713895335
Ni 8.250990894788746 2.2962425853199666 1.5801388258520823 -0.7445505949681306 0.008204133077347162 -1.4590557926141063
Ni 7.391354472808111 4.41785602077332 12.19589157720425 -2.506606781374722 -0.46276103092530624 -2.0064999628111058
Ni 5.886200294975636 7.7151147284650285 12.632279938751832 0.30932222224545436 -0.15798554751026983 0.984927143281807
Ni 2.0475578434397277 2.2992467185129573 8.013711659824239 1.6445863396221805 -0.5659558558479414 0.5749079228349067
Ni 8.185864254209841 5.5686893781214195 8.29243680643278 1.2645970898784673 -1.1589705155858878 0.8290208468980691
Ni 1.4782467873199499 6.800170730878874 8.097713343430831 0.16919864261726988 -0.13692692706775772 1.9205011900517825
P 4.72163508189044 8.832902620690232 1.8197407008315392 -2.0326743072136284 -0.753065317307361 0.29391180122765515
Ni 0.012736041215715158 4.177543909366138 1.9652575747742276 -0.3997584619508406 1.458485007712301 1.9963680165834263
P 3.6181075503159126 0.8639747982800179 9.478786621175171 -0.42847074228386856 0.4785051811334405 -0.392849136425517
Ni 7.3796439165650645 6.169367664463071 6.139702776383892 -0.4185678813478598 0.1476283726456619 -1.0072728579668586
P 3.2794378928863757 3.950203348381776 1.268179992195283 0.26474366430413115 0.2184501805542302 -0.3785152363013481
P 9.075532736104353 6.508825443254966 1.08298167125864 1.2586982078955289 2.447876357413049 1.7206655392749461
P 8.151465074746895 8.166875165385012 4.359533185555577 1.1747771436008412 0.4062813506710229 1.7466668484347148
Ni 2.9514310538887494 1.955421820171992 11.396153305964475 -0.6893325550350903 -1.8738130419666246 -0.5105791788498497
Ni 8.882072121685383 5.051700308446226 10.760048500784002 1.5428377602277688 0.8547318785109279 -1.1832887806162782
Ni 2.7292364617997875 6.230368257909627 6.334344645644797 -0.630493887630327 -1.2771556432697682 -1.834164574337067
Ni 0.8254820237408205 0.44800712483195115 11.119111030264971 0.18523281326199711 0.18083339864272083 0.6684428560702746
Ni 0.2807965149891399 7.448479363555069 9.964896168671551 -1.1197069420995747 -1.2392475553700852 1.9065159315162845
Ni 2.8093095922154223 8.87693542480601 7.579264858432871 -0.20497502888593086 0.985209450408916 0.08060999764358376
Ni 7.108446719769453 3.2523265180212397 3.6382871659987037 -0.03975671107264766 0.2958100466916325 -0.29953454673107127
Ni 4.862217388903161 3.6711991140908 10.802008082115977 1.2757559347087641 -0.2279748322152138 -0.046642639559203544
Ni 1.0505935920721121 7.734261441562329 12.476123426417303 -0.9624834695663103 -0.5991102311127231 -0.37086697572747096
Ni 5.091162008660324 7.218811526547742 4.063139285204559 -0.5224795298318615 0.11318690313834055 1.0263650987116195
Ni 2.868131261895458 8.155980546552408 2.773111641643093 1.0839279847277525 0.18579974150906067 1.55897194678547
Ni 0.017714186621013258 2.7220506493782826 8.368282824741366 -3.0994082966605974 -0.22305476920577713 -0.382360063968735
Ni 5.644942437933622 0.8224741817414191 4.018261800428655 -1.1377802546615179 0.41532057805515565 -2.7478258801943514
Ni 3.0470811712310013 8.52172449078297 11.001536303823503 -1.1544852261210246 2.5278692902979243 1.5069112215344884
Ni 7.0215957456375335 3.926578251543073 5.987169767913007 0.7121557235771929 -1.1043841956995755 0.6956569545912213
Ni 1.3607703442483783 6.755748502089932 4.034546242178189 0.341227041373851 -0.7248731711438613 0.6032527925261868
Ni 5.611590996281812 1.9033501781601572 9.44822512914611 -0.3598091752514126 -0.11200625256667807 -0.3425897260493326
Ni 8.817529618116227 2.500885251068401 12.694120576850503 -0.6036022054458056 -0.05347148955557887 -0.9569805374702101
Ni 2.4835373090804835 6.42546074714948 10.746572552689274 -0.977631380951342 -2.2047142759344354 -1.136736900998668
Ni 4.795829754144482 2.9541941146650186 5.238687201274622 -0.3191361230120826 -0.1357899852498371 0.05826633984106094
Ni 8.986484294173856 4.929179888655559 13.496355802006551 2.2119722430484288 -1.4278068619021538 -2.1129490330049805
Ni 9.054448171657253 0.23575306112633831 6.443532833589164 -0.8399372367002567 0.10153363517012837 1.0660539326608092
Ni 2.128678711666498 8.568140203017878 0.7824960302345764 -0.9337133394121533 1.0563166507683872 -1.223459439297893
Ni 1.0772877262159997 9.127085145218633 4.484694275510948 -0.16123747878866423 -0.004992053897952693 -0.12398347953321227
Ni 1.9116671765370474 4.394147475790367 11.97515361883325 -0.01435215495661399 -0.20849409778278288 0.5610028827180403
P 0.6865158291217364 0.7682931560832714 13.325489236244 -0.01767222046878247 -0.4877750364711407 0.4461663597914187
Ni 3.462115152665074 5.412075755396723 3.75360971974703 0.3046700681854237 -0.17624655060298677 -0.3052331397777453
P 1.0369822725433775 4.650898871614748 9.068644555397338 0.08591752589942624 0.6785354644195862 0.13778876084742075
Ni 6.138213690609836 0.12415600341796175 7.901971813069036 0.41547098759009093 -0.4370908798527117 0.07974045055443686
P 3.7114303916352 4.269503764329347 6.887492723425003 0.3962000551756209 -0.6380243916794173 0.21866409633724923
P 4.6136068231511445 6.8464380908573395 11.1995837845714 -0.7834490718055411 0.6223036385100509 -0.9126760591258798
P 7.192701529413601 2.079917179376569 7.61585037927516 0.3066917266011428 1.3823379309360775 0.6936106135851539
Ni 9.361120101775029 4.869931706238247 4.552791670025142 -2.122895088474099 -0.1139446072399715 -0.4683493236463611
