# total energy = -340869.04104452697 ev
CRYSTAL
PRIMVEC
9.26299866625764 0.00000000000000 0.00000000000000

0.00000000000000 9.26299866625764 0.00000000000000

0.00000000000000 0.00000000000000 13.55733486632220

PRIMCOORD
 96 1
Ni 6.851164049036989 2.5740576979081253 2.4511793866884153 0.7915704153610947 0.6852005351445877 -0.4015680043557536
Ni 0.2766200083014637 3.7567944428312265 12.298170481285233 -0.8581776709676833 -0.3014471903727518 1.5390497539402461
Ni 1.3117888448750818 4.259636335301313 5.930995343162757 0.9713177800284885 0.8923435182161148 1.6049527843909586
Ni 7.753843286786091 8.895517157815485 7.885325997635817 2.266015545947078 -1.0500390452897914 -0.9556821303737605
Ni 5.773302977072279 0.4641735037786182 8.16731854526919 -2.620963022230815 0.36107621488929426 -0.18997804125646636
Ni 8.351102926515045 1.660726011483688 11.980779383553779 0.19960116616852722 -0.8278630791445419 0.9262252585652242
Ni 2.356182702001541 8.71200788763542 4.597508849785843 -2.58360695017986 -0.66021198352005 0.7316979073751786
Ni 3.693083536753871 0.3962636803234106 7.113723751386894 -0.716646669469011 -1.2844578333581365 -0.1854773251726354
Ni 1.6067042022014637 2.3522829794864832 10.75336626888632 1.2488097451372235 -0.16257393821190066 0.38158873302034924
Ni 7.128294448574985 5.697401964510801 9.05996039746647 2.357312333880547 0.2609201767929829 1.286676181165694
Ni 6.94192291175085 7.679887503982716 1.7646494481604937 0.1965829481674937 -0.35649605171777954 0.9500275031911444
Ni 5.966964493989883 7.220368657125277 7.660531541589689 -0.5531458485674667 0.7633877822792916 -0.191081044512658
Ni 4.106268863373024 3.6318458513689627 12.824656178315141 0.4099091772315973 -0.5017839491557229 -1.0238585302396817
Ni 5.307438976003881 6.125676716253537 5.131586500671668 0.09174467410416458 0.5190021128062223 0.6434195945530596
Ni 6.211489137582503 3.954133370291533 4.763125711390884 -0.07117713436545807 -1.0260912762249426 0.5480087844512175
Ni 8.825516675520257 8.15759888057786 12.575363869215396 0.005810693144506122 0.7017435271049334 0.6905882818190622
Ni 6.27199504605841 4.510432029114109 7.183706633984311 -0.15523086758326815 -0.7717999176023869 -1.617022571071299
Ni 8.064348271173856 7.3295238355515 3.958294309374108 -1.4507310747984952 1.0326211069236602 -0.70388422759702
Ni 7.205334809994782 5.146605527004007 3.0957090358392003 -0.9930024640907736 0.7275861991996502 -2.119605361979233
Ni 4.942486084386878 5.386859928127644 8.767948990278972 -2.915394700517682 -0.014632662311510284 -0.6180286652837808
Ni 4.347783032340004 2.737225422617724 3.2658675457794737 0.3760665176505394 -0.36103507723871375 -0.7197865006495733
Ni 6.757163136726287 1.2691883131725872 10.130704707416172 -0.8064820423656046 -0.30361437322739965 1.5485247833102171
Ni 1.147444719311772 8.253248606683526 7.530110370407956 0.9345108956127841 -1.3055910157923256 2.9286515655275887
Ni 2.162456344092001 6.0261457936305085 8.85193660083486 -0.982828094660933 -1.5266475236211516 1.7520515097853955
P 7.13358362091726 2.135964167386383 8.151957714279355 0.050388993975513226 0.6092784298949765 -0.7225231828544459
P 6.462581247358438 1.8295349024917906 4.423717391697338 -2.4006955859621883 0.3616009770445127 -2.0080626793125353
P 8.059198043814302 0.08165704004569961 2.769641287086713 -1.076784431704436 -1.0378257910530513 -2.824738631492006
P 8.976327559766467 3.5456814360837687 3.1076666410522362 -0.7079604545489226 -1.2172376267578973 1.5494910038782281
P 7.758261737236643 3.829110674838484 11.060440238500739 -0.920078522237538 0.9915269079865118 0.6503260918649058
P 5.041942903019121 7.015267336630248 10.029486066403015 0.029975977536799987 0.14477444813663454 1.2158026940835835
P 4.248011271746925 2.0827019240097044 0.8897814381529819 0.7118533618454257 1.0428348142318684 -0.05011799970231369
P 8.832584343641372 7.252001798191601 9.375235826261015 0.578971551381319 -1.5393135491245942 -0.4176183729503969
Ni 2.4498871983491033 1.1396452742816567 1.9424953208448204 0.507324676468294 0.08356342384495287 0.37257367400593255
Ni 3.0704988581741626 6.582055406501464 2.852069934936461 -0.6447226296351993 -1.4648307474246707 0.6951884995952351
Ni 2.1052110112106313 3.6727234652857077 2.5881494980557673 -1.0944867340802054 -0.5757705279455181 0.5279253834377812
Ni 5.71177813872308 4.977537272028156 11.2210671226263 0.2266568847347387 2.0691124954360043 1.0820078848869044
Ni 2.5987621158360557 1.4166274658380817 12.919353668139221 0.7008775795602123 0.2760035534886666 0.08248536028942569
Ni 3.7013646577240884 6.075832519451814 12.847472797077826 -0.35203930149800666 0.30876043620471344 -0.4990200132573405
Ni 6.0081663128663125 3.431644657264588 9.708936286064352 0.5391899006080069 -1.185446193278913 -1.6489752127184958
Ni 5.8503526014909255 0.4198704328878393 2.6181523513248215 1.5035903846913719 1.7082846491120904 -1.362312636854086
Ni 4.783931333103642 0.03977624335370361 0.08503896092514751 -0.5220581260237267 0.1373367609116667 0.5521544311884748
Ni 5.109553531611535 7.800723323956417 3.4423026637392327 0.052288524991071235 -2.7187212495189113 0.4220463268147635
Ni 4.829653495417952 2.141521966695254 6.093181189994455 0.4224170798906209 1.0143205088422595 -0.47357329104946183
Ni 1.633483531871373 4.982659710391166 0.5157183871688558 1.5557734944528303 -1.3624357926955117 0.30249440069034356
Ni 6.289335379902086 2.2892575353238884 13.221831337725206 -0.905404465165131 0.7370280613388404 0.08769621506640381
Ni 0.9834896397000831 7.838544148253282 2.751433936550852 -0.19228740611593334 -0.5122079727025243 0.28582645311635935
Ni 0.42408694996350266 0.0649141696277263 1.1244993448650988 -0.9013117831529962 0.9414351335364431 -0.7756354892983932
Ni 1.9172091865892278 8.05221374268282 10.142269561478047 -1.3993920582048867 1.1464525856245353 0.7255789389616343
Ni 6.36177203089437 7.335516995806232 12.610125124992727 -0.9465171760450408 0.11985634473871615 0.2941120901639193
Ni -0.016753059716706258 0.5962295942570432 4.269029016133305 1.9015081938890481 0.4559352662527244 1.7123415927902832
Ni 8.484879155879565 3.832315672439933 7.672285360828066 0.13151758312672834 -1.5173794680556643 -0.2966222581802827
Ni 2.159186505498615 8.233648101120908 13.075738098792344 -0.05843397576717679 -0.8071937237206486 1.1226518836605117
Ni 3.3698697179464885 4.534367618137646 4.810711589073436 0.477418632937481 -0.017978953075923874 -0.13966103816946915
Ni 7.260773858100768 1.1292244005775238 6.070811974076135 2.7669872836141507 1.3344344223865792 2.731843388723166
Ni 0.2792331002765178 5.371640821020185 2.371110024645283 1.0550627237566281 3.3605711855920055 1.1547063409928953
Ni 0.4443164131479076 7.549103223246138 5.491127022061715 -0.044521479451142675 -0.49883232272656675 -0.33282827578719454
P 0.8836020916214024 2.1929593992988536 0.4418848759502766 -1.0171080988897256 0.28566910160288866 0.48952518639302794
P 7.31643521817911 6.784248145358185 6.076017779428777 1.0270770371769795 -0.5406831973240817 -0.6295932301929287
P 6.392756762041324 0.2083535593906035 12.097928529985925 0.15281377350134326 0.8959600319227795 -0.9201047474897831
P 2.355543555081021 1.9822169125053202 4.0819646069953315 0.27338591336016144 -0.30021434640691524 0.6103582932227165
P 0.31205561039493923 0.4592261360938384 6.447393634447065 -0.7446105016717885 1.461487541984051 -0.4242299647296436
P 4.968524374148938 4.965226746559007 3.1218612604870923 0.6777078263119682 1.0307310889897991 1.7416863645009872
P 0.6403279528732786 6.7227418330066815 0.473826474878242 -0.8151656861825316 2.9914224781072223 0.14918389005823984
P 3.6110411559560895 0.5748311406180058 9.478339487539763 -0.3101120651366014 0.6136194804724915 -0.31748161812779513
Ni 8.63320755643448 3.8018959842227136 1.0322333922386497 -0.5839024130240332 -1.7511657647463323 -1.3135629782542086
Ni 8.90730895534914 0.01436505861366143 9.84095810344704 1.374055379212311 0.9518383311476379 1.7186341106672145
Ni 1.282897551467802 1.312511358785235 8.555966187939678 0.4827606139756847 -1.2007010625554548 -0.5550515502306118
Ni 4.314260239508665 1.82067947559299 11.172464167670226 0.5231277049388217 -0.6320841149355824 -0.7036068055659173
Ni 3.2462827873148985 2.689669186531486 8.216205874289901 1.9698699702928977 0.2919009414452134 1.433195379907577
Ni 1.259295430402797 6.335233539194512 11.695750424897993 0.568290417518389 0.31550341135550175 0.6760584636340035
Ni 6.096989208820917 8.655086759713734 5.475224305639267 -1.096033252631719 -1.5659784600102902 0.18301909344012998
Ni 8.708978887012083 5.220292682840785 4.811634183758708 0.2807945471194067 0.7495084531940382 1.0223269240865038
Ni 7.187123754259382 0.26303489419081383 0.508516405564444 1.1606268202423882 0.5102307943714954 0.32758631066196486
Ni 8.180737851700458 6.276126343544671 11.454497472498527 -0.5871060075629954 -1.7662609685165582 -1.3361519192983182
Ni 8.915886492282496 2.960824951812445 5.223058614296834 -1.2002395495380038 -1.72671148835871 -0.2460502016596859
Ni 4.026440339299943 4.41144762342312 1.4099896008635204 -0.09541826630100986 -0.11308483034283749 -0.7504523051645463
Ni 2.2532615218001015 2.008560881229368 6.362335221224336 -1.9828488990510686 -0.02293912529467662 -2.9541777348231513
Ni 4.818982520744921 6.778847817029732 1.3569404064603485 1.2083089568096996 -0.8082669021801692 -1.3110597522163807
Ni 3.9732521999140484 8.252942927721538 11.619015742440183 0.8872020832244915 0.003665364666729171 -1.5048008600597051
Ni 4.133446501993402 0.41139664154158095 4.014909758333805 0.23293063355859236 2.8842136469291875 0.8737778393987855
Ni 6.833064149287767 8.214612638488026 10.25067443699757 -0.29597074063921286 -1.2296131176041145 0.022956865906489494
Ni 9.214886832100898 5.914554446507232 7.366675871331532 0.05219390839473592 1.751336228885926 0.55143683629616
Ni 3.589004481696417 7.828151063545694 8.62611209931682 1.2445797662162759 -0.30455025477810777 -0.5341281698143834
Ni 3.6799300783895434 4.094365909853192 10.141360861291046 -1.6258933911983675 -0.44432622125888643 1.6874420013351261
Ni 8.728255187615018 2.4368171069744085 9.775516869184855 0.03863828119748829 0.5004652303442995 -1.696413608706117
Ni 2.625013454571622 6.431225996257559 6.781189503138536 0.4646191671799676 -0.5117780842539573 -2.6899696313075157
Ni 0.49108251543240106 4.614307298196905 10.125472039366867 -0.16804447440816866 0.9598648009965406 -0.7881333646550878
Ni 7.842555026754517 6.026970200527992 0.5311792585462496 -0.11640926673038016 -0.7658020481477391 -0.8084440511879819
P 3.490186809984694 8.433904873218372 1.712603436532573 -0.686562962709753 -0.05368283423543658 0.70931079792923
P 5.764169660208036 5.261883547668835 13.419782549409373 -0.2010319850777828 -0.35107205248873086 0.3182133540874971
P 3.899305680109523 4.414884195995771 6.996560710456475 0.5700976459304569 0.004691491938398372 -0.3816396408629427
P 1.6473965561412462 6.06040036337085 4.462139384619446 -0.5190789887907447 -0.2744158972865725 -0.016523451576319927
P 3.940155505029723 7.89958731066238 5.729207397355698 1.2435934910436068 0.13698092023414474 0.43303239351262196
P 1.2927811712387438 3.4970229031346047 8.463600194925668 -0.4147899023626663 0.5876562236395104 -0.21098523963575275
P 2.220646502855878 4.487487580967321 12.114590812313923 2.147308484321457 -0.7713438039015748 -2.257998332069556
P 1.0512855282694589 0.2953896228674053 11.776443186763602 -0.3066302772355881 0.3303957550863019 -1.4182390157080609
