# total energy = -340896.1089672556 ev
CRYSTAL
PRIMVEC
9.03498750127812 0.00000000000000 0.00000000000000
0.00000000000000 9.03498750127812 0.00000000000000
0.00000000000000 0.00000000000000 13.22361747865895
PRIMCOORD
 96 1
Ni 6.347268454723837 2.1892768565389327 11.592008226592922 0.3445627906153033 -0.40992717495372627 -0.1259028080431122
Ni 4.783781937519297 0.23436125130439947 6.262030575634734 -0.4410997439017887 0.04626957249050096 -1.3778451852720466
Ni 2.8949635903513884 1.4666856611106849 4.981336456739027 -0.5384049428128663 -0.4984068051533738 -0.42299994897728443
Ni 3.175915561706113 4.290778809498269 4.822533902413095 1.0441594465805633 -0.3608381307365592 -0.190283231201711
Ni 5.114489585046213 4.59856469373322 2.700513492837263 -0.4595939460512343 -0.29591700458314196 -0.6668616276260838
Ni 7.142988838991329 6.29107083246289 2.7211557287825334 0.33655534692979455 -0.6037680415997085 -1.5296402877008881
Ni 5.4437154946228405 4.656460893644497 11.477650582785646 -2.1744871016187775 -0.7765011797327981 0.43106061449823185
Ni 5.668496948679124 7.793887408593113 12.452468813804273 -0.7956939506111652 1.1150290770079314 -0.6985373614628099
Ni 2.0707829954533525 6.267968369420891 0.26458870549028723 -0.8716908749627696 0.8832194444276594 0.09674315576002049
Ni 2.4664160631679146 1.5236783622717858 0.2777445507915998 0.8959376633252762 0.15503777773585556 0.41744019550131983
Ni 0.6057019481229802 9.177017505287523 4.732494830965558 -0.3592903266334651 -0.13872155707433528 -0.48465011768891375
Ni 8.715112804247552 2.5688366814878645 1.3179137499092064 -0.04689486477932568 -0.02606095875310996 0.6371566443624833
Ni 7.058864070362444 0.5909794359888625 4.880387637883114 -0.892419879980005 0.612736563646906 -0.607921658756766
Ni 0.7128650313826036 7.407641692892879 2.501630830454774 -0.28149003052453453 0.5487130096070937 -0.39890536992192593
Ni 7.603673816718563 4.176016398250915 3.7627669119054215 0.8817027506728171 -1.2940318501998165 -0.5095869901399095
Ni 7.732548878443665 4.1364070130432 12.702977394771818 -0.46518660964766334 -0.8406784857416554 -0.3586637487930597
Ni 7.781599825590719 8.679388463665592 7.049577006709384 0.8284793725723023 0.14602914647934206 0.5192353118629509
Ni 6.90708531532038 0.6356366687138109 0.49766427807318636 -0.4494758837806259 0.5741378774381015 -0.5827284473205899
Ni 1.8808043132538477 6.530299231534488 9.171292937206408 -0.5075535046496484 -0.35493179255445323 -0.38136967503100766
Ni 0.054093373671786446 5.048109531870784 1.372571810299853 0.3342043301991148 0.08101674616369918 0.5519754824084494
Ni 6.431076998790162 1.8949440686941021 7.023592382654323 0.5934779725276101 0.6590668141720133 -1.2522604226899854
Ni 3.620870626192782 4.468135614157815 0.5546470407480356 0.08576557370259424 -0.6166132729934929 -0.12298846260979464
Ni 5.830521379548183 5.441339292909878 4.765091258874407 0.43581149891965587 1.2664493125958576 0.6051862621034738
Ni 5.294538815981284 3.0875985588764103 9.030077889551402 0.5647101563662984 -0.7000843942349555 0.503103953518727
P 0.29367052326095194 5.604881601679233 12.327862783673753 0.1649396102305998 0.49888117368663115 0.5579805509519488
P 4.05488432081482 6.17319135052743 12.341813707875218 -0.9621641385536784 0.23273857215244434 0.32304291426565657
P 2.254337801539106 8.446891130282808 1.2582719904125894 1.0787996623622516 -0.44987569032220587 0.6357350814246083
P 6.3355681459090585 7.704974096588295 5.762178023588622 -0.38934497992700046 -0.9225778916206241 1.1338163849177634
P 4.6265189450636655 1.2095770217731043 12.677151786496788 0.25380927677981446 -1.075127098606671 -0.2992465831770072
P 3.940871813530113 6.008420283457835 8.160201941864464 -0.3578757056741256 0.14378945851554592 -0.11290459601123136
P 4.764781358803096 0.8555301945316424 3.9141508379936583 0.12779513996981862 0.4061641083668682 -0.7464015321339404
P 0.25278359082048785 5.641238391386314 3.697733071867754 -0.61693954598466 -0.7095265134844619 -0.8127745602425357
Ni 1.416631830350935 1.0680800825080434 2.4468191752765978 -0.0666519928015949 0.3792703692998178 0.5955844773476517
Ni 1.8768560237155787 6.401116980234326 4.791630631162076 0.4542573643296693 1.0992934114402293 1.321041546019441
Ni 5.959839155660872 5.462598618501518 9.088010229412685 0.045178396308851225 0.9130748372261953 0.2240844960218721
Ni 8.501769644368496 2.312613470925457 10.222028554207323 0.40665878861509963 0.4571832797272127 0.38765807914288075
Ni 2.3875135173150457 4.9126569992444 6.962446297738663 -0.47800175913446064 0.5135004662617026 0.8849220289410632
Ni 0.653826809051104 -0.07904891265039735 9.036199997082594 -0.6005027405848754 -0.11949510474455549 0.6738586277692071
Ni 1.2621877539958521 1.0967029229136187 11.438350194150491 0.14548638660199462 0.6416373058416562 -0.4020009781281141
Ni 3.9921363326150985 6.938780051476552 1.6669958515184515 0.6512606878640332 0.28500884231107043 -0.12369371620693537
Ni 5.560962527433179 7.554803569321544 7.9410601270067795 0.2174381943499481 0.6959251206509434 0.3961818003431758
Ni 5.117480165909296 2.78639014554274 4.758981800325717 0.8649887803522457 0.7686148350061859 1.3356621241460933
Ni 0.7656438143728841 7.24659304067401 6.9435234199149765 -0.05507328682505999 0.52392808935293 -0.35508914406792397
Ni 5.306311404696077 4.541002788359508 6.8083121214548905 -1.0798530433274305 -0.04659404570945524 1.450041504930638
Ni 8.211710405611997 7.091046695843712 9.098364325089703 -0.5776122091399472 0.14461426840968644 0.48958637864826654
Ni 4.806495896098721 0.33512123892152573 10.463015161846762 -0.4879550136924306 0.0833299676779081 0.6937810777247472
Ni 8.112876677330247 7.24310553549833 4.63912275262862 0.9402735091281741 0.24743216960887707 0.5609627735087243
Ni 7.400549227703998 6.101652319488496 6.827604530267399 -0.1489388639269693 -0.45272550106617515 0.28624451449038446
Ni 2.2773860546560947 5.418426564605415 2.7286936188552517 0.03817291152529555 -1.1919006906550051 -1.774122887763138
Ni 2.385101175652076 5.087041293015867 11.277352137861632 0.5807672098291611 0.8051684657605037 0.4398843834374489
Ni 1.209107202423013 3.32170412003451 3.7909596869059126 -0.6816400714868389 -0.3434939830311568 -0.5970577194590685
Ni 3.7465382673547603 2.6440800574025207 2.783174593490864 -1.240636979518444 -0.2189967970863196 -0.6580247460607441
Ni 0.9958001824939644 3.0767656088618 8.377359673466763 0.12212354350633807 0.6745014035595287 -1.1444874914783643
Ni 3.852672265537933 2.614083898896678 6.955530014806066 -0.7087215010846633 0.166449619117223 0.2736617927293674
Ni 4.03511576816097 6.966219308519398 6.037890605691075 0.17721945603921735 -0.9149064911182954 -0.503309898881946
Ni 0.7033819085007565 7.454939852464593 11.281134183629868 0.1159061018417165 -0.11728498446711415 0.07978647330102388
P 0.24542730399655496 5.492712231844884 8.043331668032952 0.3225009257192575 -0.8996490507385925 -0.45947876062960863
P 8.489924775753689 1.502048602192573 8.010007923630209 -0.2816736072902504 0.37727725012918895 0.038942956922100674
P 1.8391981958082437 3.07429905727382 10.354806730533184 -0.8133782552648056 0.04031309779674992 1.3867543148362182
P 4.0103689373936495 6.171330143102067 3.8323236666864697 -0.65872434323093 0.1113220820154599 0.04623537681845586
P 6.982084746572488 3.96349542223452 10.326257073526374 1.176906017018386 -0.4014466482865409 -0.9556551337905671
P 6.281150416185959 7.692198624260806 10.079993129687157 0.20161871081918825 0.08932269492623326 0.2640013868214679
P 2.3041115476863006 8.351219647626673 5.766250995954415 0.6069937476258578 0.703260477970092 0.7584013848082939
P 6.9351660564758495 4.261966234355157 1.5910658165536617 0.38162190025112985 -0.6349112999717323 -0.09237742259215703
Ni 5.399263356114182 2.7780598870661173 0.7625583661410331 -0.18796641014307627 0.5625275468926828 -0.9971941335746182
Ni 1.4280520545531596 0.9636988719002116 7.076499462467129 0.3201339681489777 0.3383700315410302 -0.8995019836377669
Ni 6.738194293949983 1.0097140632466746 9.200887038768421 0.5268761162376603 -1.4017289338681793 0.8630062027045783
Ni 2.936714267597021 1.532903084511083 9.236115358536535 -0.17847543993350554 0.09548125832846137 -0.007421232164735607
Ni 6.240782092028096 2.06312132605186 2.762810635160647 1.642029634638598 -0.3348689603663072 0.1856498461947577
Ni 3.919612487938472 7.037514394895785 10.239747971695774 1.1980191448479176 -0.4579944627745983 0.38266962478935385
Ni 7.979646751629296 7.175352164222634 0.37228485301251457 0.1889809674505197 -0.49412077618351036 -0.051713883434523836
Ni 7.671996392206871 3.871690914229138 7.986245003001831 0.32928143897620066 -0.12176770282881609 0.5007740198339699
Ni 3.0509526495692723 8.332282313822983 12.35100409716201 0.6278356240718735 0.12601696502347332 0.2421405821926346
Ni 0.21787059211618737 4.84514757263125 10.212652947676746 -1.0066820184603953 -0.6160124061847003 -0.2663094661293543
Ni 8.620444205204112 2.2541209618390634 5.761980157362333 0.5641427138986026 -0.15018379207766394 -0.035448056394964754
Ni 3.7071728268095923 2.7446123633346025 11.532872426396402 -0.058105903003796706 0.6105184729496647 -0.3294207927675423
Ni 1.2008221188838992 3.470645889001021 12.605664254886614 -0.6051075863467386 -0.3305181395967791 -0.08389741014560391
Ni 3.125030512096201 8.366082202067068 8.071749414222236 0.2530770265994803 -0.13894884259379295 -0.3489845738320828
Ni 5.596415818390084 7.823847427148949 3.764896458459586 -1.0228719979566965 0.45029169481370196 -0.5726396956260202
Ni 3.080795213287585 8.458672753985102 3.520616597875754 -0.15871419814617826 -0.5542645355529422 0.20475905622038285
Ni 3.2967585195421507 4.1783564600138705 9.24789698223883 0.33932005415912525 0.5878313157647941 -0.8014755902899486
Ni 7.261067090651829 6.205572745733737 11.40892685385226 0.8799582571778845 -0.05710702942563713 -0.6675159733806311
Ni 0.46580691214198106 8.895496329720187 0.21192466684127922 -0.4140849058758417 0.5845703856253351 0.021755646509536725
Ni 4.443858602740586 0.42551267488163247 1.5456957233148245 0.19099774077023235 -0.2865512470975259 -0.01442723116892354
Ni 5.801076355279948 5.687669192157858 0.36234998075557945 0.7021194223871133 0.10547616475764415 0.9608230511447517
Ni 7.7564735253483255 8.854766606062254 11.299329744959662 0.07386830804437601 0.5788023727933064 0.11297015914184416
Ni 9.21433200366979 4.6786508229488195 5.738838843874076 -0.3319191337093638 0.18857061938597847 0.4864774007056396
Ni 7.7092566806641285 8.886750461818485 2.626435630310334 0.6631507544333999 -0.5470528482958514 0.16971003503604967
P 8.53952685713835 1.7204423200851122 3.4098548790941803 -0.45646619905553 -0.03455305538452114 0.8488687348619317
P 1.9577914417563436 3.3929359614983845 1.5077966612411926 -0.23193458819391025 -0.3175834338129821 0.6808294026600855
P 4.835209086379314 1.0292748111879848 8.219654870122296 -0.9196527475540291 0.15898210709558427 0.7326276182782996
P 8.450414775408493 1.723017291523114 12.547797870434092 -0.36065326841926276 -0.1983600946725745 -0.841461386654267
P 6.174004499402588 7.777001016952324 1.4299096479835214 -0.5451471466327062 0.032600816754156756 0.11896931414807252
P 1.716042281171755 2.9693034675158687 6.088576885575948 0.7708244410629951 0.31942974299310145 -0.17145375720003375
P 7.005584749064565 3.7239146586503535 5.825889141456031 -0.35331585421758505 0.6030193363591421 -0.1004727980057818
P 2.3748464648375784 8.672295998476711 10.278189133019511 0.6293687728869484 -0.9755865826071713 -0.5746757522194424
