# total energy = -340869.39136129775 ev
CRYSTAL
PRIMVEC
9.30975403903128 0.00000000000000 0.00000000000000
0.00000000000000 9.30975403903128 0.00000000000000
0.00000000000000 0.00000000000000 13.62576608048316
PRIMCOORD
 96 1
Ni 5.000873884498532 -0.015824719460260078 13.384276433263082 -0.39246501361322084 -0.07935787040403752 -0.18899048053221645
Ni 0.8544007903997392 6.711718025275408 2.3280715060526633 -0.5907322914616729 0.6828700872391982 1.578017393452695
Ni 5.49019454271201 0.5061247637704666 4.615769402925829 -0.8316698544851419 -0.4288278685129711 -0.05558879300889781
Ni 0.09680747458966608 8.177361871226816 7.726176757386243 -0.9755601002446103 -0.17471571578075717 -0.8270565240828466
Ni 4.964184144886293 8.775113231613284 9.471283584967212 -2.0865090936458968 -0.6424903978705709 0.8390098397899808
Ni 5.897356623894781 1.6273356494493478 6.9947457116239535 -0.3409318787309354 -0.060698089211005134 0.13168213372905063
Ni 1.1136234363553654 4.745311833725736 12.086912903553479 0.35833696158126027 0.6665009018525553 0.3654198365699707
Ni 3.6621964604785426 7.0735881543613655 2.9850105570148164 0.3851659088486464 0.08201484841091038 0.5052657370567363
Ni 5.307416146922337 2.031295175334831 1.368313163199802 -0.47573018949146456 0.25448521980091654 0.7185971083271624
Ni 8.813627682964677 9.053540037648112 1.2543431575329564 0.4691391665375082 -0.8500025913560587 -0.19887328686356717
Ni 2.243566871071618 2.4499268731637023 12.146879820519812 -0.5764055904263556 1.179966915331897 0.6758951985832619
Ni 8.85136011499929 4.076527052065127 9.81792295688351 -0.7114090752191554 -0.5091157069304458 -0.568154406161157
Ni 5.702112467805492 3.7709343845259826 13.488091359516318 0.3251324498048336 1.0374614657350971 0.5501137466093623
Ni 4.354181148536944 4.045776935358903 9.766608525072115 -0.8238058783560328 0.03312763579190423 0.26916390485901387
Ni 5.297212656789117 4.4933526576623875 2.22161260972841 0.010455133895052962 0.5209924037633737 0.2700817886875929
Ni 1.2515101994603848 8.8509691053409 9.678790548723905 1.5319283124041165 -1.9756917191809975 0.0645945960519339
Ni 3.119307479065667 3.397799453376892 2.194688801822143 -0.008864649479481507 -1.6730847041721895 0.9702201760889354
Ni 6.456118735487527 5.801605806358145 4.684428836988317 -0.5791787822961186 0.3864136652128184 0.5599327895823131
Ni 6.298914233307299 7.3403219096595835 7.118563574829959 1.5946094934834214 1.3925472673689114 1.5327286968182248
Ni 6.737543282236675 6.482632914227862 1.012994307842628 -0.19459779941666486 0.005103125554520244 -0.9364006564363292
Ni 3.370605662611261 1.150359724736461 10.553877612003218 -0.06885954197587495 -1.1648038344382132 0.42001309843481854
Ni 2.7955514819189413 0.18752264631146878 3.827164366328562 0.851100709516244 -1.9846116473784468 -0.8394433277829737
Ni 2.6187313285428266 9.103151715494755 12.865257660519525 -0.7103798626236927 0.013567197161473409 -1.8770246069253866
Ni 3.7588596338847555 4.602388493830505 12.068872462695678 -0.13005333987637602 -1.1846707485654695 1.0159575302250505
P 4.348474269475208 9.107713494842637 1.9367387992070377 0.12378447614852875 0.1698110793902882 0.510055959356528
P 8.600657755695051 5.570388761696996 4.326180202119351 0.49382252821680117 2.120625575713632 -0.5982501971052729
P 7.3203059390515355 2.694624441285526 2.678988709826821 -0.9572661870314287 -1.1046024823579685 -0.2591813397250053
P 0.9003174269746002 2.4057614012732014 6.587648798717582 1.0589839131879053 -1.126487455356518 0.3268028955287211
P 3.7918813305111483 2.202464308171837 3.8899381740569074 0.7695154924435844 0.1638065250674211 0.4803602320643083
P 1.6480777808515477 4.554284996094792 9.878803160694796 0.7675113175293621 -0.9353501036846278 1.0476800581393118
P 8.667948655953175 8.019580164312774 9.907143913125037 -2.3890034943362406 -0.30618290528552433 0.0055839218456807055
P 5.1967604135980325 6.50878401257112 8.911468540222945 -0.8817032648934492 -0.1834507816609099 0.30718280730494835
Ni 0.8429777225224953 0.19714986268625107 5.7726105782377894 -0.5358487520499159 0.7031200957374858 -0.5825325292597
Ni 7.008382638947986 0.13127218305059254 9.256159380674934 2.675680211268037 0.8995932577999928 -2.367597003636006
Ni 2.3164529333462247 2.65654754836138 8.710393685346762 0.6649682672581129 0.9709007470957279 -0.17959361269834878
Ni 5.9138628173310925 1.6676934320474341 11.156258712940096 -1.294626803471338 -0.5438646803758569 0.6631885496498707
Ni 8.085437362490136 2.32867664004779 7.125771186199611 1.1280892526259991 0.3914064904417195 0.1867471930239945
Ni 5.366942712535294 6.079231973568649 11.17559414054747 -0.9174390277321618 3.3050926929087274 -1.2164765802221564
Ni 2.608574387178464 5.333194855114748 1.3051539316653291 -0.08429695957686772 1.2757284239049385 -0.9044264175225779
Ni 0.49385450830004485 6.280965028036454 9.235461936090836 0.6099798268373752 0.5818977238891786 -0.7407507616060662
Ni 6.978721763432991 2.466088605710479 4.893693482257011 -0.2552256975113669 -0.6313703766980094 -1.4168801876873212
Ni 8.731692540024477 3.1407943907695617 11.90068896789309 -0.31261451984348093 -2.1281031150375997 0.12101745492635288
Ni 6.707928955490536 8.28086771365485 11.187421251738384 -0.8311278659387428 -1.3995689501023831 1.4935425135370666
Ni 2.8916746896064254 5.22698918409307 8.241667133450521 -1.2558481400412438 -0.18680504284512345 0.07244237423112686
Ni 0.5248494715304507 4.405803733198165 7.639095182561334 1.0874768784212756 -1.5045995426821765 -0.3668786805036843
Ni 8.09285723624577 7.637479940282034 5.503324088455512 0.30566662777073805 0.9776527211075808 -0.4193633806659617
Ni 0.5997259591613366 1.1312561099979896 13.286280103116834 -0.4722358031849609 0.43230117177355226 0.310883138974671
Ni 1.9843740163280594 0.3928697471932482 7.795913329960058 1.3652665772760875 0.8408862308770874 -1.0651576460987848
Ni 9.069776248225057 5.484450424635188 0.744353914972071 0.9909826054472676 -0.05141332147496952 -1.7719665035417678
Ni 7.081259391468821 1.1279325279016765 13.505313473017631 0.9277072424273893 1.4358639278786756 -1.0811450226659767
Ni 2.241602513025898 8.400237376508983 1.454127680536453 -0.3341490514811471 -0.014945565566238777 0.20675937447986328
Ni 7.224033775303712 5.744332201157815 9.019644155142604 -0.49827207934772255 0.05122511672356339 0.41068410772440883
Ni 0.5090554742576356 7.832873052431663 11.753489658090755 1.7696910772440297 0.8059274554137152 1.6305504303544047
Ni 2.59541970509978 6.428273261957913 10.96875468613617 -0.799928557517803 -0.19109827090383863 -2.018159401426905
Ni 2.837268488567621 7.817204736834757 6.313185154863148 -0.312474651831507 -0.150259896731238 -0.7921591979850292
Ni 1.565630601453934 2.0583679393014367 4.093901845528289 -1.0117596900936188 0.19201306940862417 1.1432960422734246
P 1.3726859545461274 3.3080161880075845 0.4235472478200566 0.20213498833397447 0.9064287926645874 -0.6749552032674957
P 1.1080841328615105 1.0722788198575335 10.922536413539122 1.2153602072295262 1.8276229165638074 2.647280577079422
P 6.506996539847052 3.8436808004940213 6.491587035404987 -0.4864120946853429 0.8573667450306138 0.7849002024297708
P 0.6636448666035378 0.053692142924554626 3.084436865340317 0.6941559445656625 -0.32299329197464377 0.600571646149598
P 7.6783032105686795 2.0389850319498297 10.100466536035954 1.2686738310510022 1.852779618335093 0.04205681996073402
P 1.2065440887455618 6.944182576941895 0.06522506589629846 0.19855369874061932 0.2441447571068569 0.0232402014748632
P 1.1831859165336591 6.370832081189702 6.9401747279434 0.16726568726061516 0.5187267476576486 0.07414804406832391
P 7.745454464520236 4.808692637399963 12.797618575470356 -0.9618224389435437 1.0071805553633686 -0.6997141553797305
Ni 3.1775772279195134 1.454742124285351 5.8975307162903015 0.18644611684380794 0.5142658836728176 0.32603490701444493
Ni 2.9045593888257453 1.3035144840262236 0.9895495549206531 0.4636452333024724 1.0713470627389485 -0.5038390319125388
Ni 3.069072047716354 7.5475756481137015 8.650439802035708 0.07535414856128313 0.028861404316382552 0.4296485646420536
Ni 6.239750748091419 4.159504887427698 11.303703800241992 2.0049403316334695 -1.943029453061286 -0.9420691675760162
Ni 8.092792067969373 3.279630748759242 0.5731456811692266 0.6105125594123937 -1.789644637547821 1.3386723717273268
Ni 8.99767220526723 3.6721392775061683 5.102535464704494 0.6076948874579405 -0.48280175162626526 0.44109742990894363
Ni 4.946281488384304 3.9700886371991695 4.879672993077607 -1.0379466329016318 -0.6379040640514692 0.09530308087938424
Ni 8.356472224030643 6.220209574925702 11.196441472167283 -1.7267310287427358 -1.5675653448814357 0.33433468512939196
Ni 0.9624702741264076 4.256577689999842 3.030547355635813 0.05669153915477333 1.8559194495156555 0.4303011106243879
Ni 8.098322061709457 5.679331500327402 6.819954153594582 -0.6216096977668197 -0.7932339191064467 -0.7737542131152804
Ni 0.7130107669506228 2.2046241710467513 2.057599884615314 -1.6376219924892057 -1.6939551198632954 -1.0455121039537156
Ni 4.47168886063684 5.975251333698285 6.805375079188905 0.002062024735351287 -1.6860551482899282 -0.33911847967128045
Ni 4.212589103430994 3.4006761672921884 7.291842297871515 0.7095159719615007 0.28707935168685395 -0.4914784534646568
Ni 1.1719304242242963 7.325584569439798 4.764957276133689 -0.5549034546885218 -0.9166728389900988 -0.9813273417456907
Ni 8.415663638507837 0.5393531369305797 11.456434965735165 -0.22514816139969612 0.049914368331939844 0.35775589226680965
Ni 7.461339398931216 7.300038605091666 3.006511433349368 0.9422434883703515 0.2819857392140305 0.8692498696214449
Ni 0.27911386586313996 1.7023722648450978 9.034768781119272 -1.3943267278668374 0.11229807277548404 -0.3404438833509234
Ni 2.2365752459894583 3.7894607945306404 5.506253867967304 0.8632746258746166 1.3388078688639264 0.5075789585709453
Ni 7.807764646510776 4.7813033418051365 2.397139638305707 -0.9708464968190249 0.23761081264308107 2.4124923214867997
Ni 8.024626050856758 0.3439516460025572 4.047410797145746 0.07377137745519553 0.18035285946187649 -0.17283238271511525
Ni 6.434548035999692 3.2755530766074634 8.975850142427573 -0.3787677186317864 0.23840502640960232 -1.394858174890275
Ni 4.462127743513833 9.183001473590208 7.175655639831751 0.10505733205267068 -0.6535312290657649 0.11511600184025336
Ni 3.328218353691056 6.855181330889367 13.06078669507421 -0.5828536600445445 0.8282739414297153 0.7282994232165908
Ni 6.578569926839922 0.1537273091466905 1.9106323876818812 -0.7903992778711292 -0.9434256816039106 1.3628114308673756
P 4.757097982000055 5.800265201815094 0.40942062744766067 0.8171063548486701 -2.0474548079569126 1.0658932387132287
P 7.130535918179702 8.326485507133656 13.3797798221916 0.006395876224014791 -0.5631194148404108 0.2631848044574435
P 3.9358473628287514 8.092186933974245 11.356980728148352 1.129192512992507 0.9189742334297658 -0.5797757924501693
P 5.0144847445120035 7.546961204364803 5.503174201419795 -0.590996343756337 1.4085791240207934 -2.0458951767792763
P 7.505411773284004 9.37622541311115 6.96801182269462 0.19457080283347136 -0.29222695732606446 -0.7187909695055233
P 2.524935559298139 5.574950541044877 4.098616304838017 -0.1397757093704625 -0.31592661493584945 -0.59208597727609
P 4.284506951313396 2.3602553248396494 12.685315015728554 1.0662166834909186 -0.6797402833609648 0.03340505782300699
P 4.448712388329556 1.7700262455002984 8.85865523805439 0.8153047828635571 0.3756248021274305 -1.09834698836656
