# total energy = -381176.800060562 ev
CRYSTAL
PRIMVEC
9.17505609717228 0.00000000000000 0.00000000000000

0.00000000000000 9.17505609717228 0.00000000000000

0.00000000000000 0.00000000000000 13.42862202710307

PRIMCOORD
 96 1
Ni 7.411105565276375 0.041043695269803386 6.649866771013929 0.5600302343921258 0.9081956547570229 -0.11852245641864104
Ni 9.11946428223804 0.3655122087629811 3.7737922612381705 -1.615646773769695 1.2742374411817088 1.4739442796901647
Ni 4.909737587827301 6.174207098111028 5.714952425239962 -0.41918700298909745 2.0744117961617303 0.898054709668279
Ni 7.894640188697913 4.485712377272921 4.78390628305292 -0.2256194446091598 0.6779461675750195 -0.3680043094676953
Ni 0.20418720006066224 1.3546603102350316 11.092068280473109 0.7780106743987891 -0.028651859408737754 -0.40969191901446866
Ni 5.349617295056743 4.954961438586201 2.156408811511212 -1.1953745081362188 -1.7702662330212091 -3.4735133197093915
Ni 5.59018726196653 5.604069121613155 10.698529028311222 -0.07251127979584931 -0.31229775993401054 -1.7293620386076798
Ni 0.72232462947776 3.0780569438925447 5.1472715287244855 0.6653696164615897 0.16012753355393713 -0.3694495265546541
Ni 7.5412996091531825 2.587145575490249 11.820907199672682 -1.0427263136784621 -0.5686825107504851 0.5217161693032757
Ni 6.296804195664368 4.035171255033976 9.080917119691202 0.33202712004213786 0.030809786292005002 -0.30214730176356996
Ni 2.7498560176404463 2.374119126531002 11.879509199506758 -1.0355423943355135 -0.2448374122985074 -1.0648010340903147
Ni 8.357980513981829 3.6110175936963493 6.873641798014168 -0.689930079409773 -0.43131258260803784 1.1059618245993406
Ni 8.45635546383716 4.983835339648943 0.07375368722365863 -0.7272272731983347 1.7785009622261758 0.13275685485046815
Ni 8.489899468376526 5.1812091431639455 8.629863111824864 -0.10046637024787859 -1.0206708765403196 0.8542819354577029
Ni 5.91043341471326 2.273514638080742 7.357770047555426 0.20932250722134918 -0.300335959586444 0.5604673219295444
Ni 8.084591371952426 8.537031730772238 1.7504878213499055 0.9421601846279258 1.4221787170820992 -1.810320677839934
Ni 5.259683396671932 3.2729534823020687 11.222110935926803 -0.41842518512240845 -0.7609056392873863 0.43081327437411604
Ni 2.223363782278724 0.7029753539927845 4.953133767441714 0.2966387132405149 -0.2950610843407499 1.0009949953779471
Ni 8.251393889054636 6.8775760620039055 3.1823415472828325 -0.08066090548617721 0.33314297881413596 2.1681089660065758
Ni 2.7425159728834734 4.710620523682517 6.102717814694895 -0.9137263547672652 -0.8019116493861028 -1.1336785737883184
Ni 4.3786853496603095 4.462462785505209 7.576065731144585 0.4996635603786105 0.6839805466945574 2.5756660980662285
Ni 1.631499273300212 2.116566131064768 3.021090856533678 0.4137131243587197 1.3345740332882372 0.9644053691793714
Ni 4.138610835771617 2.592054230421475 9.2103964267098 0.7705837858070987 0.9381459212622101 0.9162714897866221
Ni 8.294947879631325 4.626338459760576 11.133697344312282 -0.4551389956036742 0.29414011518837724 -0.6976868405370564
P 3.0157124387380057 2.9126123350703748 4.719019369895684 -0.22728603367830535 0.21415361006140535 -0.22819414731487153
Ni 3.18880904421932 7.236082198046355 2.5917505360696547 -0.15308091111980085 0.44486666714338874 0.26315523677108876
P 6.939929742214391 5.256600577874003 6.72992830920061 -1.16221396222385 -0.8554319899017461 1.724815813997894
Ni 6.108165045410164 3.208957467077211 3.504198839853717 -0.08351817242931422 1.2833635718526928 -0.7330539071824408
P 4.316001367435761 6.78719258587773 11.925798274261014 -1.4506135753840244 -0.48840367119407496 1.8375440323322612
P 2.1280808262772695 5.365150664773687 8.235612792827144 1.2443254841136246 0.26455468822177663 -0.09655675078082725
P 4.025812697968836 1.0455710255189017 10.978784782210772 1.526496599865584 -0.819915542162691 -0.5902633222450544
Ni 3.5754642519047617 2.1262641651999186 7.125629204543427 -1.452834237184427 -1.1058625800173147 -1.9879288846771377
Ni -0.15910464516333447 1.8258453083529629 1.5747478822504866 0.17375129498495884 0.47646578210590845 0.28507594810358006
Ni 1.591853856556612 3.3472163851307424 8.284183703995224 -0.23607792093832242 -0.8996215399347668 -2.3952021669477843
Ni 2.7935935093360587 4.775130342040364 1.521704131308627 1.1912774552487098 1.2866970071013002 -0.5752077134635125
Ni 0.54724162438409 3.361511122294947 12.561455325270817 1.189114643269436 -0.8912559415788909 0.6925526046342847
Ni 6.544879358338161 6.950985684629581 12.3130260054375 0.4795397930455418 2.0341385504639806 1.2559013618766823
Ni 7.82585479426913 6.713608637189076 10.347128973099114 0.46172076258625006 0.6567821319028947 -1.000974683662973
Ni 3.511936164533161 0.4627292665578983 -0.06990199873743709 1.0241783754729457 -0.48645528921845255 -0.09830612937176618
Ni 2.2573848897272937 1.3211988811991813 9.506900287184505 -2.0875465337714756 -0.39828701961163665 -0.04291659685786803
Ni 3.086213568628731 7.3856814852494095 7.416990446160278 0.335958336775744 -0.770844238557337 -0.27549601772462873
Ni 4.594748742137754 2.8096498572419373 13.580365473221201 0.541511606762648 1.0716548237873544 -0.15315624444242654
Ni 6.023561854530104 6.253020828689025 3.6129305928611353 0.24867375532546207 1.5245127366663356 2.0892259783564278
Ni 9.11187651097052 9.341858463318374 8.924890705797823 -0.330557734585463 0.3273649386797781 -0.562051892807845
Ni 5.092890054625668 8.757765226726306 6.65731966895904 -0.3425701856653068 0.15684192082412987 -0.5294263934633399
Ni 6.9681430392490045 3.2884593268511737 1.0194349611505102 -0.6206910426072922 -2.004091353369613 -0.986155102151637
Ni 2.3166282259720115 2.527507711839844 0.7893025378851379 -0.46835189474952243 -0.2401361501680961 0.07058783752089133
Ni 5.931141515983869 0.8787446532712315 12.807910173064508 0.32508102774160785 -0.0030765820427947014 -0.5497375942168661
Ni 7.5562916505693 -0.2754397670333823 11.255575117479436 0.13187650912804383 1.1204363640664317 -0.28629696499487467
Ni 6.15739839561756 4.848374813659007 12.737047545969501 -0.3825914632532508 -2.072548517700747 1.6879464517753702
Ni 6.82725088013891 1.9777842348223025 5.2532764551046895 2.7997477658746233 -0.40924428995408874 0.6498915754306485
Ni 3.556205809473654 6.904679177269028 9.851559428792925 -1.9226917699451984 -0.8205719447997675 -1.3505529252149968
Ni 0.8493505265363389 6.800367966216496 1.6488061813315598 -0.10181131431154725 -1.0885135472159062 -0.1734229651112626
Ni 1.411545657101572 5.948142894652207 11.20994481174212 -0.3971081688121871 2.0909380759515277 -1.6088135528979457
Ni 1.2548999269318235 3.8971508884350463 10.334720627437454 -1.4539215567113348 -1.6535656603026552 1.1019804713540893
Ni 0.6920451098440573 8.097574076116322 6.082910703918204 -0.7749451480995879 0.8592279666090686 0.3302327471458764
P 8.165827317300224 1.008834101510252 13.339644117888302 -0.7547038813520486 -1.103274250464848 -2.0044433373923933
Ni 6.723581923002613 1.1006305362521447 2.8174459022794367 0.39937639602107344 1.777215667755849 -1.98441084422155
P 0.5049106687650324 8.09740892510929 10.596149166535367 -1.4103819815574872 0.22329722423388643 1.4512640644838295
Ni 1.3208502290732251 0.7154571001020171 13.046134078168848 -2.140358535366185 -0.3054203160878869 0.39661631677743303
P 1.0842347112762565 7.802063874200592 3.7816479441393205 -0.020773227991609383 -1.3039987316045414 -0.4260369360313953
P 6.630299129197433 8.779666085269925 8.766164072939473 -0.07484481302503239 -0.018416040613342476 -0.22738219293653744
P 4.331598962544328 8.304921165444862 4.608850803127088 0.1748139319215183 -0.1988367771986769 -0.5090732837282845
Ni 4.602437439020683 6.753685281562148 0.7339081376098578 -0.3979949422925146 -0.8759735614985237 -1.7440656633664413
Ni -0.2918943123673264 7.74683003740437 12.971739972040144 0.4061967613770166 0.0014817267518490611 -0.36566537692187345
Ni 2.2431819031225513 7.488827464196772 13.39613768986594 1.2128112155554274 0.10664087448970666 0.15842906280559166
Ni 7.404095822533465 6.856996411516542 5.577511004671238 0.7696378769540616 1.1468850451762633 -1.0003056826204062
Ni 0.2149752308422232 1.6461793628141579 6.975323438032514 0.859410772043836 -1.6766433680577255 0.24421366267157943
Ni 0.9604356813939617 7.046020914120488 8.807577522963909 0.5091023371940071 0.11211063935502628 -0.3080109596331986
Ni 0.6813093768813897 4.149189675277604 1.7620236191910832 -0.524853943601309 -1.513961957733683 -1.0717147304910124
Ni 2.466181637895335 6.791899389578139 5.008177680579849 0.5452263366100739 0.9315237879600021 0.3975527125487734
Ni 5.859961431953124 8.125695622591476 2.012118211678638 -1.3201540012081652 0.7489055295027167 0.8886017917854955
Ni 6.2388270171402285 1.5971295137256862 9.798448699942657 0.23630366379588336 -1.3629556697547238 0.005723275637022401
Ni 3.3760168857459147 0.5058547820218982 2.6602368236745906 2.02526387368217 -0.30702237046768416 1.0532159003558765
Ni 3.351326810194647 4.632036169503177 10.142490360285898 0.7960752452099839 -0.29442833585275746 -2.516889137137336
Ni 0.5241736987241133 5.772330472610814 6.623519680358774 0.27711452716465823 -0.5608136495253697 -0.6306908341324816
Ni 3.309818857093965 4.494584656372912 12.320008223012572 0.2760701450605439 1.8446317924169782 2.3927323652510535
Ni 0.893976163647545 5.288428846951427 3.6087137371482543 0.6976968678393856 0.6031368357736129 1.9169116729283113
Ni 7.707762649185383 4.786378960630425 2.450226215604865 0.13775225118253048 0.5760237816069048 0.15904329935082284
Ni 5.497326520734877 6.746831514770325 8.335964967238883 0.5009617103647437 0.12343146368448418 -0.37600455406435246
Ni 4.704950339107756 1.5254631517297916 4.736194157121407 -0.9078390427485525 -0.9691549680492146 -0.06791157624030884
Ni 4.125857508006377 9.242951360218164 8.955158297858794 0.18510194411108769 -0.07780312432240793 -1.6788282915241861
Ni 5.236075977722318 8.12003461307266 10.589837645549967 2.5746445987802495 2.142836307482716 0.9228488858938235
Ni 1.4070040044081948 9.11757422071312 2.0269964824010223 -0.8505296675041223 -0.9323668526865878 -1.9604535620750045
Ni 8.337015511144726 2.717192818471917 9.308277758555223 0.6609917991088681 0.04135130925327717 -0.3473943465268275
Ni 2.4581809891102346 8.46612689841988 11.284164591807848 0.8961916883176114 0.995998313494304 -0.15547820770738385
Ni 6.746703063987077 8.742103406226116 4.248372947561796 -1.1393188027932315 -1.8553790036311533 2.000443986425013
Ni 4.002012602844351 2.85467185677002 2.4795680445208648 -0.1580361982425472 0.4828614012196071 1.1753592413565566
P 1.4384652712477701 5.498794529686271 13.16111037425326 -0.3045913924286883 -1.2403896393943283 2.7678159501630333
Ni 5.3258539001560425 3.9697347560255625 5.6065436342018495 0.2718293675063189 -1.2956097362098977 -0.6923674852066721
P 8.351585499987316 2.5863381705669823 3.5518705955390666 0.07715186389165422 0.6088737382573901 0.1914065461728768
Ni 8.009667865095624 7.300885618194481 7.780261188755598 -0.4156000569687875 -0.23170267468876227 0.5989053141907685
P 7.069041129489544 6.557467535096369 1.0068981647056003 0.0685055010705659 -0.1786695582221826 0.34229559184768144
P 2.0611579682055687 9.26873326742703 7.439053703194144 -0.2999202122052641 1.4369288788080803 0.2815226835346829
P 4.972109618149678 1.083115354450818 1.4175654113078844 1.4695888309349463 0.05883943873571156 0.14326572480159197
Ni 3.6564341206301196 5.26989523394007 3.7388912659243583 0.19190251197268887 -1.8397842345166895 0.6874973015985643
