# total energy = -340892.6853450894 ev
CRYSTAL
PRIMVEC
9.08035053713629 0.00000000000000 0.00000000000000

0.00000000000000 9.08035053713629 0.00000000000000

0.00000000000000 0.00000000000000 13.29001086700037

PRIMCOORD
 96 1
Ni 6.549575228652706 1.9686200293250664 11.497401112753462 -1.5521986326173784 -0.42518924331911934 0.659449908543045
Ni 4.640004719856702 0.3575678654924739 6.016693940447242 -0.8051998332190713 -0.052872165408683135 -0.6669716708413868
Ni 2.590515087297461 1.6105000785107153 4.756029808817514 0.29656389413852147 0.2914497128404077 0.105599834819702
Ni 3.2770531618232006 4.361601167739052 5.126834101509006 0.08094809770929286 0.7861710987223944 -0.7346482482527542
Ni 5.1327136285799835 4.875094999188925 2.519600272523384 0.12743955640261279 -0.03295588610073034 -0.2135368024130129
Ni 7.3162746390588955 6.103239670896966 2.5987818385645163 -0.003736327113980662 0.6692990334229828 -1.122574236345041
Ni 4.914785212049534 4.657538877036714 11.491314553686781 0.39114346658831994 -0.588812962951773 -0.31290325472849334
Ni 5.776474171010934 7.921443691062578 12.27137115995615 -0.5345904541627825 -0.08581005378728447 -0.4143939524758283
Ni 1.7284175125550665 6.5767617986148785 0.5617141257475108 1.8411942274903388 -0.2571601955299184 -0.9149555991886757
Ni 2.7958853788253437 1.449641666059177 0.3210521432326592 0.15967707628007985 0.03860125731196578 0.9927548668563418
Ni 0.6386047193098668 8.973938059047075 4.776855593122204 -0.41868718053454346 0.4333663798132729 0.3884461222618149
Ni 8.42234307610713 2.3936349236635768 1.1694411125402195 1.0825169633128389 -0.2877298407866593 1.19604916560574
Ni 6.703187521254606 0.7290059666620421 4.781107921349756 0.5982193438673374 1.3388549200517783 -0.4397997941434426
Ni 0.8455313829458048 7.323920294338838 2.5581944870558577 -0.9332950209278121 0.4465653950020503 1.0519966832367946
Ni 7.385693920074532 3.937358103209087 3.637794609881399 0.9866608381434621 -1.0635735894411167 0.5441837542781724
Ni 7.795807958932773 3.8504046650134374 12.578982568099292 -0.1718013703474396 0.7100834144291964 -0.2481255961314759
Ni 7.904299988962183 0.31583457372689266 6.82484605978273 0.07533460817725735 -1.82830014513649 0.19356113062203437
Ni 6.920044456403782 0.5676472268875523 0.31896275453917344 -0.3884985727663052 -0.42903252832460953 0.022800028613651057
Ni 1.9168257089963296 6.496491498526163 9.22536752140867 -0.08789676111298411 0.34975359078762347 0.07554338175395377
Ni 0.18674013601973613 4.815800309191265 1.4063356575543011 -0.8812890601741661 -0.27705127802689056 0.12178287233746767
Ni 6.255044973711802 2.097896982081067 6.952470388713375 0.6937286272202567 0.20337528849897876 0.1583447306219015
Ni 3.5086111847374926 4.257077250960635 0.5954585249771133 -0.9701574411718002 0.7556235649528406 0.1340992278109755
Ni 6.035227844238088 5.611157306371209 4.83832139496955 0.16630255201639746 -0.38191474890120036 0.2689096227563627
Ni 5.831137882157321 2.667988639374036 9.242006356010767 -1.2702257489191542 0.9551103170306906 -0.08828268369749312
P 0.4299482488677185 5.447148012230668 12.520133723320452 -2.0372315875670077 0.02195876365927831 -0.2576530760059369
P 3.7837276499058086 6.158257515720216 12.753931868749662 1.354642779013654 0.7497187694326314 0.7616767131254559
P 2.341677157022442 8.572704603162451 1.533773839295826 1.8008402491533244 0.06250840294686655 0.4352101178902311
P 6.385883746786271 7.701962534564348 5.863473010960027 0.41824469368048617 1.0535473155533663 0.40268771978249357
P 4.803342068046274 0.8302682214730533 12.421097062463257 -0.1327702245869068 1.3220764150418585 1.2839762657360274
P 3.8436034823475493 5.740870115960271 8.373610650030646 0.022361398414335685 0.8668559154679717 0.380412453324061
P 4.780977164299837 1.4322800355422511 3.6612518798156954 -0.6076779181770761 -1.708012112176994 1.1681871490881495
P 0.10404175015684354 5.5379333584169785 3.6979319564229765 0.437833157335375 0.1117735677305817 -0.608949328690332
Ni 1.2843702031728967 0.9436845256809818 2.7164250460180663 -0.14042105626394524 1.345993073758456 -0.7010243895507217
Ni 1.8302354848282305 6.5831271244477065 4.950183143139561 0.04250187791795261 -0.5284015517432512 -0.6700055725717042
Ni 6.002956277890204 5.696103987064641 9.068252937546111 -0.11261226158179315 0.5145561612197268 0.9460024411921515
Ni 8.531625096646462 2.253879246212737 10.417707462315827 1.345027624521393 1.1579397603285284 -0.5579705236496197
Ni 2.1373511058237677 5.263724928317539 7.051733150302719 0.4887893366682679 0.31290068362533213 0.3434965541343181
Ni 0.5639424438065347 0.09659223045177764 9.257502882496222 -0.22175327678553422 -0.04782226168960151 0.28741282376687277
Ni 1.465741127830364 1.1588071138486025 11.521123528927872 0.516624099492349 -0.11102126294558945 -0.9648774237197835
Ni 4.048356310028596 7.051428050519577 1.8507534452445724 -0.3976110765905346 -1.2749838324294298 -0.8806755949598832
Ni 5.676799161500319 8.210589298045042 7.920886157530288 0.1699280645841267 -1.108548097269278 0.23280284973147647
Ni 5.319959540133084 3.1642933669700697 4.997390070300332 0.2643762536623834 -0.5797287412623177 -0.7575822313411082
Ni 0.6147134086126473 7.806214040822102 7.222230355010387 0.16960436269612078 -0.7891042132087894 -0.7519345461370276
Ni 5.1272381771146565 4.59156104893212 7.127645790095895 0.19394165388990472 -0.6301107932592954 -0.9160069232713256
Ni 8.15101311717603 7.331738476281868 9.061727797541161 -0.14884578999253073 0.21974473099593772 0.8220773257007002
Ni 4.461049168482448 0.17480492307441847 10.310682816957721 1.5181878228895724 0.05749320912046227 -0.47945314686900653
Ni 8.131072667063494 7.165395532014314 4.732094912436988 0.6134536443185887 0.2694549537368714 0.20241292458570947
Ni 7.469678083594955 6.181149079806602 7.012115580247621 -0.7159069630895091 -0.5671753300773393 -0.05071552407699653
Ni 2.2263476229243904 5.255398246735938 2.7827152381863542 0.7778371249354024 -0.007026053608845964 -0.16843759608152928
Ni 2.303040264841731 5.170478807094573 11.595175604864918 0.02175821761269801 -0.39148902285319676 -0.6141126180588262
Ni 0.8958092847095174 3.4153923045665926 3.7554913914040133 -0.10860545441524522 -0.5960179653406444 0.16560295484621157
Ni 3.7142084850325947 3.1468046115435016 3.048117544187825 -1.2148814678208948 -0.2905220588198158 -1.0807189908721517
Ni 1.3519915747521578 3.2877770559866364 8.392123669014907 -1.016133136570966 0.38302906501130163 0.06546260047918404
Ni 3.6594358096779414 2.5306937369598526 6.800206528188756 0.7424651731940116 0.6633289318824769 1.0451896876172901
Ni 4.384510892526816 6.993758743295206 5.9147724521762255 -1.8446675307509197 -0.3947190997547202 0.8833634262046914
Ni 0.900215070863708 7.330894003667813 11.351383625467646 -0.6278739335089768 -0.2720070307347638 0.029097431586588597
P 0.26005942765619944 5.734922486259127 8.101724065602324 -0.3033742321921356 -0.6912925069749385 -0.2659222579932646
P 8.655717169159175 1.7433002073339585 8.215725144394609 0.4432041918393012 0.26075408352876384 -0.389610060662929
P 1.8244240603874184 3.3040308837195327 10.609961187273782 -0.6915264773626154 -1.4189969769200077 -1.1484711587164609
P 3.9734615775476314 6.238518735458243 3.9077679644195964 -0.3166668355359836 -0.5189997988133772 0.05075897572042226
P 6.818026716415465 4.077803887312273 10.476648926671691 1.059415087188053 0.5052636801742072 0.5128224663580717
P 6.280460875289665 7.8527145166992876 10.074306759967968 0.1574651562304256 -1.3041167452396443 0.6944732186957653
P 2.351420373311491 8.354213204889296 5.9543101151452635 0.7918043857487719 1.4833208358090584 0.05687897257523107
P 6.891922610320665 3.9850753460785664 1.4995917671630252 -0.4305852175237101 0.690661558259159 -1.2854253394777282
Ni 5.254126997639511 2.891746641046676 0.227222155460405 1.0066645349588985 -0.8936028445445127 -0.026071500276071226
Ni 1.6536862263864998 1.1972805597169156 7.1296652600890775 -1.2906073978992998 -0.39850299227718466 -0.7057043115248943
Ni 6.986666989407278 0.7059264393163984 9.285012712942917 0.19447232958239413 -0.9043274300508685 -0.4432327310843915
Ni 2.6931956928860585 1.4622633535165657 9.311313948712934 0.4839479494155665 0.8990654103209805 0.009174724520732586
Ni 6.370946569903246 1.8949965459405294 2.2567232120484593 0.16700754850322205 0.33064823741674026 1.2129127741302983
Ni 3.880342581234308 6.716717243780872 10.558089683964191 1.2541105885248465 0.47562683114438087 -0.5848596347309799
Ni 8.236840591886272 6.9991433912536465 0.17457882234226813 -0.36037687482942454 0.47332775069755895 0.42554714087917034
Ni 7.913371259300263 3.8744857550400518 8.27725814083705 -0.5212052911051281 0.09760113288494157 -0.22992090019799116
Ni 3.03169300586198 8.402902045282476 12.226876533546113 0.8571479441515883 -0.45959343183060203 2.053696675101566
Ni 0.17424648150705918 4.782929439697923 10.17483259833812 -0.29091055250748604 0.11380422500736531 0.6895153604698576
Ni 8.691030652987797 2.2991629550976267 5.8227921318392735 0.41044962311609956 0.5671413915156104 -0.44342067872548147
Ni 3.5741622363597143 2.607359137825127 11.583267632971666 1.0676547014890256 -0.3518274425975167 0.3995563732423635
Ni 1.1560920889926605 3.1831260142985767 12.837632725328596 -0.21963057401557656 0.736083438037384 -0.18316127544494906
Ni 3.0150487230494667 8.486877128452209 8.026356246850474 1.0509646424278545 -0.8103474388582818 0.26645164813417344
Ni 5.866959865624514 7.905789166475141 3.7516240700456662 -1.3355921901401064 -0.7244473964603523 -1.1994083118859602
Ni 3.292607802553061 8.548269379458974 3.854794106536388 0.07273650843277796 -0.35441860036346057 -0.3694220157508283
Ni 3.606106910082803 3.8009258341103367 9.419468189696723 0.5594939022726817 0.9347731481352353 -0.45575246081795706
Ni 7.392604066948685 6.09597539034595 11.230670351446225 -0.059344660506904255 0.3930447973760908 0.13489652690129028
Ni 0.7791004453418414 8.842218491955796 13.45746563565957 -0.9857244423721216 0.05206535323667163 -0.055821734955310315
Ni 4.536661248667825 0.24325805477677062 1.6866887609648298 0.39659703350372344 1.0335091659555684 -0.39986284873918876
Ni 6.040703295703415 5.747217281091721 0.05607116550314707 -0.536412852083502 -0.4003809260261879 1.6188809644362767
Ni 8.100072349812036 8.89720001537629 11.36505954164 -0.3947203853063008 -0.8973070328689772 -0.38361090565670064
Ni 0.06527773306648972 4.8990762053579635 5.795627354718754 -0.05927241250807211 -0.7073634443948721 0.14285357696483786
Ni 7.979285524950035 8.78275127529505 2.7338220899026786 -0.316231547770778 0.1789392669438015 -0.7259399218454787
P 8.422742611537435 1.6613591227185094 3.613580946734728 -0.255369936398715 -0.13615405345747522 -0.061280444077036395
P 1.7633223806026936 3.2295175259674958 1.653942292275923 1.037521372438755 -0.733544473665614 0.6319113368031439
P 4.699544579322959 1.0600946215109972 8.115372740722613 -0.8697039264397279 0.3743616191442907 0.8098527586100505
P 8.731665222320038 1.4187593933666744 12.579168715288413 -1.1068776515453906 1.1285793048885402 0.1369258986264932
P 6.16390549384863 7.730057139595399 1.2850294366329014 1.2856456830186505 -0.3198976837684555 0.6949982379612999
P 1.7037189586816155 3.232241631174127 6.141965550514428 -0.3283658691404667 -0.08017111033395224 -0.792902503908957
P 7.150885131613661 3.906966169453778 6.067607466759169 -1.171313610532273 1.1095323155594183 -0.24744913888974154
P 2.3908472560021248 8.557095480328456 10.242983354362538 -0.506068949684322 -0.8168525869666513 -0.8971406824944421
