# total energy = -340889.76642497705 ev
CRYSTAL
PRIMVEC
9.11301549711699 0.00000000000000 0.00000000000000
0.00000000000000 9.11301549711699 0.00000000000000
0.00000000000000 0.00000000000000 13.33781933775435
PRIMCOORD
 96 1
Ni 6.4063312236493495 2.2393685666748113 11.632699213551184 0.5026234143378828 -1.0869901685928443 -0.45553700237304123
Ni 4.762489087953008 0.5047216135183895 6.022572128826514 0.9971355124225407 -0.6247006779873177 0.0653435584028165
Ni 3.1842788878013093 1.6703974620191815 4.942009108485443 -1.2344755879027385 0.5835074915784596 -1.90919065013497
Ni 3.702627192963674 4.330204098436799 4.4735582068056035 -0.32270172887615395 0.2960154778342192 0.43105650073317375
Ni 4.066136256687681 2.88385922837827 2.45034398180867 -1.026074564054394 0.16822136630566514 0.040286358323872555
Ni 5.270858641460084 5.027131049660374 2.233884354121247 0.13609748918792688 -1.4734092331223012 0.4235758760854125
Ni 5.126535819574423 4.579754906955895 11.957501656470926 0.31928987498112754 -0.26699440801152086 -1.1866846936717046
Ni 5.816573331299005 8.186221563420391 12.28587822395615 -0.6565713014436693 -0.05778991442527466 0.1623361111694817
Ni 1.9105345258260287 6.591489466692403 0.38165945611837954 0.41055452412508003 -0.025898207923000557 -0.7530421773789095
Ni 2.5053957066941455 1.4600781839804648 0.12143275028040676 1.101284216618013 0.4628343073654029 0.33458228236382376
Ni 8.073812520801232 8.82132581945723 7.026655991618111 0.3689982979498484 0.9704217505767804 0.34918486276834704
Ni 8.78644119723217 2.5060518437892876 1.1719474255685265 0.10054838843872362 -0.9178668592981999 0.565951227862251
Ni 7.0506669640942325 0.8503263362587034 4.598146794253341 -0.46005725884089804 -0.3139517505976657 0.3176081164033304
Ni 0.9361618265246019 7.723189260584601 2.530997811625987 -0.012684537446203962 -1.1195917566779492 0.31598626452919126
Ni 7.9597266833833755 3.9929496315336914 3.794983045612548 0.8466691561074515 -0.6808348019767242 -0.19399204751186588
Ni 7.64319521306851 4.08732401705165 12.649947738115593 0.839086201553871 0.18639058101552416 0.07436581650608484
Ni 8.230665738601067 7.272040329583054 9.215832804419104 -0.06809618144728918 0.6713428033258889 -0.09975263201030563
Ni 7.111040689862528 0.8361519524005891 0.34923899320618496 -0.47311229225264323 -0.5620650054339675 -0.8227291003520862
Ni 2.246349136325908 6.443384743494465 9.199974335350124 -0.34158031094821173 0.6201853066154673 0.5069112430799593
Ni 0.15842521292361325 4.899557949731262 1.0932747652579307 1.3782411351588844 0.6697363780707175 0.33319285821546485
Ni 6.521246345451344 1.9071718232134245 7.011824559363333 1.200119993241004 -0.0951578135507716 -0.21981466500192465
Ni 3.6236811421967685 4.327461080858496 0.2840098529338367 -0.782545329044349 0.23742466477420401 1.1853842296927262
Ni 6.301130576061545 5.603091836982311 4.493684300897571 0.21666532073966557 1.0270302430994442 -0.5597494699269134
Ni 5.378948114869556 3.2867091787651805 8.646894506618231 0.5356163243241355 0.6740746004347552 1.1079767981468402
P 0.36559047639804204 5.758213581892187 12.357222197434616 -0.242145467288641 -0.8947906942050267 -0.9031244108817028
P 4.221130419384613 6.446200665194451 12.57995066828521 -1.2017423593357754 -0.16125444806952874 0.8435900029614956
P 2.475495903789122 8.574408672333915 1.3384905124414828 0.26137371939063375 0.162706607135023 -0.55184461325754
P 6.544265821872583 8.06934714334818 5.717215949064051 -1.339302292001842 -0.022129484909187695 0.32506714378453694
P 4.843749844583331 1.1397101342620592 12.666993633066475 -0.30142507888556475 -0.6232071241609267 0.5475069051141345
P 4.263861347705752 6.031740733429606 8.142098166375117 0.8505301817247547 0.36278317027807194 0.04286543190495844
P 5.004202703391238 1.1749592770955335 3.4942416967525847 -0.5224494479248745 -0.6615661835550993 0.943554236761975
P 0.38352762423649284 5.721096270940599 3.55570260523547 0.14128006183013087 -0.43081918791138707 -0.4319936678354625
Ni 0.2885308197796709 0.2305975594846958 4.832372245093261 1.762043588001101 -0.6163085972688805 0.47969765877964476
Ni 2.1139825903961724 6.6138072409424495 4.381846644332098 0.9962749641944584 0.44741180216274556 1.3567251154639797
Ni 6.450538460434557 5.705494788900551 9.035344981671333 -1.7403511906293319 -0.2778390640355086 -0.0674156104404968
Ni 8.597482826846417 2.695520543026818 10.177302385484255 0.2777855850897538 -0.40840199655845144 0.2704376293651149
Ni 2.5516989369777243 5.549525533576117 7.000847932542516 -0.289482818922024 -0.6216868308616583 -1.6883729977898279
Ni 0.6758512809466943 -0.09546430213711081 8.925721787801965 0.2743639610027146 0.6529427035521465 -0.2750368187000231
Ni 1.6050480299460572 1.096086130450311 11.223081026767577 -0.9757056246835392 0.4222296464701631 -0.4517433396585639
Ni 3.9641798425147465 6.91542070535804 1.6513020499475004 1.0112997197380649 1.3188136851301868 -1.4999934113687328
Ni 5.6380037982530045 7.996506812772182 7.903831093289425 -0.27208570649149916 -0.19695370124335113 0.05654370072299939
Ni 5.530652479075567 2.7375679952071827 4.989357601613645 -0.15683626439717505 0.9613349577841639 -0.6388391742712287
Ni 0.8348943563015665 7.388276838590542 6.298011190955056 0.1258822392178219 0.3641211723632052 1.0890485937837695
Ni 5.158558955023448 4.987762823951841 6.34408021674773 -0.8209277854772895 -0.22277837561593888 2.21746849027631
Ni 0.9224831906939284 7.611901118836309 11.124221215163105 -0.23515977999942728 -1.0458257785393925 0.2499701055393824
Ni 4.4954686292757495 0.3278288752710855 10.51401553928387 0.430255344988117 -0.06150284450048763 -0.8717484676735825
Ni 8.17997003498612 7.336369103952623 4.570030408424975 0.6657686516722211 -0.3163888992842486 -0.6926644476218007
Ni 7.439692470407104 6.377497643523932 6.848783604235699 0.10028485036469181 -0.6576897313188287 -0.023593985269856142
Ni 2.508986234687007 5.308358699050504 2.4555456908907143 -0.8441399619276946 -1.625258585827846 -0.5786985002255904
Ni 2.5320512761842986 5.193853662932973 11.528610353819037 -1.4386309491008513 0.45013999972718605 0.9189456941846753
Ni 1.3853514592559326 3.473471312485249 3.865086737720891 -0.4800581274428571 -0.07289463127719704 -0.9745959365591279
Ni 1.755813753585406 1.1758250135405128 2.5148586616885305 -0.5562774522179129 1.0121736377025858 0.37067697120385196
Ni 1.3194187942093485 3.7604675005035038 8.282691942436719 -0.36715507409352255 -0.5132333286432451 -0.6648888201704292
Ni 3.916272721554153 2.874263223361815 6.945469050410991 -0.6537675134462869 -0.005977814849989705 -0.26319123221534674
Ni 4.106434009947667 7.3744888465773455 5.804779267013823 0.6506901600725439 -1.3614376904483005 -0.5247724396310962
Ni 0.8370231566546946 8.900308322284978 13.32153321664234 -0.5933075083880169 1.0404547440354663 0.0631465507514977
P 0.4704758136595701 6.0319138807186015 8.035849522038127 -0.40450240439372914 -0.7335583576226851 -1.484285770825489
P 8.61943608048805 1.661111299519877 8.08325178195607 -0.23282496121866353 0.505275250138433 -0.289956673234649
P 2.0767376972316405 3.1135983418301545 10.232534548070895 -1.5974413065052617 0.9971239424583151 0.7073539313131753
P 4.402798377602119 6.3568019859813205 3.7249859757821664 -1.4343976277457942 -0.05428447237517747 0.7350056315921728
P 6.652628685738366 4.061506844960845 10.578090971830592 1.0158629136287152 0.6703290173493939 -2.2327799238223998
P 6.293193139813365 8.019097977478538 10.047178552597776 0.39029577387604397 -0.16697232438991247 0.3216354923951687
P 2.342272734429618 8.854834376385536 5.668573407775986 0.2446543497534238 -0.1827594120208401 -1.358817222106318
P 7.328431667704445 4.239593388200699 1.698211295742565 -1.973886804761775 -1.4791026839626527 -1.6572186836742104
Ni 5.7025786240332526 2.895888408455877 0.49815568605936206 -0.5966098332883726 0.7404370870203894 -0.008474356019598308
Ni 1.5834319578672047 1.5042216296592006 6.920340822270085 -0.7868537266117158 -0.23065752125369954 -0.33375233026336065
Ni 6.537914050270998 1.32241697621354 9.439735031628786 1.1111541674335574 -1.3209762399991445 -0.2301602699023068
Ni 2.797185340713023 1.5726330348429889 8.930803205083233 0.7913292458845662 -0.5571300300261953 0.5402895614300888
Ni 6.637245916063364 2.183022793629472 2.5334920438890483 0.9883878481368977 0.16257882330790713 0.14158062378968522
Ni 4.334332294327069 6.7564441550142025 10.408486823148495 0.7587348568883127 1.2728930113386723 -0.03528402001327472
Ni 8.303542521237906 7.40827079396196 -0.20075699117853965 -1.0013639486815915 -0.4801226621322054 1.3020968865961382
Ni 7.68154278107349 3.9727005117363854 7.974575430367053 1.1070697129515386 -0.6502733842500994 -0.01563436410314727
Ni 3.101405127478761 8.453442508432275 12.274767635811742 0.7289152024237189 -0.7181299388827568 0.4181657608134347
Ni 9.157668984839308 5.062571565813266 9.922323865105898 0.06784292778590252 0.34542873816002445 1.409685726821411
Ni 8.67548112403145 2.492181834639198 5.742104504904925 0.2634748248940365 0.4205399174725661 0.36412734301079225
Ni 3.7365549485916536 2.506853789127795 11.446689814887488 0.293757535037978 1.0640106769785351 -0.008730695004778513
Ni 1.1325017392307049 3.3225506675873246 12.722678712509067 -0.6391685325861896 0.4307042596000776 -2.565443391896956
Ni 2.936751168658902 8.492017901817512 7.665764506538361 0.5888661847872116 -0.23216393059589693 1.3191507567546314
Ni 5.980589379054143 8.02332641653612 3.47228753180943 -0.4030556446448736 0.011813704805476428 -0.5637066548024485
Ni 3.4280064796010183 8.533937771784933 3.3895003451313794 0.2157754619355445 0.4334088030154342 1.5814619003578698
Ni 3.6863057827220107 4.523627846275604 9.724363658295403 0.7243522656433847 -0.7376081022120264 -1.2350039496023828
Ni 7.330281609792137 6.208833958011537 11.251717765764452 -0.2894977313203595 -0.24798110013381164 0.41470762706150516
Ni 8.32813854929053 9.123859698409063 2.252051149942998 -1.147953595650094 0.3162719140904101 0.1286963116278493
Ni 4.376243051279279 0.6136476617241684 1.4343895054041254 1.1465448882280256 -0.6780358990753484 -0.28600000257974617
Ni 6.099860522126664 6.028086414330272 0.2791908904906254 0.623491745280881 -0.44779746763693845 -0.2450703542449199
Ni 8.006686050762097 8.867419450390972 11.21910592953284 -0.2289672780354702 1.0085519817895985 -0.551064797668722
Ni 9.3787507338414 5.10490152146515 5.745305907148306 -0.07577863769321143 -1.0391974745895973 0.21861113161212675
Ni 7.6454825798862975 6.165747622097197 2.4224809378031513 -0.17573618662547152 1.8100345140580827 -0.031012389221114333
P 8.846486854452893 1.7342067945217636 3.513114751253134 -0.46435871442972926 1.3722548356684623 -0.6189298369418115
P 1.9454464870967216 3.2412352328657397 1.296178782820019 0.6908693033945907 0.3310511292821137 2.192193517759605
P 4.826116160151383 1.0375532337544975 8.148233959516219 -0.8131008332337029 0.725314629556654 0.1697041214987787
P 8.628667564896093 1.6435322931791914 12.204824332771102 0.224578147828839 0.1086825875100838 0.8092128110332064
P 6.403542640994995 7.898104474531268 1.1652520932935126 1.1338372108533699 0.9667985520018963 1.1579243337095608
P 2.011151326763048 3.4480095479876463 5.9097074354468395 0.04607159754708194 0.4785584029688791 0.7785979143608268
P 7.106730233668052 4.110516640761885 5.879297303690039 0.5440194607861664 -0.03104169979715299 0.5008637513342987
P 2.528324052963282 8.517106032691492 10.014607724934612 0.47369850377341643 0.07662967283959707 -0.14571547189366518
