# total energy = -381171.4221026566 ev
CRYSTAL
PRIMVEC
9.25931725987452 0.00000000000000 0.00000000000000

0.00000000000000 9.25931725987452 0.00000000000000

0.00000000000000 0.00000000000000 13.55194675595694

PRIMCOORD
 96 1
Ni 7.1357762590969624 5.831416222272649 5.76394079885851 -0.3536544685039264 1.600231467655889 -0.947908657075929
Ni 5.467812088773295 1.9623826844920698 8.063096892929256 -1.040694113739782 1.2232781765250222 0.1859753478549765
Ni 9.190261373391627 6.712403232024094 12.770067170317098 -1.427177198737955 -0.3436945290777371 -0.740402377127712
Ni 7.725585515756805 2.498960125636167 11.158740392435021 -0.12224567090649917 -0.813744894575605 -0.6744551237026255
Ni 7.8023545160074645 7.764215387792235 0.834705237847828 -1.6523325592265028 0.5184323563456813 -0.20617187740750942
Ni 0.9778672473129764 1.688130963538713 2.2264760083672694 -0.18555342982620948 -0.04443946126029766 -2.1921804051334823
Ni 6.136816286832714 4.008256633639814 6.968722433041925 0.07745885360911176 -0.6623760810509044 -0.542613324467259
Ni 2.5714605805828157 7.62364969091547 13.247366461707882 0.06850138730550782 0.30036141350774076 1.0919050893959583
Ni 8.381950745616711 4.724983353384421 11.40540027358052 -1.4659985424805269 2.2508786903056395 0.47912918787068454
Ni 4.565260128885099 4.639547632082667 2.851085483401503 -2.1385837028539494 -0.026037047493709994 -0.190327197065769
Ni 3.182705156936335 6.970275220563579 10.832558715987057 0.6360377002666917 0.7769773480382683 -0.40112346061916726
Ni 5.355218789647975 1.5001853397191633 5.788334470449435 -1.9551493762532715 0.27458147633015934 -1.2921420893762714
Ni 5.049022423794755 1.6959180494403898 12.754713370266966 0.3315563510533064 0.19951451999199188 -0.08488419953890543
Ni 9.34589197961682 8.787786625605424 2.629945206838182 -1.734473391692316 1.2581870725870654 0.12675307185854945
Ni 6.624236012100469 6.248076244257865 8.105825864760966 -1.0186322488437358 -0.12724543811393568 -0.13999451024948792
Ni 6.050750931950326 8.766073526390878 8.09045817573479 1.3491347047112312 0.18806128384972773 -0.2635198191993591
Ni 8.4538771228869 4.7421038311872765 2.6146580738730583 -0.06333732660606511 -0.24485541002063638 -0.6965182741502521
Ni 1.0318583268524282 8.328922635082938 11.698257666841641 1.206400426933077 1.2761752816343699 -1.1126019556236775
Ni 1.9217065033195757 8.523146076074113 9.324132583815462 -0.4827534148868331 0.02856624167346693 -0.2243349214697814
Ni -0.01947049254940135 0.7741196724829608 8.177122608450519 0.6026406128634847 -0.27539677314260314 -0.4774114338486294
Ni 1.5531856723008515 6.262057813474906 8.15880027125404 0.8565704743815635 0.16240733072704933 -0.539639843661232
Ni 3.8830243663149835 0.27421653554738007 7.914892259228609 -1.9547973922304918 1.1668972266321325 0.05988613483267106
Ni 1.5564264333776492 5.049568723519129 12.381004543730157 0.47051290695658327 -0.5231649859346603 0.022772517809825296
Ni 2.662137075511619 2.5374696265458874 6.246742902557696 0.8822843342079 -1.2066305406660123 0.3828002368299472
P 3.4030491322065 0.46961313204835586 5.685434750670686 -2.0621779730997 0.761698824612643 -1.075027082693697
Ni 6.521540923235427 5.773193634698635 1.7554786083732528 0.43398421590293 0.6184343853626317 1.3881766491050416
P 3.272585350571982 2.505886095023152 8.44622337115524 -0.46175495825829505 0.555761688923759 0.5650050618988979
Ni 5.167217609924252 5.622692690292143 10.127668181626651 -0.6038564875484568 -0.1862658825122018 0.0260802420268196
P 0.5096300498246553 3.256946363547092 11.34592027070871 2.4849550074329008 -1.0686409766616949 -0.8239616872076068
P 7.199674808214054 7.971568540803123 12.226078571556231 0.6872610172180422 1.2472485712976906 -0.9018265180058854
P 6.310308116249745 8.243088763134606 2.3690833847224173 -0.8377178604514347 -0.9015735214548151 0.7747518011418594
Ni 1.0449139643332424 2.6588592771653716 4.199070793978197 0.28708243701064756 0.15717256469067123 2.046174655692908
Ni 2.714609627003657 3.195557089435179 0.8301774316576734 -0.6113509961532891 -1.6286840665696274 0.5025375394922957
Ni 2.9502407352389457 5.316366693995851 0.9553096983549911 -1.6820198018782904 2.706694143151048 0.4216238945653642
Ni 7.406037214267177 3.8139868960618273 0.23265145990810737 1.458211185225624 1.8757364842415825 -1.9521399000029866
Ni 1.6407510365959286 4.586815819704486 6.578426465382328 0.790573084444832 -0.07870223909790962 0.007548501771219259
Ni 3.328280144506093 3.2692519963215614 12.202538609026108 -0.01284703116599723 0.5653233644702651 -1.117393720585366
Ni 0.2755267289541426 2.683840915408802 6.591002470223775 -1.196444858382262 0.8516704659767849 -0.4040236649850977
Ni 4.799280115899352 8.254811058915253 5.912768584617636 1.8213090585306375 -1.7427541436438696 0.7838067122552759
Ni 0.4510982010507417 2.844277107345019 13.4710011983686 0.0038944499583997445 -0.28141623986380565 0.20597853044978076
Ni 7.344833126502509 1.2571004810072395 6.587642263953004 0.6946089729426812 0.10785032141677554 0.3678862958325922
Ni 0.04450768669700513 0.6263113375654206 5.7048006129338935 0.9692961216127695 -1.682692916685915 -1.6076686406602247
Ni 4.868317586152508 8.391728584751279 12.271261262488947 0.24292631131872353 0.044224259925698034 -0.268162460177693
Ni 6.915098948401755 3.998793611295564 9.205647581052526 -0.0015961408425262833 -0.5161864977342981 0.7684243162619346
Ni 0.6071130689464702 7.087720401986732 1.3607242794037184 2.8166990490169814 -1.6584648973764855 1.026544047491645
Ni 3.1921311420111356 6.613032238092111 3.2315971304043796 -0.7798263874512893 0.2279177537250333 -0.4924657570785905
Ni 3.971571218250462 7.126118791088105 8.071376574514606 -0.09676321036467851 0.5760638908162208 1.197574344001015
Ni 3.2197053891160037 0.8653804303373239 10.65478445228997 0.6570348713436491 0.2955719625388974 0.07489494953667747
Ni 5.449339750635547 6.708514318731937 3.9136125212212733 0.12390069001141887 0.16194350371675334 0.27747576715881894
Ni 1.8280577675174807 8.554461087393342 6.845142953866261 -0.1462253216505482 0.6182626356714578 0.0761121097732302
Ni 6.4749850755378855 3.1113621166599716 1.9871763585930453 -0.1125613537391997 -0.7894621107688403 -0.21802877674609547
Ni 8.624711528220956 9.106658996927605 10.326949061761102 -2.2010828498294353 -0.40398406999641395 0.6642295893198754
Ni 8.085513700263334 2.214949084182968 3.613681009495371 -0.22131104704179305 0.7104335986797636 0.8166245301162453
Ni 6.518642756901033 4.394546094676752 3.8248740014163953 0.46867791063037345 0.24798238568539227 1.3637825365313934
Ni 2.8055268641838795 6.609930366775747 5.976625466806596 0.8382446794891821 -0.6768441927600924 -1.29758202944492
Ni 0.36767175161660337 5.036476048768866 4.648818986557519 -0.846851961542219 -1.0324760967053639 -0.534837280066266
P 8.505433001960071 5.546210728879715 9.402421963977009 -0.4655270237062176 0.11167380892792379 -0.27808666126994047
Ni 8.686461915709998 7.542741775803871 8.591771506704648 0.387256729939404 0.058040854093816166 -0.9716620507417846
P 4.962734845295672 5.986259786522049 6.414732845598061 0.8220019923780746 0.11501187216222128 -0.7260551072671044
Ni 0.888599094554976 1.3995828565779966 10.269082957905537 1.5865771100972481 0.3597770364618965 1.3650745158699393
P 7.318805185397141 1.5098242890932965 8.718319523026658 1.462269671565714 0.03156363373889403 2.523674792600602
P 4.582417643957403 2.286912498722604 1.2706153806292229 0.1476358288448296 -0.14423708757592577 0.07631548403328792
P 4.531787696620459 8.55266477982506 9.817084751207181 -0.051527478455330615 -0.8165790215902905 0.6390137521758801
Ni 1.032774999271294 7.297814312936855 4.022610427414819 0.4002276882777752 -0.8971216563310483 -0.03465435684907581
Ni 4.142053769524752 5.804193829227547 12.577182626616509 -1.2605985102420354 -0.4415846539580073 -2.4543097717432185
Ni 6.036074913931112 0.8195486612575128 10.725837675932896 0.08617823575998061 -0.6215909287137423 -0.908527841285461
Ni 5.267764537161245 1.8658357823555811 3.4112825172050396 2.5471407369330263 -0.7716554216047227 0.660703835554804
Ni 4.705307303989577 7.0574794714815265 0.8445895591320614 -0.3878969346265642 0.1338212915592405 1.665319458404474
Ni 8.594803933140794 4.966160792719715 7.3528257692496295 0.6113337697621085 -1.3314578562567585 0.4283750972462687
Ni 5.818332806839748 4.070886656278272 11.830321458516362 0.5421448694712727 -0.4609306625847869 0.16767423555294347
Ni 4.56274159456256 0.026709426863231467 1.3517297785179998 0.17241355001014178 1.2611579822899313 -0.45496338925775837
Ni 3.9868305732634988 4.822261741592529 7.8930337887314765 -0.7840980182434496 -1.9174534043643945 0.7394335854565395
Ni 1.052395492761964 6.415142107425473 10.279192280601674 -2.220399804990492 0.5825422994517129 1.8351197391614849
Ni 4.580991709083612 2.922453523834745 10.167388801247357 -0.007639004602496521 0.3345830536947722 -0.25181590049886954
Ni 3.246751855131222 2.378663074465432 3.2025821335179403 -2.534065134695991 0.8137006716012309 -0.08417328951480987
Ni 1.7757055871511525 0.22714494387275974 3.911864362103275 1.9937341785050051 0.7579961789500752 1.5796035069928924
Ni 0.43432309578549994 3.182908861918305 8.896568789704428 -0.17002473806299104 0.9093444236494856 0.24852514556273975
Ni 4.4881392745746735 3.8289314342845464 5.144848025108721 -0.23418481768066765 0.2743205093592888 0.1976890367474789
Ni 7.402916824316089 1.543833761764949 13.282276865958885 0.1797368231444324 -0.6123817514106485 -0.621256171082143
Ni 2.308551523398251 4.6133252453126925 9.88426109867052 1.194622974682175 -1.3692756984354806 0.07347852880512507
Ni 5.005290667892709 4.526167290981555 0.6091121555649864 0.9127920158784537 -2.4561499102757507 -0.769602652840752
Ni 6.339150889833245 6.223326088948491 13.030034542375665 1.549211010743964 -0.5957138038366644 -1.552447772513707
Ni 0.4070136651571928 6.655273243898829 6.166420176303394 -1.5939949998278742 2.1631397949267583 0.57898543533839
Ni 2.809897261978875 1.0431546940344092 13.106210020383404 -0.8242686769250644 -1.005373584061617 0.64860705229127
Ni 1.459453602642496 4.292915827308373 2.573148554137959 0.6614972779903769 0.16005271445194372 -0.6816845515715292
Ni 7.11752614457591 0.10724048775818501 4.214397742007979 -0.8475338181005919 -0.04418055117195617 -0.21441714813543716
Ni 7.4527134330904286 0.7406879812147145 1.8231031067969252 0.018871125872890082 0.3618686288836026 0.32988693377068345
Ni 4.303073298454793 8.949926531936299 3.779190381414381 -0.3641471405051342 0.028735420261479544 -0.9678614460487718
P 2.481330385378387 8.78919404184449 1.892204466339881 -0.8373512211406353 -0.6376664941193663 -0.16601381713138505
Ni 6.635680528360246 7.571436400309576 10.039119477827699 -0.195109963166393 0.20350667187052046 1.8065545259292826
P 2.6135534373117384 4.679584920357164 4.3817506440138185 -0.00648175106960174 0.13172944202721829 0.28004198522409834
Ni 0.2474237748278881 0.08307737316958043 0.10766641635684988 0.23998522641252865 0.5581227329567678 0.4652835402368438
P 7.666622182793809 3.6898935247725575 5.420534940253232 1.640250688361304 -1.1493882712140915 0.6345924831797328
P 0.13774067914953372 5.009077728693882 0.7036025633153126 0.3906742402613852 -0.4564569430841494 -0.5970330368687202
P 7.840567718761592 8.147291865704462 5.793023388761693 0.7809738707921712 -0.5448144458836359 0.6793731298295332
Ni 7.830400988297809 6.968590024803644 3.682280514037291 0.6673329108355476 0.28451519050410357 -0.1738680230684812
