# total energy = -381171.3329438771 ev
CRYSTAL
PRIMVEC
9.23572846116052 0.00000000000000 0.00000000000000
0.00000000000000 9.23572846116052 0.00000000000000
0.00000000000000 0.00000000000000 13.51742216464607
PRIMCOORD
 96 1
Ni 4.223831005732502 0.46583627832193136 5.8008934803607035 -1.4564139841158852 0.04967628417920477 -0.6914318607662802
Ni 5.433120317237809 5.3354617269352405 5.681385927784748 0.1315090984862961 0.5555865967984754 1.4533250607779165
Ni 5.384484972379352 3.534808736871823 2.188714277388852 -0.3334751653425741 -1.4136663087357138 0.11703533035015327
Ni 8.294709116250248 3.5558939044205995 10.135957749748027 -1.1380509918244013 0.7671521344177304 2.300453930130606
Ni 7.539254254232166 6.871806646516446 12.562347951695457 0.3892879014368199 0.6560223709187347 -1.1054026096617608
Ni 1.637171364666617 9.087901163815548 3.3194869689208035 -1.6483172674195226 -0.46167294006745 -0.3075954693623348
Ni 8.589661332999144 5.63282446875213 3.340830736860016 0.4401607770272871 -0.3703193307541171 1.1283054824018632
Ni 5.425500841448173 7.26990347613645 0.1674927021670296 -1.129158574430778 -1.147050109999218 -0.6907587459586555
Ni 6.977888220964649 5.890704472386357 10.264954089507341 1.2825660156520622 -0.6447177445391928 -0.43059550193635515
Ni 6.887424262953144 4.1615175473656185 4.105200847338384 -0.10712321344276389 0.38808153983354454 -0.09295617791376248
Ni 8.734920866598426 3.133664116935965 8.09319106771158 0.12690065318000726 -0.5773293877922057 -3.3457312923656963
Ni 3.5782813096497867 3.6277663415053913 12.13463029449664 -0.291506277109956 -0.17623832307287066 -1.3379804878666248
Ni 3.2623362826344127 1.0536672908321196 8.137339695795971 1.8148501902791712 1.408705879406645 -2.9616560454780667
Ni 0.6812051484869235 2.6305662930706526 0.6239251620053147 -0.03007547922914175 1.1222875583425576 -1.5250529254405218
Ni 3.746140670227542 9.036282678738845 3.575696229318248 1.9440964608732196 -0.060470032360599085 -0.07930439145828277
Ni 4.238247977499318 3.7494655323902926 4.543205258639624 -0.10350130041946046 -0.17123572765195672 -0.11110482379833124
Ni 4.0663803108698025 6.552407457143103 9.64054405176996 0.7519270899378598 0.8747903398236999 -1.0569378292921539
Ni 8.014275464278697 1.3934682038652293 1.0687141392642119 -1.4528954294396654 0.5869363147543505 1.2958326508539812
Ni 5.316510012607562 4.325220830239935 9.640747237791016 1.6212054988043951 -0.49129461958862486 -0.10544839684350225
Ni 2.616075435477998 2.1151295362902434 3.5552437091532174 -0.06430740382881828 0.5146821452746297 0.16610457707297843
Ni 5.713221482993086 8.451633374603846 2.268169247350361 -0.16386283222665327 -2.491784885870541 0.868638204179375
Ni 0.9978003707696799 6.851894416452862 6.591135636329387 -1.3013674646292814 -1.2463494565221889 0.0896170862382005
Ni 1.888281579508355 8.698024132320123 5.635643213007884 0.8187760292416093 0.8938059616942542 0.06867519387921076
Ni 5.780771599266301 7.632996895765272 10.959628624044697 0.8110969154297967 0.8288390699045661 1.5012943895683435
P 3.212140099705109 4.451556356696227 2.677557678304194 -0.20156985985912385 -0.1915965506964958 -0.5565013953032609
Ni 7.852133019475226 2.025450615178276 12.465941726140858 1.841650341191151 1.1845542775922633 -1.8178277848502562
P 7.8182471325998595 3.657856344078284 1.0384745178939954 0.438994781743644 -0.08155179273156277 0.347911138262246
Ni 3.043578823781884 4.427377220190447 9.520009486214844 1.9523705279565535 -0.78139167505588 -0.32471053177606657
P 6.95023645064444 4.270609969216757 7.963478035441628 -0.8910517959878846 0.2744912306091982 -0.18010012002112208
P 1.9012208347583928 1.2259690366884386 1.5759421807939191 2.146559264860258 -0.6175177870856333 -0.6336370612449991
P 5.248516581379312 1.1521570966753758 2.4664289309695318 -1.8979140487798862 1.9123741900692743 -0.7892618218325762
Ni 6.749267004362627 4.813273652818801 13.140204377717394 -0.5025262266383861 0.43545900067624355 -0.7853156927006346
Ni 8.738495093423381 0.7983640553740241 8.78099791473721 -0.1563259004196598 -1.1094322996464443 -1.6126959186714873
Ni 1.7141788666472124 8.790686193650336 8.120848379468727 -1.9486293157465666 -1.2373721927242431 -0.4916939119095725
Ni 5.975830179481003 2.640882601503409 13.294708875274768 -2.390210370160148 0.9068666515329542 2.5987515191307824
Ni 1.0354821419475198 7.341249476712139 12.85482499327875 0.4549834438624164 0.010037072521027875 0.22192399803544363
Ni 4.79048911127573 1.2899079832237785 11.923204156712975 -0.8327399476208691 -1.088553656425222 0.26283950530288286
Ni 4.257190456098766 5.069186446340068 0.6427494232834209 0.2633131025051917 0.3141448404450783 0.2008095846543316
Ni 4.892977987442517 5.648986993154391 11.687973852989662 0.02026389245535865 -0.24693774647096178 0.8922100779620441
Ni 7.036488916583129 6.776752531574699 4.710673024340434 -1.6800184551775452 1.4823559007926277 -2.3300023332116844
Ni 6.893898508442278 0.6116915163920386 10.704919245911784 0.5413146602604935 0.4862940810502399 0.8116216775850151
Ni 4.865215388383549 9.161048131396061 9.72536590340584 -1.4373137729513246 0.3488195090091283 -2.0301695385139036
Ni 8.48553773293567 -0.11002153611106279 12.819220337379807 0.2801101194578724 -0.8465256885510517 -2.0605725762857934
Ni 9.377219586344228 5.907892162622132 11.01495525400569 -0.8810676881919793 1.4304766954248331 -0.8934958866530031
Ni 6.220198312714941 6.316342243587812 7.889335456357935 -0.10628040582649438 -0.7402067161771381 0.03405940357755424
Ni 6.608542213324209 5.536985316910845 2.0403598512597436 1.2503410941800852 0.6058604053523631 -1.2579885834230142
Ni 4.024052968392342 3.563162422537501 7.582935554468125 0.6541619206712282 -0.6263006754845859 -0.7748163358312076
Ni 6.910051797116308 8.360984702027743 8.724090128103265 -1.3983137375390433 0.9625297494232133 0.28183532967909525
Ni 0.16830729339690348 1.5389586306702567 10.799108896691214 0.5367262695588628 -0.3236589505831007 1.2357192305018525
Ni 2.7122470735355586 6.740899434586371 4.31036793210067 1.4005313140156523 0.6364704169287361 0.6496205811574489
Ni 7.87609973423172 7.810563006712614 6.549326418205621 0.512875173972878 1.5007786262741893 0.5501479422814073
Ni 1.89198510652853 4.93717094702241 0.039120697636052554 0.3176970765727109 0.4345182340295291 -0.4041262520012331
Ni 1.1624918765645922 6.904390295711401 2.6953336844282108 -1.5113756850637454 -0.7608539601138444 -1.1091461358645929
Ni 6.522132740005612 0.2494219237213189 5.027831626045211 -0.5311837424740787 -0.3709914171204772 0.6780484974808387
Ni 1.0330531454230658 4.403419741162183 2.1254929469369723 0.15907081015464863 -0.13926277428978598 0.25069824195465856
Ni 8.721298167459377 7.10567375675303 8.68534901889746 1.710939313126118 -1.2590872158038315 -0.16506508006487058
P 7.401798910987119 7.773518500782633 1.0564444743108392 1.431077819343942 -0.31375223299235 0.3147436503713418
Ni 1.2011156920218782 1.6879678699308622 6.497284013203168 0.3648220550849717 0.40652226303723543 0.3675448533327735
P 3.2396718055583293 7.079111802363944 13.107722321532968 -0.11156376571262076 -1.3290304777621884 0.7921028908257971
Ni 4.272632593699097 7.660676373270171 7.34481262066322 -0.08012971557305555 0.5172177672122898 -0.43976199892697165
P 3.2603875439779118 2.4337621602205073 5.844311562342111 -1.0310614757460241 -0.4885242559323393 0.7444346382155567
P 2.359516140980641 6.754365126345512 8.32067628974133 0.22307328114853842 -0.8827347914817573 -0.05062759234888055
P 4.784199580351193 7.62980133379774 5.037834843290976 0.29986801881109 -0.9515249136722775 0.024797775769970196
Ni 0.9927668988844047 4.916187372484162 9.056496917115547 -2.115197719829841 1.028961398683886 -1.2311041003273444
Ni 1.0684536917281298 4.222501060867402 6.766766862212571 0.5043013162609379 -0.01787096674314987 -0.4882139237807721
Ni 1.4250082157702106 2.2379924289321074 9.050224934074647 1.0947644132216243 1.7106811743687247 -0.3600506018382573
Ni 3.4746841460954165 2.7477030342100015 0.7178220401998601 -0.6373026830220443 -0.8066933870454623 1.1406164385587325
Ni 5.553831285202115 0.6846907123208736 7.489881898260966 1.104345114931524 -0.4687460448641475 0.28237423290170083
Ni 2.5081097724709025 5.939118159767299 11.299145076648328 -0.5368375983257464 0.34812865358969075 0.6400409078888138
Ni 8.963052589604263 0.3749557889672591 4.938103755573626 0.8098468450727796 1.5251627115455089 1.2479540820051476
Ni 9.219990548959045 4.212969789334184 12.328997118666923 -0.46529459598043743 -1.4332884538420154 1.4463725407194834
Ni 4.872917985727255 5.752805814186278 3.38464041371837 -0.9194380604400616 1.2059515123211166 0.2762984590212661
Ni 3.2043174378944146 7.149386458464971 1.7471264035344247 0.9608299931232872 0.17042660148710004 0.006413873946143793
Ni 6.292708015047593 2.7613534405337385 5.9077757924464365 0.3036028032631739 -0.26846790723325376 0.9376491841314497
Ni 3.525859316217086 8.385311610185202 11.502028165819368 0.06345276913800685 -0.5712849813703388 0.6056169218829892
Ni 1.7645043497717345 1.0528822539325813 12.467645717999268 0.2006694595320415 -0.24722648135597425 0.3605905335021274
Ni 7.898043824505873 8.843071244170117 3.1936529425073927 0.4667696378640671 -1.5842340637863683 -2.357605696751249
Ni 1.656815758611535 4.605054159876546 4.370452809245688 0.3036981911904576 0.051147983628724816 0.559508814671017
Ni 2.505246696719645 0.46990554018000885 10.064667163541717 -0.42470356193195247 0.862015813766851 1.7778813263643058
Ni 4.319152956792915 2.1373599341395226 9.899118582167072 -0.1071124148094865 1.587332500206034 -0.5927362092655792
Ni 0.20212391231054588 1.617323784700642 2.7926320813298147 -0.34903496745404405 1.087231595179689 1.732135744698075
Ni 0.41912196493528564 8.903149656305375 1.1813927943870062 0.6659172614349435 -1.01676511372801 0.7265420742058519
Ni 0.8593521867399226 8.17755390365444 10.473528234413624 1.435519142944747 0.23315843329868235 0.4318640842361337
Ni 7.948489372097383 5.473628221253987 6.2243811740302455 0.9483254328983732 -2.323230304595173 1.0302523495811677
Ni 8.748608215835082 5.888293947318363 0.8283376877712206 0.6684582826892422 -0.01644297604737168 0.48465680255713306
Ni 6.675565893088323 2.0729407297362306 8.80907360498317 -0.3768193366561639 1.3913478477441716 0.3630618778607554
Ni 6.227780845591657 0.2562498976016564 13.681523339289171 -1.0013680624466497 0.33478308552072017 -0.6818467881810063
Ni 3.5555706539325542 0.10849025237055153 0.2864054738449812 0.24054469846042445 -0.24243934437997597 0.9413919390033335
P 7.8925670376655646 1.2693861950970236 6.616805419371467 -0.3831565917281014 -0.0320778543711512 0.6139436965811298
Ni 7.001411620766109 1.8337630757674752 3.2534542827957535 0.906544235196529 1.3638529847580125 1.121825016883842
P 0.13772410293653603 7.51003241011288 4.562643695845017 -0.08304817477143117 -0.8051898059167424 0.024950756408066706
Ni 9.100138503720116 3.0942645003073705 4.821299500650552 -0.582092613508804 -0.3309786241729655 0.19421573348689777
P 1.6202422748212788 3.854752834210728 10.916737902145215 -1.111783830597756 -1.1496988604759748 1.221058028945252
P 6.283509229730649 2.9204942736625035 11.187748340603838 -0.5646037126954212 0.44751310362730023 -0.9557407515258379
P 8.083580368915586 8.0106273516279 10.616163897622801 -1.4981674139035874 -0.7242645910255849 0.7487777456756007
Ni 3.058854718274077 5.583127015147239 6.49390466024386 0.35458315096578286 -0.16619507990425572 0.05167608821805294
