# total energy = -340855.64470147114 ev
CRYSTAL
PRIMVEC
9.46584723350549 0.00000000000000 0.00000000000000
0.00000000000000 9.46584723350549 0.00000000000000
0.00000000000000 0.00000000000000 13.85422424873630
PRIMCOORD
 96 1
Ni 3.2179905126880612 8.17620132268814 8.342751012569373 1.193917721085034 -0.8553540854759593 -1.0033156730913237
Ni 4.5511320473348365 1.0924629014755995 5.2671684928365705 -1.6710856714642899 -0.2584694012596452 -0.45456949625344945
Ni 3.5309314240637826 8.415734588337342 1.6447316696143501 1.948558096188999 -1.0016136027985525 0.24502407438801674
Ni 8.34127623356174 7.377567786911685 12.814007400725087 -0.16135163576902534 -0.0293231744441495 0.4606218730951164
Ni 5.55178569595402 5.724556340673611 11.333171197412122 0.28856493509344494 0.6752375103946049 0.3761374800977909
Ni 1.9450233692577243 0.35180010766669517 1.211069968007293 -0.4969065664587636 1.2169278088269622 -0.5937538518968161
Ni 8.614261803530415 8.182098545549213 7.224008079265206 -0.8232718602294339 -2.4445118118161897 -0.021733277912033538
Ni 5.362790588981012 1.1784317265546769 7.332029488773563 -0.9468642749718144 -1.3950052419911005 1.9390797243849185
Ni 5.823048481716091 8.493136821619837 11.379846343809659 0.08509194467433732 -0.8552864654628173 -0.15151099552951972
Ni 7.398553570351491 3.7614721347883946 0.6600336531855755 -1.8905671214965118 -0.25194728387041126 2.0227753029323616
Ni 0.9920018641969993 9.038861849527672 6.338501729993571 1.797420424838498 0.10770453986753063 -0.5287638201786764
Ni 7.186755237259182 1.5321136446624335 12.038323811700915 0.7025683369990738 -0.20082218305982188 0.8817081499894557
Ni 8.479411343050726 4.1110458751727075 11.685442704273813 -1.6551013802208916 0.4004359476338394 0.8998208004297664
Ni 9.195322839368243 5.305626337202488 8.255330126516156 -0.2847501893330451 -0.6714937270814564 -1.2613004214050665
Ni 6.022323498844997 3.334325775870385 10.824555130631518 1.0019398757897195 0.2742469758088761 -1.641520041992031
Ni 4.3844763399639675 2.6197962932570666 8.945699927093653 -0.6044781802928557 -0.2605651074464093 0.3181393063164521
Ni 0.0023967525335853754 2.515435326895381 10.166977864817447 -0.5824818785274226 -0.4363514305835259 -0.974524202780928
Ni 7.9537539113956575 1.3639812651144736 3.9253174320991473 -0.35601705519883203 1.781860365616712 0.6381989695840686
Ni 7.829344280475783 7.980788371253162 9.423477209991288 -0.6650615983028675 -0.39153864514420955 0.6293327774426903
Ni 5.622315724104671 7.137589626439899 -0.12406602066328375 0.9898536340491468 -2.158166767192199 -1.0956619853352292
Ni 2.5299559366367714 9.143771835032123 3.8388535432068536 -0.7465352294983273 -0.1951369597495865 0.7676599272920844
Ni 2.7893012206619376 6.27864917758496 0.5549201519644112 -0.6942503040516818 1.0806567701756487 -2.0089309408501017
Ni 2.2818655450382757 5.5070595675132985 4.048245657918288 -0.7020137500471846 -2.527982161726704 -2.232358262903949
Ni 9.05835202909581 2.8426318042883993 2.282636065007604 1.324588897051067 0.7430292732275978 -0.7291257757726282
P 0.6493126345460069 7.341654362297062 0.6608808465179448 -0.694080868353353 0.2435122657291806 -0.382957845453734
P 5.635047288708432 7.094131921535908 9.352252388649623 -0.7101862585556479 2.772424395469322 2.322269483343801
P 0.441942424815511 3.211534804836935 7.4845924427005075 -0.2100557858429479 0.5589866236189598 -0.40421186973650386
P 6.747416867032887 5.041178961488529 13.021239409085164 -0.13535572592589593 2.3054004755026036 -0.49628924458973883
P 3.154815447880997 7.965254915851844 10.76406741986981 0.2718003140405964 2.435500095235883 2.5939556404040363
P 2.1154086204604763 3.6633870251793437 2.4920007287619006 -2.607097062882 -0.9438799955325099 0.34404291355609135
P 4.0845982978471245 8.38987389354368 6.176116066334788 0.4526902769528655 0.7561917787514847 0.4620809741391461
P 7.2360060407040665 9.039429800365015 2.962795056114411 0.27059343821668885 -0.7920000466993457 0.4594260530148023
Ni 3.726618885070143 4.594996783672257 1.5786884530787055 1.6871370685001974 0.35502486648889175 0.6382501345369782
Ni 5.858621135828309 8.345658920856566 7.578135838780276 -0.1511852367589848 0.10539826033185719 1.2320487236288007
Ni -0.07405605626581828 1.6483637152191553 5.815920698707442 0.36809069853391446 0.8594174569120554 0.7059645071648165
Ni 3.5949300175849936 3.9859073740115747 10.916630373796755 -0.33457148373054635 -0.552032818008946 0.6980231408305527
Ni 2.3468485866775475 2.943698655793498 0.38846796031025627 1.180966817351321 -1.0604869800959928 0.2882877701726584
Ni 8.82294587286463 6.949399116486459 2.9529590941963675 1.8031691543968174 3.0110515651920595 0.17175971847622676
Ni 3.9840331362483448 1.2583708069106345 13.685424782891713 0.326018966174845 -0.3593355780491037 0.6029892544521551
Ni 3.7038819198818644 8.283752279586233 13.155639295233895 -0.17697905789363713 -0.016118245718101276 -1.2587748267697354
Ni 9.238714283341212 9.48884929795414 1.861675637292983 0.4869520263492129 -1.5113335189719002 3.0756803569160387
Ni 9.333798719359635 5.964326252505039 10.458706759003155 0.06688004965200095 1.0286891188591056 0.3591784836459492
Ni 6.527742948996093 1.066488616514469 9.784102327085556 -0.8129316546456903 0.22633164018483604 -0.7404046911205571
Ni 5.7825630528608585 6.716084912506158 5.859477795007967 -0.10532189856796702 -0.030818785153069506 -0.1928571625764743
Ni 7.447539330072283 1.3905140350656577 1.6540697279649899 -2.161560366254781 0.03452323058785022 -1.4343567472055296
Ni 2.1965498634221423 1.4789155828980187 10.636151639114074 0.2534513792197635 1.1775665334205203 3.200265474588992
Ni 1.1068888527440992 4.948186477720983 6.161278350709216 1.9642173999928108 -1.1007234590185366 2.9056324789245958
Ni 8.122350117460782 3.8604564998899047 6.0199371587434305 0.4680773009318971 0.8418784195870275 -0.6342646675266689
Ni 2.5133433746445033 6.2913902080360105 9.967435910794988 -1.4185511476318409 -1.5089840449031173 -0.5841638942155358
Ni 1.4317756633985907 6.978847367402668 12.204269580525107 0.5412951198764678 -0.3656671766940864 1.0609991438457211
Ni 2.0805459048949353 4.267857101362973 8.87061020030387 -0.4910799324746575 -1.1852947553027133 -1.18226856688188
Ni 0.27125237333005203 8.541545164655997 10.98792429582363 -0.6428899473018348 0.7063985093784414 -0.18253701159738886
Ni 8.967148590465893 8.943313586992085 4.505851220242977 0.6519615705857998 -0.45415374887226945 -0.4359958470163201
Ni 0.5916618382168268 4.124515775865014 13.745676794055921 -0.019009965443599522 2.030020671640865 -0.8844162929492383
Ni 5.014049843158136 3.654195687461684 12.820214156792511 -0.6788285701799729 0.6969185949124643 2.7388640430153735
Ni 4.88103575705252 8.56550322414456 4.154798914512116 -0.4083793708506322 -1.117637461165056 -1.8558443733033458
P 3.75074732980991 4.188627959553693 5.425189454310376 -2.1140780044031007 -1.2197130848815834 -2.764528794771329
P 2.550724005588929 4.910455610426863 12.743351476805493 1.344531401611265 0.1645752849126456 0.7212072922564998
P 4.5084032126721025 1.8900078648138139 11.69448921452795 -0.3707019109045164 -0.7938579258436909 -1.7539027040615216
P 7.688217963243458 6.221380801486257 6.5498059458573925 1.8919344341576836 -0.370443257926491 -0.7908816168241863
P 8.684611980582572 2.774373579487119 13.364989760217258 -0.12089995551188211 -5.157744270306388 -1.1735736102110432
P 7.849307752408371 4.148379176880688 9.649467687924057 -0.26746954787572647 0.033246934978587904 -0.7266662584885422
P 6.600279736772022 1.8616576521831338 5.772888956931458 1.5463041215098143 -0.11119995461529882 -0.6024840326809624
P 2.4099952539427454 1.4005572990393311 8.730710656880207 1.8467786635566519 0.5917545620786001 -3.5091606365993564
Ni 5.201057122200445 4.576008294010439 6.647312692197082 1.866293850771444 0.19580904611594666 2.396104624157396
Ni 1.2927980935008796 4.10311349514449 11.345737109688326 -0.03626926674467947 0.046717458661196955 -1.0692459572355457
Ni 7.7636607661371215 5.952039582723862 1.4533909256831177 -1.568969424317814 -0.7913932663532822 -1.9511803643031944
Ni 1.9245960708079723 7.119064963295244 2.5303629680702007 -1.3215601375270725 1.528083998957362 0.8414811841486088
Ni 4.567867665341863 5.2320767037666345 9.219722953925206 -0.35225964503892876 -0.5537253752200205 -1.2953533972247173
Ni 4.096051973066865 1.083517675787455 2.4559244915739047 0.9140006914745742 -0.7405113919017504 -1.0271945365914503
Ni 5.864234383270712 8.814464473693647 1.2616138061918603 -0.07377780521309875 1.3115824574890702 1.565496378167549
Ni 1.2490280156363505 7.037422030427258 7.482805290732337 0.2941799672873773 -0.8110503784625773 0.2222749536169591
Ni 6.79202940530614 2.8844708493059636 7.650594060023704 0.11889860881113716 1.6636333289513028 2.2260644594754377
Ni 3.495017999449158 6.304273226196396 5.553355133434543 0.7973895931460331 1.7980565157606003 1.715738534286974
Ni 4.282614357286589 0.1084208682639555 9.88871603156986 -0.13863336823590316 1.6334750602003674 0.16088215233177455
Ni 3.444697555260612 2.6525859882663076 3.855852311768514 -1.3189075303955737 1.457272732571755 1.3352733733481068
Ni 5.208440483085898 4.898784220719475 3.695392948033052 -0.5072172043561523 0.5047656574918661 0.22894413810701858
Ni -0.015795659371224 5.494801295273989 4.4772700409384445 -1.7296106642833762 -0.19042027100020753 -0.009276797316235635
Ni 0.6842870471095583 5.2296913102497955 1.7840358112435333 -0.06550219546786784 0.06792006088074108 1.6568792980569207
Ni 9.10357984744285 0.3292619252714867 -0.2236599863302078 -0.580431166645981 0.8175753240652887 -2.640315201505182
Ni 6.806483754116506 5.775283816295586 8.428383800069689 1.261901288213859 -2.141912510116866 -0.5723077662078982
Ni 1.09641015979513 1.5950425974399831 3.6149692162958953 0.6040421211967016 0.1923668532036171 -0.2712094745341329
Ni 7.832202966357072 0.7356137108649295 7.43200208833205 -0.27489720779836524 0.747502478507603 0.7287840761624933
Ni 5.865748918836958 2.569901812196528 3.887675543769544 0.29686728431155324 0.6343777960657655 -1.2604151905866356
Ni 6.8359509367272935 8.833481360897332 5.43961161923996 0.23703102888021113 1.221544224553051 0.09364831888478066
Ni 1.8792451964461734 9.672108101469988 12.525479856092534 -0.07451802581323295 -0.37752176203982724 0.5767971694378196
Ni 6.663842901317936 6.980986648889992 3.7143038177470995 -0.009855809748157219 -0.03431214301830865 -0.9763165187946605
Ni 1.2051822109935089 9.138565619023149 8.874476052336714 -1.6301465100477666 0.15777420283041216 -0.10765620312809845
P 4.811083145586502 6.784948951533937 2.47552826130951 -0.1857182375388479 -0.13048374254557527 -0.595565194073942
P 5.046025475300519 2.9154241699411303 1.6742556473088714 1.0971108019666138 -0.9998266861014588 -0.2066418750653925
P 3.1745612053259378 5.936809034435795 7.637888999792352 -0.688198441430647 -0.5326610983505536 1.4057455112267403
P 8.038369120312403 4.308579176400431 3.4274242771275683 -1.3758235268563273 0.06420995901900554 -0.5166276990367747
P 0.9611053386455669 7.467559597088606 4.651181320256364 1.547375243086806 -0.6812230385540784 -0.0737693205726665
P 2.144837939682107 1.2399124046970031 5.623014303634602 0.7604662377571225 0.3564621131560506 -1.2445455705442308
P 6.799980717028935 9.15465755941452 13.234663028157001 1.1570265044856396 -0.5753455245929575 -0.3366728463442653
P 8.536793309316897 0.556888101615803 9.664845903429836 1.1363098407635785 -0.4686596557979284 -0.07163427650753469
