# total energy = -340893.50261043187 ev
CRYSTAL
PRIMVEC
9.05105761752417 0.00000000000000 0.00000000000000

0.00000000000000 9.05105761752417 0.00000000000000

0.00000000000000 0.00000000000000 13.24713771817451

PRIMCOORD
 96 1
Ni 6.426495242762418 2.06708052446186 11.58475449067546 -0.02842225989643492 -0.163870288425821 -0.2934631437260107
Ni 4.811723217507724 0.2823414046948971 6.219584446626995 -0.22072920639639407 -0.13177057967779887 -2.0582516414621006
Ni 2.76841077018588 1.472507502601697 4.874867015435982 0.6297536670301929 0.4313133539389862 -1.2001996974390041
Ni 3.3947077487771002 4.062096528669033 4.960271889421313 -1.01871632391711 1.037763056135916 -0.28950981550521754
Ni 5.095012267928652 4.520306317402205 2.803518012231079 0.058616266981311956 -0.7399323794698289 -0.5784120793334232
Ni 7.076696064356983 5.991745795212385 2.5741171482824377 0.33522145860971947 0.37062400647872945 0.27080015491085624
Ni 5.366697862563786 4.368900226618432 11.735692641783627 -0.8916562623411031 0.30511152659821644 0.0089518098766491
Ni 5.587263084127018 7.778071565368779 12.660382170538178 -0.6376122438426632 0.998593842135622 -1.0412867530184584
Ni 1.895952179265256 6.635719489208956 0.18860322201847315 -0.18592366868143465 -0.28318387328718975 2.1315995582266325
Ni 2.7412485464626553 1.5597415953189375 0.29809205505249636 0.5116258749468092 0.2500243558160855 0.6452245089722823
Ni 0.7458605437899624 9.075314389471135 4.6041489788535035 -0.12915628198340337 0.3343411128872951 0.11683195609009557
Ni 8.615701686816903 2.3352814619382323 1.4341744636438158 -0.15610504265810538 0.7365668054317056 -1.1002462622718021
Ni 7.071627472126058 0.7439263327904112 4.785409077877424 -0.7395641974971328 -0.7412361858829171 -0.5573624577519756
Ni 0.6206464033594944 7.331809172608502 2.476406456445027 0.7710149598072463 -0.6053400140725188 -0.036623564760304664
Ni 7.750492992998014 3.8921810251848292 3.558816998839628 -0.5268228944022217 -0.8542474826753418 0.4809883525666104
Ni 7.792037347176489 3.974744772203575 12.63089382502326 -0.6407538747954384 -0.9483997377797343 -0.5442182070605337
Ni 7.845619607903409 9.11278576774976 6.978645052755494 0.4185894786144146 -1.095799539354358 -0.6846127809619177
Ni 6.893430250978824 0.6745961370231573 0.35308537565227666 -0.07148001031785753 -0.08957543436698767 0.0130617182799646
Ni 1.8258426874424976 6.436759142030041 9.133954381159915 0.28177799407859855 0.5336052074313777 0.006908039973742942
Ni 0.0300124017473644 4.842931263958134 1.3365696691798006 -0.2395134289824327 -0.5568883463290345 0.7650829105935275
Ni 6.457196429989735 2.1181103869582083 6.766439387950267 -0.31951304673552716 0.08941988262572986 1.5920504745069937
Ni 3.5956774307332746 4.346218276385042 0.7014506247895044 -0.5558887014199265 -0.3543764342716155 -0.1575705714600383
Ni 5.674958780779576 5.748145632171109 4.780441857491118 1.3862835458473868 -1.8982814594216342 1.0591456355767501
Ni 5.556136497194607 2.8386288746993014 9.426477320498682 -0.780223880000024 0.8208015443120702 -0.23360220570432028
P 0.24655171291003378 5.536948255177533 12.57032776828673 0.7088914510036243 0.2530978525350867 -1.6903208655448179
P 3.9817231375786517 6.056868154322216 12.722603665701557 0.6037317890451345 1.123752058703226 -0.6075365075032053
P 2.3216234160874003 8.424941597783022 1.5216855187222464 0.9321598788821044 -0.2154831275061063 -1.0122659403060759
P 6.408655608321074 7.614772384957443 5.804829690322206 0.17614319225590308 0.6063005782135752 0.8168158201914448
P 4.8117503706803895 0.9053863383065256 12.638113853635062 -0.5432021070911935 -0.18632321811269847 -0.4929000164025317
P 4.014361251122787 6.304948590853328 8.278560654153909 -0.8539469207157874 -1.0148640400505555 -0.43361063461359517
P 4.791123010512036 1.0321282972523151 3.777686052217012 -0.3361087463106792 -1.5899825362343714 -0.08378531004777183
P -0.022462009534797257 5.545981210617645 3.6046388828187013 1.4703586192214355 0.9646131143148031 0.4397681695745587
Ni 1.6353631811928269 1.136604654612256 2.518293845704844 -0.8045606569731757 0.6291075488057617 0.32529031553893656
Ni 1.58904891968275 6.480177065122446 4.8840999992480665 1.0022450657349644 0.08106945377850554 -0.5158306570567761
Ni 5.825459765807826 5.7366055337882 9.373674355827266 0.7097877375656486 -0.4804954720905919 -0.09375733365881918
Ni 8.587426183014387 2.220568358483334 10.206575299702786 0.32850213760801494 1.3257667194092522 0.21675093847493637
Ni 2.42180052110861 5.135370933567393 7.057822799142832 -0.32996329553457365 -0.11202836405386514 0.10593844910604336
Ni 0.3696180373826472 0.056749225765493544 9.076806003756236 1.0334214913377686 0.5441325893252629 0.41334237128286233
Ni 1.6476002110074885 1.3463267092243312 11.381622511069343 -0.8321483367834572 -1.1090754305276578 -0.6282598560934858
Ni 4.091747793219944 6.7727162963648135 1.8795299404370593 -0.11259734918345769 -0.553344337731518 -1.2011124390612604
Ni 5.612289258267211 7.937089595556494 7.948944670742325 -0.17491291939322778 -0.07835462595050376 0.7275522606379212
Ni 5.270467018636654 2.8339947332310267 4.783594340837602 0.4513497037645711 0.5971389663189652 0.7185225463354852
Ni 0.8242562788045276 7.564095513705748 6.998939334005817 -0.31522316111092163 -0.22597348551446889 -0.31487914750794155
Ni 5.005814095721929 4.372955100403172 7.025977558240534 0.48897522742682886 0.30597027505408597 0.16110789518933544
Ni 7.969745811215739 7.362284083396938 8.811028939493152 -0.27439404290970165 0.3107854370545422 1.5000751724492618
Ni 4.468326093862558 0.4491261473707494 10.402235631297067 0.7327068082556671 -0.6194769676945331 0.013982173211704951
Ni 8.203435066234045 7.443960826775272 4.510875115429663 -0.6779042585934906 -0.7699458951127838 0.24823332535393375
Ni 7.007708903671072 6.029162867145678 7.182452241255232 -0.09477523340037226 -1.0248661455685897 -1.7618893218114238
Ni 2.1148158020081067 5.2842970345810345 2.5271032400233424 0.37438167374894876 -0.11074975445175765 0.12030860178478636
Ni 2.3621993071074656 5.415917513549089 11.4710804486279 -0.5338507477832806 -0.834869335259046 -0.17601669398036782
Ni 1.1474930768511893 3.503420001072885 3.8207926189295183 -0.13503150981725778 -0.9200029318045962 -0.012747272363339337
Ni 3.6755168094278976 2.554887271400611 2.6401545693111017 -0.9330721062837285 0.33146661955297757 0.3013044941473004
Ni 1.1895804944829769 3.2372193473162176 8.191420692435242 -0.9349240718908028 0.12604216183445388 0.6620703768850275
Ni 3.581440117198909 2.3637289358342986 6.952892983799374 -0.17414210266547428 1.547755252134044 -0.33868344901639097
Ni 4.000838971135283 6.784817560316147 6.131344781415369 -0.25927132833565025 0.739544657113107 -0.4657967324278365
Ni 0.7010351812477198 7.3002119306832185 11.21448387204308 -0.5445871603641782 0.2518814636294824 0.2299602380763588
P 0.014015562624263027 5.738080856169701 7.976220937790746 1.262600885384045 -0.6323571660913109 -0.016214147866017235
P 8.34483068736174 1.8429582372794246 8.048908170805232 1.1319194250053668 -0.4227150707470139 -0.48288891202343287
P 1.8307664627525393 3.4103479762325257 10.324659922097005 0.3793205058114628 -1.1457025948323882 0.13219429747877878
P 3.752885249409945 6.013151546330488 3.851022246058208 -0.644977940179115 -0.014018425766279081 0.6941014371786433
P 7.028535387105641 4.166590988144084 10.405693135283164 0.5693635959779098 -0.14469474393863468 0.07577632370036627
P 6.199286544953652 7.803803721998278 10.181829708346806 0.033474220498045576 -0.13777256289750467 0.6854625305567227
P 2.5791984119939406 8.508175123060854 5.746078370625496 -0.6069307555984064 -0.4774242893644359 0.554727848342606
P 6.688975911863889 3.9355446419319033 1.311760720420934 0.8301338774565897 -0.29664385544683747 1.0950536623272689
Ni 5.127197828595026 2.502481648155869 0.7669829968065865 0.2183293387056498 0.25049332503270405 -0.6365948583217423
Ni 1.4913427533741164 0.9787904150793852 6.89521421442296 -1.080043562071682 0.6578208575800542 0.5722766558596466
Ni 6.844645050756172 0.7528968359333927 9.150632764916926 -0.8844425182014832 -0.5148204706247069 0.604658671734778
Ni 2.7389043225558525 1.4843281837688183 9.076104546795705 -0.3769952001123959 0.6355471337835183 0.6107884387815997
Ni 6.395785004477546 2.126509768369455 2.845141110610284 0.449460200051342 -0.6554140479107745 -1.8389473404376908
Ni 4.071029922476039 6.997200625849458 10.473306345432192 -0.45418125967609524 0.35188015021232305 0.2970601170486497
Ni 8.255596310924796 7.073238560370887 0.42818018997645196 0.25498684202768346 0.9598025803000374 0.14052467172134508
Ni 7.740120481039728 3.9355898972196797 8.205011760460165 -0.40104632752432867 -0.0076408043747094225 0.18818906767684365
Ni 3.042992703238684 8.40201526899564 12.443791268347441 0.8146949171937001 0.28888863698145084 -0.5235560507254919
Ni 9.225652455463392 4.920172989134408 10.185393109706299 -0.7407186228165501 -0.36260756393215615 0.20152460844348521
Ni 8.646167546547785 2.2950947663930417 5.73793151372004 0.8174056312566438 -0.25860464128592886 -0.3069084705976392
Ni 3.7297597973563503 2.5924582113123424 11.338079683382675 0.15655781392480778 0.5953497356290263 0.308625710399062
Ni 1.1761396740134706 3.3667852362192368 12.445699231280084 -0.67501202464736 0.738165003156761 0.8392674643267417
Ni 2.9696791370413766 8.393290049512405 7.990355069268982 0.9152849575036366 -0.7843479294707266 0.3089553258243389
Ni 5.762781192237905 7.829662593433551 3.8042065559595715 -0.7862078654976008 1.7049324448104057 -1.6936347604093995
Ni 3.189149180640428 8.34922950133358 3.5522595076408696 -0.029159395172775587 -0.20366865136968149 0.9186299627164695
Ni 3.489933925315603 4.5136809432717815 9.592530737724072 1.1407539925778614 -0.19569771734906297 -1.1805857798628183
Ni 7.378150587291244 6.282094670526389 11.621012122135927 -0.4581651840245077 -0.6113044591860698 -1.6645273015204816
Ni 0.7056231623224622 9.012662969073881 0.13085385439312744 -0.44466097889048584 0.18617306568807937 -0.18744653308386428
Ni 4.691389407311033 -0.03311600938305041 1.6179263188126896 0.056326185395554604 1.5367933538059018 -0.2156754460225705
Ni 5.933067789081873 5.736062470334887 0.42996234320907545 0.14199559983991675 -0.5323939607320959 0.48757474753487645
Ni 7.79680725450809 8.78186100141569 11.292495842217305 0.3961612315178855 0.05548517755149799 0.2886325551065868
Ni 0.10836469168566452 4.683822723194866 5.882801835843186 -0.5753115860312286 1.4153966611632591 0.35436177898359617
Ni 8.261307528242142 9.057755337814001 2.2199682733674226 -0.6520646718225673 0.03675649079374315 0.4533888456817869
P 8.600106714649256 1.662136209441177 3.485295258318551 0.24195751964755105 0.4297285259503696 1.3279686121565775
P 1.6478445895614795 3.228304055624323 1.4111250404736846 1.5292731341694565 -0.05363192639284312 0.8579215890928193
P 4.859558056687078 1.2334328683380331 8.14207523174992 0.04373677876631822 -1.0955807384753324 1.4172532547560235
P 8.515072028917933 1.5577865668870092 12.33675436680513 0.504147307181577 0.4296002279026215 0.6433990257277694
P 6.577195351056884 7.79940490802644 1.5007947727790358 -1.4674198483080858 0.15984805464030533 0.48417754892786935
P 1.6259048260476185 3.1752829604658257 6.076038294224178 1.8158045837726406 -0.6821668905245865 -0.9765106370833376
P 7.093340959201038 3.8969237793437665 5.737189327000512 -2.015444830709219 1.4221787170820992 0.4650855652934248
P 2.178508094024212 8.565051968737876 10.290098458822387 1.1902531277492534 0.03651480709658227 -0.7710062180564979
