# total energy = -381175.11036505486 ev
CRYSTAL
PRIMVEC
9.17755597786155 0.00000000000000 0.00000000000000
0.00000000000000 9.17755597786155 0.00000000000000
0.00000000000000 0.00000000000000 13.43228085517763
PRIMCOORD
 96 1
Ni 1.7955612555621816 2.578259922648133 3.704569031379623 0.8488337678589383 -1.371820319234205 -1.480623234372237
Ni 5.421778739986774 7.6076247326215265 11.920894233310856 -1.0064508762861957 0.5887741392940377 1.324830580748228
Ni 3.2008194189402337 2.335825609180865 -0.15718216232174465 -0.3758906541943075 -0.03238330142671197 0.8590801281772947
Ni 8.14760458201105 5.179518800079313 6.237373438008222 1.7831155781800516 -0.30067791630689505 0.013307515742183534
Ni 1.535304128771419 5.366126041740805 2.9524692530175973 1.6223162153700705 0.913000275234518 -0.8928345989199203
Ni 1.0068788221080953 0.6689896687354022 13.098891336191636 0.7633052498678145 0.9057171113095434 -0.7170845283373779
Ni 2.6336648268880594 0.2044695184748374 3.5304194039330192 -1.0636077851131618 -0.16255928292388133 0.9685651569840158
Ni 0.21675000586318355 7.426927836881935 5.468133656472684 -0.4427282806441472 -0.12983582454893122 0.8526366865447961
Ni 4.9812835952453876 6.0057833244498315 4.731144723701356 0.4512345183429455 -0.1529050476635689 -0.3095531073093379
Ni 6.299208137827159 7.161659764635648 2.638570230452121 -0.47999127876066366 -0.24092059374260444 -0.5103706623834695
Ni 5.886062109308231 8.204285166504306 6.709451305453079 1.1182421846285904 -0.6489618645275275 1.3218162194019365
Ni -0.07753199122393552 7.8243710674623985 12.797659176112816 1.5225913512739069 -1.6249395119255305 -0.5802645591611297
Ni 7.50912202644178 2.7291297621048423 5.875588682652839 1.325893989015736 0.9306436993478939 -0.2972328951810881
Ni 8.686189442922112 4.752514662333569 10.520901233683418 0.3058951988417764 0.3588779216863948 -0.8242470796585095
Ni 5.075280121537474 5.962758942956246 0.45938806106875313 0.3176338274349433 0.15829125167614677 -1.0091284231183588
Ni 1.656310201722128 3.5637275071230086 10.55942494182281 1.043933703723002 -0.5747832243315842 -1.7720238391422642
Ni 2.8178400162680237 5.198663181435034 0.8251476158321716 -0.2756693100776994 -0.3608640988784882 0.32208877788250334
Ni 0.8987360113377211 3.2290220478501714 12.544393511314762 -1.128179241236644 0.14788908250621627 0.6384738205120101
Ni 6.125265923141169 1.956214369479676 9.362836864199803 -0.1890213337701519 -0.23458925220793791 -1.8294918514517462
Ni 7.91040147533801 8.467212962026858 3.9328240211677983 -1.093874297307187 -0.2407141341587532 0.18136947365184894
Ni 3.6869729036838783 3.2322984352633988 9.168458068304359 0.8639238294228411 -0.24919826037036433 -0.4003672991794331
Ni 1.5293387175148427 7.550044747661894 1.0834462522196213 -1.1704659178199972 -0.4314989875872311 0.8650844253898455
Ni 5.202783903979962 1.4701526602938246 6.560111364544788 1.4171622377041142 -1.0720507736741924 1.350981528111983
Ni 0.6097512994464419 6.77584449722762 9.857950396650827 -0.7190272538860456 -0.5952029256385168 0.8574765311356007
P 6.304843157075679 1.6276578725790023 4.370985313474496 0.24669811965632996 -0.8990445843853743 -0.5621498518382899
Ni 3.946009415555988 6.708123313131808 6.6622768332360724 -0.6808381444108339 0.88058483501829 1.317410377024757
P 7.021004544761355 6.693090476765235 5.237152014862466 0.08373543064644288 1.0454560539047995 -1.0514061008406472
Ni 0.491532450185921 4.094493090510066 4.530197551134632 -1.5738473212354056 0.6535122029023712 2.023553832969599
P -0.030624585880107767 5.480193882522327 8.158646099369184 0.33383511978515407 0.10563505893301162 0.6717968601441722
P 6.769869908415264 8.753350796115384 9.069153243749497 0.4929398685015317 -0.19494181301964492 0.18857319048913976
P 3.4513024488259902 3.520005631390193 2.1695282984590714 0.19804873407974277 -0.4812251511677648 0.1560435932925506
Ni 1.732217765573119 6.9257506933274975 7.634747163216234 -0.27995328216503396 0.21124106440030072 -1.3685629886391721
Ni 8.365314560208754 6.197309736009053 3.259423619124841 0.6961099829682398 -0.23407503157568074 0.113845619768262
Ni 5.107337323874738 5.1109441032960214 2.485522557008973 -1.5327178981849472 -1.229993640871985 1.297008159219321
Ni 2.3982880538151106 5.255931129498169 9.025740651646446 -0.7844636291129845 -0.5729310016141939 0.6106593694029032
Ni 4.439055244689923 2.3103578918931733 11.197337571178183 0.6123056467570746 0.9261679229647274 0.011917577373192378
Ni 3.3697048003918035 -0.005533148379369166 7.448495092963404 0.27064151784580487 -0.825451898599888 -0.6485600011034185
Ni 3.07100289244135 0.15170407927705157 1.28787080067114 0.05492262017980863 0.6704645144859938 -0.5416818137919253
Ni 1.6613762125123284 4.241425758537434 6.901935853835666 -2.4443691155907388 -0.038291696491346956 -0.2454462495270999
Ni 5.2568672401876615 3.320806783199435 5.328276883951194 1.1466924695494831 1.3735020778120024 -0.14354160417079795
Ni 7.426716753099011 9.290990368781173 13.160156109796677 -0.24459341460850134 0.21046536257654075 0.4738239736076872
Ni 1.3477974866435514 2.669172790198359 1.2517800625688524 0.9887645147500261 0.15654778662247879 1.100526255406066
Ni 8.533906259875383 7.802712035823137 7.821563653149496 -1.2170023708186395 -1.1103884929121264 0.19607335552092683
Ni 2.1454831023171788 6.027671794983578 5.144751465520407 -0.011859470441747318 0.3293572865194586 0.1854351590807903
Ni 7.794837692964456 4.517963869280761 12.689743968725772 -0.6948614552731194 -0.940886717232141 -0.5475650120455795
Ni 5.27056933096623 1.0394407900132234 0.5204555172245375 0.48753078167081837 -0.14191615275223302 -0.06136091960598464
Ni 3.078372469732167 1.6568241448457717 5.793181573798913 -2.3872641430476307 0.6548067533440788 0.3789582373760376
Ni 0.32464961140540505 0.8519561740192262 4.550722236879568 1.212174610412693 0.35515856385327865 1.200011492687598
Ni 8.434072808107631 0.9452056472708739 8.582246281676369 -0.34648366178710005 -0.023524565484501422 -0.7198296951826829
Ni 1.6060447287186368 5.915210026463442 12.11242431589239 -0.9865916754684235 -0.27343527854085814 -1.0788922220760582
Ni 7.382618597579242 6.593926986569375 0.26897488702556577 -1.055308521218847 0.5199125404356336 0.8595136161702875
Ni 7.086449695023888 6.3189215276412 9.048548713269282 0.21717337072433562 0.008175336721940759 0.2526394248414295
Ni 7.835962320411715 3.451843924616972 8.134696349807397 0.633352954345677 0.8176977085757658 0.5178682563120952
Ni 0.48011006426294395 0.6654636518049766 2.134040525771487 -0.0962387053197762 -0.5358636644482513 -0.11031472379686807
Ni 7.328259934698161 4.642301394979373 1.737425110722321 -0.6398043663979756 -0.2725518474946403 -1.1862226664336215
Ni 1.7669456366421734 1.9545073441047172 8.392408540380545 0.19928106382494712 0.11637738505118023 0.47584126114803216
P 1.4313499544587394 1.2366113983767453 10.666332453585284 -0.5674087862443841 0.23489109971907288 0.08768747331565543
Ni 8.18970203037092 2.196354294002107 0.6496947754649001 0.16243869818561701 0.9129115721754536 -0.04440732247078159
P 8.466763261793671 7.965980753137745 1.5652367269457639 0.07139079303816091 0.45982097446037584 0.7047784572765153
Ni 5.712725613303678 2.820749301450077 2.0463407204996114 -0.29934377087650377 -0.010168455892569586 0.7845155653968424
P 2.550084826405534 8.140813190734333 5.559902789977124 -1.9843864187415177 -0.024586945310744752 0.3549721588740854
P 3.7390188225085637 7.705182150556 9.088281105504816 -0.8905617437253437 -1.0546474905960805 -0.3237412258842618
P 0.6260754179111689 2.2849268848285984 6.5527766619659324 -0.8020977972549799 -0.2814339804756185 -0.8995657469961669
Ni 7.080732077773354 0.7825435663932803 2.237455059804341 1.1683630125443811 -0.70945092305152 -0.7381264366093416
Ni 8.61272310890843 2.4749665323515666 10.251328887776616 -0.10855891744802594 -0.7255012916461634 1.8548766100734375
Ni 3.8322811443383022 4.3137816083018174 6.872626411698739 1.6696080584774988 0.49909894612439204 2.2748231169363793
Ni 5.107796201663705 9.247855856618237 2.8756090588767105 -0.8026955787399789 -0.8222799286298096 -0.7307663966998447
Ni 0.9973708743206903 7.714166977663983 3.29101643713967 0.5122768782672468 0.16645090466880366 0.43087986594599337
Ni 3.118909733609549 7.467391680313082 13.07844741293756 1.969975899743143 -0.2860503962017073 -0.06906420178751331
Ni 6.919886235184494 4.487145636973709 4.103091542519738 -0.04669791827717119 0.3617968951054027 0.4175432967380874
Ni 7.701015540232176 0.5024977938310865 6.126288302854989 -0.14134871028453722 -1.2403803834229477 0.20636136771049624
Ni 5.293678416418628 3.540086123435407 13.161686926100673 1.4522439118985957 -0.033843945132638484 0.08468211083042836
Ni 2.0071130938319426 8.302007780442809 11.27485487831287 -0.5145425343729719 0.4188180496854529 0.3653090220237193
Ni 3.532633948142576 6.367755301943113 10.92381520526395 -0.38518416368109143 1.2272147925752672 -0.9157451849695069
Ni 3.397907429301741 4.318590647530196 12.06058948085063 -0.805733337125038 0.1757500705825425 -0.4000646803373497
Ni 8.19522691895009 2.4805464862654105 3.2639637559688848 0.13961501542288213 0.40289520780760935 0.43550939429820484
Ni 3.932582651450801 0.6235827937614979 9.64573410334264 -0.21848977554291402 -0.03273477122885975 0.4706337488051637
Ni 1.4808720454441036 8.731838605368592 9.08505703015953 0.5647950027706209 1.5130217053076007 0.9020242358389885
Ni 7.382040411565143 6.680434627345513 11.329282372862297 1.102172275649921 -0.5923816541396378 -0.030468858012818498
Ni 4.69277795176579 5.473705350586328 9.13922938865829 1.1524836223099635 0.21527769636351957 -0.8779944485832943
Ni 4.439431524476877 8.735491272568773 5.015505782990999 0.6034176002388253 0.2445733600038433 0.02589846503331669
Ni 4.1409315227535695 1.9002221016698713 3.7699040509728046 0.3730593553930994 1.4643579215533102 -0.7490327991092003
Ni 6.027993009435855 5.621051008623766 7.002623736046476 -0.508958355416975 -0.4439747514567386 -0.0063441970504729455
Ni 3.2689352379345578 4.0237892007859655 4.829522615122504 -1.7749939775141819 0.4008401250507935 -2.6920879632020993
Ni 3.932564296339242 0.4230476934492672 12.200755537001886 -0.8375170572945383 -1.8148211368134486 -0.15403144795852824
Ni 6.172768951855076 3.9537644501895377 10.572090886553887 1.1886492735972432 0.2775955805661348 -0.09956365592795112
Ni 3.627851089353316 7.123949187938306 3.0891689463509926 -0.4258453888458795 0.18469725247350124 -0.7718312850609547
Ni 6.259955731758886 0.4913002580247035 11.146590276496276 -0.09945746936739 0.3618807130684606 -0.23800830519181587
P 9.263549477000923 4.0543688166427545 2.2491279930000942 -0.40610445877352636 0.04096744355129719 -0.04532674896125743
Ni 8.518432900831403 8.816015146976776 10.82377158746885 0.30597207482629885 0.7058770896573328 -1.1166234180782446
P 7.08051181643465 2.472580367848936 12.216296809958633 -0.3509792356646084 -0.8528837695585957 -0.431015105972277
Ni 0.8374638956880571 0.07215945007070496 7.028951390310692 1.349821446365611 1.3422256362962237 -3.0018264470493654
P 4.878807007413183 8.014511668098939 0.9740846620417496 -0.06463059149619191 0.9955059472389178 0.28221482450570107
P 5.708292853862252 3.576851411887477 7.784758901207574 -0.6065864848851101 -0.8176691693306757 0.3028926645700267
P 5.285556279553905 5.407920630759957 11.769767422292325 0.6103981453217165 0.6762885773669386 -0.05893611221457592
Ni 0.326764120256967 5.4811850585464965 0.444346964901979 -0.0917431314422678 -0.3797776479535395 1.7105150811045058
