# total energy = -381173.2088985856 ev
CRYSTAL
PRIMVEC
9.17182131713938 0.00000000000000 0.00000000000000

0.00000000000000 9.17182131713938 0.00000000000000

0.00000000000000 0.00000000000000 13.42388759953462

PRIMCOORD
 96 1
Ni 5.846072901073682 1.3585759983550845 1.869222640407529 -0.0419838006309535 0.17305786846236001 -0.3661268899393243
Ni 6.494300528143683 3.9581360769223974 6.655751177537402 1.0052010630394947 -2.255658113972154 0.9424792585302413
Ni 2.5015683420851142 0.7316086525622956 12.176096941747067 -3.2034325594630637 0.4438297412384421 1.8765034443145943
Ni 0.01607178208889529 2.5115656270687903 0.1520605389659327 -0.8087273867563556 -0.7987178250391535 0.5659607409439479
Ni 3.2861901205241515 5.598461247216519 13.052730429320269 -0.6513511906953104 -0.5932396312645589 -1.589003974371186
Ni 0.40235036458019025 8.147594653453327 11.545778212529473 0.0035933737782131666 -0.19092652121266473 -0.09284253515403365
Ni 0.5085875682186507 4.032152673085946 11.805745226571508 0.9440473743483097 -0.5237283146372981 0.21296601751120742
Ni 2.2707136053519665 6.960293242057113 9.302311336077514 0.6311819148362872 -0.23918201378494292 -0.44658982048208246
Ni 2.164026982480295 7.851253114166556 13.409993955806188 -0.6751932874202308 -0.3649819777016037 0.007377780521309874
Ni 3.374762396751089 1.6936042789823558 6.398254134913812 1.1835404916157681 -0.4174839042550617 0.20700285794923703
Ni 4.918278995483098 8.311614329933217 3.4914453874243274 -0.7061136311481709 0.7930197462131117 1.6139580732133625
Ni 5.4924441672841215 2.1328611344302657 12.43513760185942 -0.30791042949959224 0.6145111390488255 2.0460651266982373
Ni 3.487878466204005 5.036164411900703 3.088648355157252 1.3654038741849002 -1.00800665080909 -0.5763384846338461
Ni 3.0632598372092574 4.236739314228957 6.639347375525197 1.6800703914614035 1.0967531615168788 2.5924317475603416
Ni 1.1461107628992497 5.326966171251565 7.638044044020652 0.40338037497414403 -0.887213396078401 0.9130565823937501
Ni 4.778087710184481 3.8144594996111243 5.197097770585176 -0.6982326857381974 -0.3255327705670458 -0.07273805109467474
Ni 1.822129007859654 1.6696933414113062 1.5980870998291437 -0.09019095646379952 0.040277359462808054 -0.015157424466728736
Ni 5.287894213425454 6.978444275986191 12.615017191361122 1.4895529327616992 -0.6007310545455976 0.25393011862839493
Ni 7.675255039348424 7.5371274137941455 -0.05217482142948681 0.20544476943349776 2.375968001308521 1.3541208450719129
Ni 8.573726632927254 0.5743834611428691 9.041551876693655 -0.7988898318406435 0.07763471706534371 0.4575118667112249
Ni 5.339118834190438 5.001283976310868 8.838381364726313 -0.8039091394321057 0.9513953300729486 -1.5223692079607716
Ni 5.084527424486873 3.3667829124063196 10.232398196939583 -0.7221408598143627 -1.7347605839154319 1.1659497751171986
Ni 8.896464673299363 0.11488164501196024 5.409423594360504 0.4009997905571094 -0.5472919608898509 -1.5709640861503396
Ni 8.362086861369153 2.940871056638454 5.125549311475855 -0.11714717333766922 0.15214271557624764 0.3340660048490376
P 8.548724248646977 3.5762306187248796 7.382547375575904 0.48872711597176477 0.056804153473237654 -0.23213436290954215
Ni 4.783068009034148 6.309112288597438 4.868454911797937 -0.16379778331667275 -0.8638909193023767 0.6633307316546899
P 5.556454306642907 8.16518620629616 10.847145008317463 0.7493413314885545 0.803557412519642 -0.44168287009876833
Ni 3.52031919738498 8.994841626267172 1.693476790669261 0.5418967580162087 0.555479896017282 -0.9658608706789752
P 4.587304659775813 1.2097356857724257 4.5524297272786285 -0.11923670887684626 0.12606067377721517 0.26104487529630527
P 6.907995518225074 4.599136308976678 10.4941775628282 0.3525753765071347 0.33774139681809573 0.5570266716791116
P 7.692066987398956 4.489688967958138 2.5158782173434004 0.28946045032452083 0.3473863761070275 0.8858923632741323
Ni 0.4312966319274216 5.755620401524126 10.22523041876092 -1.6675894853855733 -0.373332406548828 -3.1714130691336737
Ni 6.71039780474955 1.0074970308274158 4.148451364455684 0.09529819578337781 -0.893451663678629 0.6639393117729662
Ni 3.4040480214785 7.945612809498723 11.322350816511724 -1.422644600974924 -1.374005242700666 -1.7675025542331433
Ni 6.859219773690038 5.050720091964092 4.646557375537321 0.7130509816979527 0.520141111506672 0.057835165840913305
Ni 4.248350839723758 5.796875252768691 10.709980423977209 0.2082079340009317 0.5290199020535405 0.06904311874159076
Ni 3.2751380761155917 3.1756696764385564 12.261633345194557 1.4210224919904688 0.13020272097004676 -0.21395280690450894
Ni 7.270731870352975 0.6703142894270571 13.019076266209623 0.3327719686279623 0.24410001991185057 -0.02613320675194209
Ni 4.658863207888328 3.9957405433747577 1.22079139890942 -0.6754288004698045 0.09198352958784803 -0.9135450919943944
Ni 8.424079200089032 6.123639722597529 6.636260140547669 -0.6979843171728173 -0.20410702445868073 -1.6580432364580346
Ni 7.6607635620326375 7.223010885242822 9.995694589899932 -1.7966295535060868 0.6937278558893085 1.1153851747957695
Ni 1.0755611151061877 8.448283635934832 2.2083901638908854 1.0495096551488827 0.6380398182983851 -2.3555961225203883
Ni 7.908861322407354 1.4445893364990439 6.845631720751215 -0.3482335545986712 0.3480962576898586 0.501518354199162
Ni 5.771469308360633 3.346769998796795 3.292664509028717 1.462329835379688 0.014030252840820998 -0.9192010047285911
Ni 4.161007587522337 6.796667953883916 1.2617353254191712 1.1507514701102053 -0.33995640219154355 0.3358382662581119
Ni 2.5689170243191826 0.5910615006055453 3.686574963845625 -1.0668923694017045 -1.301714820666371 2.318709791017
Ni 3.7342060651091358 8.19083978987354 5.743142138936704 -1.0979885765858768 1.3133246369911575 0.21628839701622105
Ni 5.6474662872787045 0.28104936199017955 6.461574553326936 -1.2205996012515945 2.049595508448999 -0.15823005942090812
Ni 1.1105791280123123 7.369558242553994 6.4141351431241205 1.699402773241428 0.5598078339686746 -0.8122086604367367
Ni 8.239211974280796 6.059271882216392 12.056973329482858 -0.48793675885998544 -2.405106827656006 -1.3364681649871564
Ni 6.147770783874641 6.067764988541973 6.960876569878178 -0.6123750665424293 2.3484448561875877 -0.8988280974991939
Ni 2.4022283479032813 5.939084338706214 4.858427359804677 -0.4840441086737986 0.7741730458202538 1.1063662591266108
Ni 6.1578506152480905 8.242532173513906 1.6150549688381353 -0.07851223457429059 -0.8030426776667524 -1.456789108067117
Ni 8.109962671537707 0.23285877964042576 1.80767421782821 0.32542529845490403 -0.3356665165669381 0.44449617117784734
Ni 2.342758259982037 2.5887740169702456 8.60218771093904 2.124973311159366 -0.5117616291937251 1.63143206162841
Ni 5.698727595328032 4.775556287564761 12.305636991218577 -0.08890951864821461 -1.674495211366471 0.08518219039529847
P 4.0110024536617646 1.808784008179609 0.874002092103646 -0.304530714394082 0.7482815227654727 -2.121734235396778
Ni 1.0079097627762832 0.46460593456523536 7.275935044455029 1.4380187694381492 0.1762943731217867 -0.3512993380081885
P 1.734473913741311 6.287044887064663 11.594641089364828 2.0920693613424937 0.8492004071697374 1.6536494782657134
Ni 0.05119893966594263 5.069806651643937 4.306168165485317 0.2601460176311197 0.35683903687949514 -0.22440665524798126
P 0.6790458631008733 0.41780946902054467 0.40431313429258176 -1.109652128966734 -1.192881823621352 -2.301179752553037
P 2.019671690408662 2.2997699345522293 10.767206167278724 -1.2599076548225978 0.1070800189096543 -0.8313620934367358
P 3.2238125653186636 8.51929187478219 8.020195307023272 0.12217290868703475 0.2191325513332355 -0.788709548873532
Ni 7.629001545612022 5.1632491648675085 8.59630857362295 1.3374184447155677 0.011832473858553814 0.47995116955134765
Ni 6.887606559951026 2.3509945553172127 8.682718134437822 -1.0531138275603733 1.2081125245281774 0.4880313754563208
Ni 6.726411804365604 0.9037297986073995 10.604495309667795 -0.23400946844506795 -0.45859687224528767 0.40051128095646504
Ni 1.9285037888144034 3.7947675997396075 0.4479251435562336 0.8058948024035669 0.8591883716203847 0.09958036809849946
Ni 3.887503882739562 6.396372994409085 7.186370377186593 -1.6632484348080583 -0.2734545618145678 0.2691384509377171
Ni 6.711214096826199 5.627114016289 0.7904697315634337 -0.6286758605849818 0.603692965387399 -0.15912377487977108
Ni 3.540148674572786 2.433385024132225 2.910848934677842 1.7291362957501186 1.3152575923478123 0.10738572307553118
Ni 0.6930704947233866 7.444583739036996 3.9966265412916595 1.6635176293090448 -1.9286238191589173 3.117149679804419
Ni 1.3571818815500214 2.8591409589416292 6.77631109698367 -3.741902294075594 -0.20578029839604559 -2.387326877964766
Ni 0.040183582541726895 7.537815300375591 8.426952731635257 0.07279435825390689 0.015307062670715573 -0.24381617012284465
Ni 5.2521424548324545 7.433164821784999 8.827991525800158 0.17105986419572475 -0.3846725141519956 0.13136923047432214
Ni 4.580774323162622 9.060291741536451 12.775110411234122 1.5342813860173252 1.8654381876393678 2.6952419354500483
Ni 5.095726218032808 0.5506091837060002 8.697309584603447 -0.5555734841723529 1.371572207779141 0.5096612950212707
Ni 2.5081078505193903 4.413122605532697 10.193817848723679 -0.512263251420492 -0.007623063762896549 -0.15828585235950804
Ni 6.666006190693594 7.805219744136215 5.4335729992797885 0.86948795377418 -1.4181770521218737 -1.1795295706841622
Ni 9.138389798083242 3.08135584021182 9.474740655311106 0.38286271463676647 0.2690176090891367 0.17005224886681683
Ni 6.950892125444023 3.359628891959285 0.8176595951727073 0.27632879803856925 -1.3525123629342126 -0.6116479585684176
Ni 1.8148007228119865 6.012284642793114 1.7266741970898263 -1.3552390178367564 -0.3352893357331774 -0.7265418170955358
Ni 1.195473503983787 3.7552278790381135 2.52825467271677 -0.8945677795609432 0.1676564949411306 1.481268838376036
Ni 2.4684122088594354 3.5353242966815803 4.659794147728551 -0.7675457703117232 0.1338089502640663 -0.5126620295208074
Ni 5.883292151040433 6.2228329676419865 2.8590327314528152 0.3989601344192613 -0.7953671633993658 0.016715770092784115
Ni 4.156430848800453 1.2803311926709176 10.905163196960805 0.39724469439005133 -0.5739650993056631 -2.983860092378932
Ni 9.075085888948074 4.959781485896983 0.5900250848228339 -0.34852074682178685 -0.5929375266431078 0.10417055857234317
Ni 7.492983438907509 2.9727064476277567 11.77285691052154 -0.11505455247469863 1.035563991602068 -0.2165244242864271
Ni -0.06872904130750263 1.4425531922179649 11.391242199052446 1.5785398416150684 -0.9658207614696591 -0.36366582999334146
P 7.986647537037225 8.133304956201428 3.7840063020594727 -1.8051977547910716 0.9881248242834981 -1.6677483795609407
Ni 8.152685014156024 2.293120364264922 2.8459848987759546 0.9836261650821964 1.3173594691821635 -0.544000948843405
P 7.300072526006901 8.558794908199342 7.453922487266702 0.9442682321098641 -0.7819357204848082 1.0204351063804296
Ni 1.7122689348922464 0.25022837441298174 9.436052996788495 1.0763056922958043 0.007676542708651295 1.5778124765307406
P 1.0185307315938035 2.1265142342387944 4.249707352062369 -1.2342979246742936 -1.0149658557357424 -0.5655573348579421
P 2.9845931277551374 7.190661872272705 2.9765989684966305 0.04329994833921575 0.9970043861613151 2.1251124078403913
P 4.808281345199401 3.0666534110110555 7.832582955164013 -0.7346433631567477 -0.8154600774944988 -0.0854989503047689
Ni 8.502397380341886 6.556448787822022 2.187328911131238 -0.5226235116088934 0.8423008518364268 0.7002540870436005
