# total energy = -340894.3157698486 ev
CRYSTAL
PRIMVEC
9.04439759293651 0.00000000000000 0.00000000000000

0.00000000000000 9.04439759293651 0.00000000000000

0.00000000000000 0.00000000000000 13.23739009898836

PRIMCOORD
 96 1
Ni 6.39407235902473 1.9390012105751133 11.362379591731596 0.991703799884008 -0.25264251016522293 -0.09709719666532955
Ni 4.400877119642992 0.63698695517673 5.993174925134863 0.2855832267573017 -1.7629607004987318 -0.1819376874504931
Ni 2.826310855118309 1.8151743667180518 4.67871557900919 -1.2333682137711726 -0.02473555507346708 1.1382314832663236
Ni 3.199274667851758 4.396300654593567 4.921767477361362 0.04290579822459062 -1.8514120485636052 0.5207687177883418
Ni 5.146750478725904 4.693056375417031 2.711507606478265 -0.6518127037127612 -0.6272185593131651 0.3885808480674663
Ni 7.024729140509579 6.217616167099286 2.46126722112751 0.8358638379618314 -0.4093700168986756 0.6438926775347362
Ni 5.112625967596499 4.527760969797891 11.416480463245714 -0.17138665140752418 0.13915633061890872 0.6743941885577031
Ni 5.493982981053004 7.744428013716928 12.335711403728514 0.7038086371640783 1.6657999975853184 0.6547021094454144
Ni 1.9224228302676123 6.480491575521278 0.4619796757036913 -0.07381380065735675 -0.1541425196150958 0.2978815845086805
Ni 2.7991143523443562 1.5930620570663299 0.40033849013482 0.47073839270382795 0.39910540174787396 0.11722867730788199
Ni 0.6034087256461094 0.0992342230746691 4.6858769328157805 -0.5130674924893422 -0.632423243442556 0.32744952797378446
Ni 8.592050842772228 2.281639159058126 1.3581564473900805 0.4447010880998019 1.2424714616240213 0.18295044498572366
Ni 6.784292881865497 0.7849958041773621 4.856069879589591 0.00463158523474041 0.4175497244959906 0.38730738067168136
Ni 0.9358418806206912 7.532572050638423 2.7096146141169117 1.650099556130926 2.084441669593907 -1.4615356216131667
Ni 7.5026441398705455 3.85909963072869 3.810025635251075 -0.05349822902845625 0.05793466753325507 -0.5042108134296607
Ni 7.649091021452135 3.933498843172499 12.568027602448932 0.2565708986853517 -0.4879521854789532 0.16642570785782307
Ni 7.871773128135702 8.894016136458278 6.9746349370130405 0.5028442720994373 -0.2853633974370118 -0.8054075783545032
Ni 7.1705610030726685 0.6918873514148973 0.24155595503364483 -1.693724491909728 -0.3817226874950522 0.007432030798013007
Ni 1.9228207837501712 6.314590195280968 9.18561021972501 0.04836039358125865 0.7531180249221675 0.5754923345834669
Ni 0.05497275141681444 4.89187936194174 1.393340961886665 -0.3908141082733592 -0.2741559587569666 0.5349678921068592
Ni 6.366704012701492 2.1009682779764907 7.034402123454954 -0.18816901307218561 -0.3404418264683943 -0.162508632191604
Ni 3.6223896637849298 4.334626909194305 0.6824043008134709 -0.4909446924483739 0.3086547638647845 -0.5477691576365856
Ni 6.070807509624461 5.826011851466895 4.998239665673408 -1.4589539769289197 -1.2055419355875236 -0.5383846310978921
Ni 5.226648684746888 2.6520072297576127 9.247428675481567 0.36961176316413125 0.39531688123971914 0.13166979243387647
P 0.20814504685364546 5.731000457506013 12.570304981696848 0.1256726943101771 -1.3311452101123462 -1.221200210950071
P 4.07790169095731 6.172168070511619 12.533902186879793 -0.7935388519413752 -0.9090140368932603 1.239609052474562
P 2.450253858497699 8.628300787274389 1.4059832204757674 1.2090754026620791 -0.8662375651576822 0.1764663799232767
P 6.284011087905267 7.917230269120698 5.884377156322523 -0.46359869633525325 -0.4768583895586368 1.0391805053087328
P 4.719664992364477 0.9643136434182977 12.378600840311274 -0.2826467698367971 -0.4585899302667522 2.185220943096514
P 3.9763059757395482 5.959380534508034 8.215163570476642 -0.79698335884655 0.8033560951421131 -0.8429929928074449
P 4.817127418002027 1.0792860222884288 3.793345957693468 0.11966968264920681 0.13631988961137814 -0.3751314074307798
P -0.020421344733391245 5.95193699550472 3.3694585702282387 -0.1513770410548167 -3.6901092206637025 0.7479899596669828
Ni 1.3938411170590628 1.0893253033257044 2.567748719783413 0.2800327292527177 0.9172048002341687 0.4463406805857538
Ni 1.785535876664762 6.439375745255103 4.693329516216424 0.3485603418104707 0.8675169460907383 0.42568623756019597
Ni 5.899615156945586 5.408911379758758 9.092432125103098 0.6757836127060619 -0.0849739310392343 0.8017131602220515
Ni 8.81892050541999 2.0445855050157924 10.116662187519267 -0.3601750432312636 1.0742421248985563 0.8922265330222762
Ni 2.1332296432557354 5.406071438996862 6.868947536442789 0.10378797842194383 -0.7863988984624843 1.0318870569711132
Ni 0.32365556736496404 -0.27603229321922174 9.133534388773276 1.423910097950909 0.5051909179547429 -0.2998821598784771
Ni 1.6177894393689527 1.0674016841956542 11.498513147036785 0.5864999985478802 0.1851022012214038 -0.6778685202595487
Ni 4.152246637017133 6.900459121183304 1.5975146138723215 0.25384321534154347 0.25689871433841566 0.20274665377604437
Ni 5.469300820737034 7.624806814618725 7.936436951292553 0.7689033127808822 0.8535034054204657 1.1909365269695231
Ni 5.266869119677306 2.960176980012646 4.869480007512085 -0.12491113355380422 0.36829304435270765 -0.26424924116621584
Ni 0.7013993440877826 7.3981451731095715 6.927165417621922 -0.0039024203781997304 -0.02992558391483878 -0.3243564908707575
Ni 5.072287955500779 4.380635758416485 6.99835658233247 -0.43564977653081105 0.027361422732088362 -0.07926248247675381
Ni 7.881097901783838 7.019790899566918 9.15084898302351 -0.31202985098460456 0.76284862194637 0.9425332516966283
Ni 4.7175938253757055 0.3410434212335785 10.328711700700655 -0.9810002974235751 -0.7378898951185033 -0.5186812391316938
Ni 7.979184390837219 7.135387341852881 4.707136693181743 1.2260212864877982 1.4620986932054885 0.6224121390634572
Ni 7.402169929921812 6.099179784051427 7.042953601131299 -0.28478464211540633 -0.3088599378970551 -0.6911639518168742
Ni 2.437962522525035 5.26546723809102 2.6970781749765806 -0.3911506656771715 -0.21888906786386175 -0.9478446366072129
Ni 2.461903042259871 5.186129784704551 11.499558679368235 -0.9329965158507868 -0.14155696964060135 0.12017387597913497
Ni 0.8873648153669138 3.384178326884244 3.625377028223319 -0.24711078171371637 0.008774403758520372 1.328309283325448
Ni 3.6161218964346307 2.6239786424292193 2.6647788232285463 0.7566728321529614 0.7527295312344972 -0.915604031405952
Ni 1.2974187971145639 3.448447814317469 8.336312368284032 -0.8454543098637439 0.5302216356711256 0.06154475348201658
Ni 3.5933842815448016 2.4631149915022093 7.348498667280912 -0.5278636769619103 1.4575614674567672 -1.34749639777686
Ni 4.050804676553997 6.885092690118141 6.222261369568425 -0.25933252059088885 0.014971276597851635 -1.5805309039031683
Ni 0.7780171471968561 7.543172084310213 11.387755457322843 0.32433000850819627 -1.2158032083042158 0.28756683284623374
P 0.07942518404057836 5.631222666151758 8.253339971610282 1.5341510310870483 -1.5048677087418985 -0.9646141427560678
P 8.622069197513413 1.57762327082252 8.090056944397261 -0.11905930275871754 0.46164902880805003 -1.5815161506345732
P 1.7913062021618626 3.15143885036874 10.553032652180576 0.5487464339481903 0.38852454090823413 -0.42902018702943534
P 3.964810546732001 6.118589060723494 4.04557158825835 1.1547150827436439 1.2914751452162339 -1.2664575401259737
P 6.843642217150723 3.814754950615391 10.42088315389964 1.1806559709791216 0.808574406118259 -0.7643930836153545
P 6.304162005158465 7.887537512683423 10.268958080854738 -0.5547674433312897 -1.4282074397746825 0.4153604301541557
P 2.3475818599975633 8.333191146765145 5.6111838994254635 0.39591749093819556 0.8810160090184376 1.5383545276454345
P 6.88549968799803 3.912316864623581 1.5605429264631552 -0.024979552763473106 -0.03927437211959043 -0.3571449981556882
Ni 5.350312729451994 2.67606532665775 0.38154694580045306 0.07586502675943062 0.3164110107714357 0.1369942899705834
Ni 1.4082759751991454 1.0065690677481633 6.886870818633391 0.10245460432250096 0.3894907614762454 0.1812234349922879
Ni 6.921405945401619 0.5234218845312834 9.026973299420861 -1.1683727827363943 0.5793343340373764 0.6180759735819484
Ni 2.4991569148657606 1.4932390437254208 9.140815128624633 -0.02120311644017639 -0.8085461239834849 1.486547313166156
Ni 6.446819284258416 1.8337515588356768 2.517314446947233 0.12874259148475248 0.5891834589173143 0.41933047054549716
Ni 4.155764907578845 6.775673571209169 10.330895922656062 0.06485993389817861 1.0236060479092435 0.017282698339847656
Ni 8.269590944734405 7.396318204848734 0.26428452552614323 -0.6569651944479782 -0.10802721331427201 0.6647962604566229
Ni 7.662947038163041 3.7388272350226632 8.284699610475638 0.465755594777256 0.1525998577183243 0.11061811396989982
Ni 2.9834301255503357 8.223202230824329 12.453682904753563 0.9942911009952103 0.5437803481921667 -0.4374832301951239
Ni 0.11320781695087684 4.699649741071242 10.345960270850373 -0.45535239716606096 0.09355061696465178 0.5354013800998522
Ni 8.627866656202507 2.4368862392426602 5.907847367396153 -0.48617786718734973 0.1348463903896452 -0.10437881792840734
Ni 3.7670276659003434 2.57026396668113 11.336686267794034 -0.5845228202168513 0.3970636887274968 0.046313538354558946
Ni 1.1687170230961585 3.330201363613559 12.740206698876605 -0.1935495606578086 0.5453952580877703 -0.003444506905174713
Ni 2.995305419245779 8.452215415639511 7.941216010842189 0.10410756654489167 -0.7422386590055023 0.047807863511898314
Ni 5.811296617009556 7.896699487179603 3.806437722829915 -1.5824373768972617 0.45562699098368625 -1.7184978421996664
Ni 3.3228120909942316 8.550446615050184 3.563002342030914 -0.535737166172716 -0.7570235306241607 0.360205896469199
Ni 3.5054908282833215 4.342766866792095 9.41690711486624 -0.3005856137034049 -1.2309086964870866 0.037062194959620036
Ni 7.260127669840362 6.15919840473914 11.544923567500456 0.2354001781450075 -0.15462562989910145 -0.9286305255726072
Ni 0.6791664065690164 9.262005530659744 0.347861087941595 -0.06391351082450929 -1.0425386231476885 0.35707789236317855
Ni 4.673629009950304 0.36211686701452617 1.4906885236781129 -0.027583566045223464 -0.16657637450307441 -0.21841469933060445
Ni 5.996326897604674 5.631313110125068 0.4026430025747279 -0.2692119844881299 -0.14657499168048305 -0.46210154296443634
Ni 7.984412052494466 8.850268386568818 11.286675272752941 -0.6431750826424214 0.3846311193910989 -0.01649825476533933
Ni 0.12389377239731014 4.9572251326573396 5.488711906288568 -0.800608357193647 -0.2645400329337573 0.2695850515568325
Ni 8.13801305236478 8.957752004448981 2.386131794740968 -0.6287293395307365 -0.2488226221985005 0.470666401815312
P 8.44592955949455 1.6232612997541342 3.7539386140830957 0.11169154953973667 1.0510119507260223 -0.997023926545341
P 1.7234822665776024 3.319736995901733 1.7375526355052504 1.1548148415463015 -0.4861868660484142 -1.9651406831380287
P 4.732544214163648 0.8242222598411166 8.164530320899186 0.5164209823426072 0.2330944128299663 -0.19291269840475808
P 8.769673761953356 1.6241657394872222 12.3310915255719 -1.6469329854774861 1.117608150589017 0.34586376881491404
P 6.368702824511616 7.969687773639796 1.4167976063642993 -0.20106078143318923 -0.32846408528122784 -0.4982921339523805
P 1.5886212579768686 3.2514427516562665 6.167445086225434 1.5525249056085455 0.020948834337525212 -1.1457907836708203
P 6.992820506726239 4.109457593244746 5.985431112140164 0.18217731426512496 -0.5771085300306513 0.4456598524686454
P 2.294590736035944 8.460255884866662 10.167837196496846 0.7655061141738752 -0.3262994735297413 -0.5592748442833401
