# total energy = -381163.01843097777 ev
CRYSTAL
PRIMVEC
9.33504459494305 0.00000000000000 0.00000000000000

0.00000000000000 9.33504459494305 0.00000000000000

0.00000000000000 0.00000000000000 13.66278136546443

PRIMCOORD
 96 1
Ni 4.169180340484967 8.264623162588393 5.497957680050987 1.9162064193311708 -0.03931576688048713 1.019362442141541
Ni 2.626480182209838 6.9228131670643425 6.793257682179371 -0.2720347986489057 0.9895379025809409 0.13255887990704912
Ni 7.9767023777495645 1.238956472606233 13.384183870700193 0.5091005374217942 1.2121530131461382 0.418884127036698
Ni 2.38141658776089 5.292382258346154 8.351197300988476 -1.450498904183031 -0.7066491919366669 0.18836364558149496
Ni 3.5216829674022327 8.763497288405329 8.39241805803587 -0.8063092642331663 -1.1503287807504898 0.7049432649891536
Ni 6.448359518280715 1.8414122548305112 1.4622731468346921 -0.1725801574949931 0.2532251221415704 0.30214293088819577
Ni 3.303410951349921 1.1400890137913309 6.651410743888528 1.2319065416239814 -0.7489530949112004 0.06747628847510316
Ni 3.379342205244776 8.063004866347788 3.438798972186885 0.8045781404746725 0.8746694979751194 -1.3057054298830029
Ni 2.5872076489991596 3.5092020125881906 9.985294081775082 -0.23080047458946704 0.9103363552491096 1.0944813347635667
Ni 4.462524786316284 4.507090289893127 8.272814664345551 1.1029860298004681 -0.08244190864599996 0.5966892803760562
Ni 4.32036139000884 0.4373720505728411 10.924213814977682 -0.688278402738963 -0.5278047986995168 -0.7381853148717351
Ni 1.9439483862272524 8.872754652013073 5.29932846513533 0.24897560283659706 -0.38700990403592056 -0.502349848961522
Ni 7.6128783441500945 6.553285421130258 5.893631952790347 0.1750849261947178 1.2628898773793735 0.374194240328491
Ni 6.576081600379243 6.918659072156154 10.528156805404084 -0.6939507705333919 -1.2254263332162767 2.607536207301948
Ni 2.8555248398892297 3.3907589649587435 3.9595833815072172 0.6690200687299833 1.7927883253831252 -0.7967342189502213
Ni 5.350352886166052 2.047996794871469 4.070620938146402 -2.1444393903037775 -0.3614284560223905 -2.506896801811315
Ni 0.5328163484825006 6.628525881714538 5.5929959035145655 1.1878753715456962 -0.10040363533074322 -1.1980016613464206
Ni 7.022436764502983 1.8126136418153125 10.527705922743262 -0.09225812340547337 -0.678968952412579 0.6065396908075747
Ni 1.3878317660799424 1.8722739127326986 5.73534880123018 0.37525379194125696 0.285593768280263 -1.0378016226833353
Ni 0.8161349562657388 5.123212577613112 3.593585215988382 0.7075362225273105 0.7704236060801506 -1.0055512472900618
Ni 5.50944071858259 9.179130820297946 2.9333716449642204 -0.08516650666601462 0.2923961359140771 0.30141556580386797
Ni 8.27296869258372 6.483599312164793 3.4525298894912795 1.0906940998069927 1.4253386028673196 2.9384986335249974
Ni 3.159109829797588 4.5138301921936055 0.4522950530902146 0.5239494295091686 0.7950151793765856 -0.2915985797134462
Ni 9.10787642381658 8.905408638504861 5.92065690730542 -1.620755812861486 0.10867564553154832 -0.7259756601794207
P 8.985447312084219 7.417299821854653 12.291817472615929 -1.6529311120424501 -0.7354146941051335 -1.2918145308335236
Ni 9.190090162819775 1.36312190265977 11.229126248247713 0.65784039796408 0.8314361412077811 0.16271843420956492
P 1.8852309548283537 7.266501509165018 8.94903970410348 0.09152535900450688 1.0743459974662724 0.9692184742972985
Ni 4.4705249196563255 7.439955975432575 11.721942863534483 -0.3469001804992284 2.476934965341902 0.8587278870441984
P 2.966425171370774 9.379386200006875 13.190322996636452 1.5678527942148677 0.9277946599348731 -1.1167134066888895
P 4.795151100403017 3.673489464923519 2.1129631052176525 -0.07125169635713535 -1.2182028188846439 0.7625588586200931
P 0.30908986579006487 0.8372480269485509 4.312424734973014 0.06900378086322309 -0.8995570052454186 -2.1264239275629637
Ni 7.271794479531182 4.823268255152379 13.177712284700558 0.3329640300341104 -0.2728302979670076 -0.057319145436443224
Ni 2.8737748523510493 1.2806467824039247 3.5197916873384147 0.025266230765956486 -1.5919892822517552 0.413115857094353
Ni 2.2933684457967547 7.452922352572967 0.3241986356977146 1.3853088406389433 -0.32629073177899287 1.3698138303271379
Ni 1.3581463238146807 9.029219336858372 10.642022880598734 1.4109463387013894 -0.7945634365511477 -1.3514098738986533
Ni 1.0222247389356087 2.560238704752511 13.267722653068518 -1.297455788279701 -0.9729013224655245 -0.3137380919249629
Ni 6.877827586474313 4.677968283813133 3.1132420874798634 -0.0727359942121457 -2.48869544831194 0.8501977380860004
Ni 6.584193754256132 4.461824657960971 10.624001576732983 0.03392981997822544 -0.9380469337905005 0.9596202890859021
Ni 4.01453598936348 6.023456286963759 2.4992780621031905 -1.7374604993450982 -0.7381269508299739 -0.06539986556204867
Ni 4.898172654126108 7.034656338064376 7.859514893637312 0.5402386535874953 -1.5593691822238884 -0.21528026746668086
Ni 0.5222957530633339 2.9017426463846103 3.5705360570270113 -0.27378674834300587 -0.655339228808781 0.5553420848878371
Ni 3.318263007527289 5.982914187668779 4.787028677976916 -0.03613428382871196 -0.4748704125943306 0.022598197015490113
Ni 7.7324789373269915 1.7694203898148824 3.5309274622057827 -0.5154851007918994 0.8248862559044052 0.3795989562838301
Ni 1.4688412843119998 3.191670465842001 7.520158945799311 2.31774151356646 -0.14068330878639643 3.8329188317644824
Ni 1.9407651359717635 2.999060487773087 1.5962907831041908 0.1297890304713958 -0.5436186258033219 1.581484011845057
Ni 6.832347248513194 2.6357778867683916 8.312955356716818 -0.5613340408052139 1.7562709471833817 1.1482261325851901
Ni 6.143280921214356 6.885192936772203 2.5932912976545905 -0.2233190786107573 1.3337397103123998 0.7057745026411975
Ni 0.12725813037507214 7.931184699609497 1.2095977569067837 -1.197394623890041 -0.2706065508428114 0.21178690960144173
Ni 0.09869662749620572 7.640015319202018 7.732656303177005 0.5738959366306245 -1.2836407367734795 0.4881912980729528
Ni 0.07748087132128098 5.771410079051158 13.536633552803892 1.521490147789928 0.13782269940914973 0.9695519463773171
Ni 8.811647449161374 2.6017516487001906 7.029911334824302 -0.7444711478804469 0.6057411061656793 -1.015860856746186
Ni 7.261684626080466 8.825295284567604 12.107164686681262 0.10960561354498545 0.4222497010748212 -1.06842346133425
Ni -0.11945589998346652 3.948929294948304 9.70819914831834 -0.4175109008382552 -1.0382433382064442 -1.382447202820432
Ni 0.733395654243822 9.022031352410496 12.941618734739878 0.6309469160073456 2.624347622432332 0.25402344967314966
Ni 0.28417463138566734 1.1549690751029118 1.8136386297274902 -1.8748923910737323 -0.1497626453798453 0.26036687539267417
Ni 5.083744008462945 4.250180523672287 4.411876567588484 -0.48373609051507654 1.5093848798859617 0.6811572183131495
P 4.804607500722108 2.532961704029525 7.702297804186168 0.16728599897558932 -1.5421767296050022 -0.376429557416913
Ni 9.098616059436976 6.424284437902694 10.125856517910044 0.9658156192633367 -0.6239378316793641 0.35713445663272686
P 5.650362553939947 6.372895016622736 5.1426705448639645 -1.185163886151804 -0.3297074707700257 -0.45463840181817183
Ni 3.335598185604834 1.536837750179977 9.007557365544995 0.006966918236136388 1.4502518211692312 0.4290860072703642
P 8.321426909816102 3.596886087807563 5.196406796390931 -0.28868551983170926 0.8041140563540603 -0.7460724309292958
P 9.087815412675685 1.7635859868539427 9.059052272830488 -0.4168277587283015 -0.4329701728161189 0.7444608634678017
P 1.8375662163986597 5.872331247708311 1.6856187597018377 -0.3890099651850849 -0.7431128340803396 0.689012195581194
Ni 5.310987002507999 1.0588927946645235 12.834325464544904 1.642393959956552 -0.7746960082032593 -0.7318542304473847
Ni 0.5306664876794535 4.336931094417909 11.828867399462327 0.11462235003328647 -0.20103584173252473 0.025540824583581822
Ni 4.040459408599529 5.891850826254431 10.079785271617043 -0.6123696672257906 -0.10683345011648698 -0.07085471802903281
Ni 7.339221507670173 7.237936272268256 8.517924934018186 -1.2445064897761793 0.04466006191153599 -3.7249504967126046
Ni 5.690157849655925 -0.193191551356061 7.252259031409008 0.013042949226887214 0.6789864359140758 -0.1395841621849467
Ni 4.101463925959115 1.6962243040281157 0.9422990193975755 -0.67786312094291 0.5919026576206903 2.4063710390804105
Ni 8.716205951765135 3.388397198640155 1.5094095217322436 -0.29799111350335133 0.08397968544676504 -0.493800416729614
Ni 1.5701265197139154 4.364572161885658 5.679727804170712 -0.8542670230593673 1.4823091067150922 -0.4810282046656103
Ni 4.967672062196824 2.7872296525896516 10.964286361522365 -1.1545286777644506 0.20942920800254253 -0.8758609471800594
Ni 6.679905967949758 6.936115605815286 13.177916722180308 -0.3567094532801663 0.6560971900207281 0.5734210538767351
Ni 1.7999739912407322 6.892595627249044 11.936352038074418 -0.16144522392409616 -0.5969294214113203 -2.2906785959113973
Ni 6.484047394312192 2.3853279715059035 5.9327075165570635 0.6688431768324868 -0.11291282354134748 0.9687826723114606
Ni 1.1307446340090896 0.4292393595975279 8.056012917839396 0.5168282450833551 0.5032283949117333 -0.293059737640005
Ni 3.272735994342484 2.45777725371367 12.567354387105983 -0.8161761297249169 -0.09017450140356728 -0.7174313701538354
Ni 4.977175137739602 5.381233214157715 12.204621620236326 -0.45434838138157885 -1.171873339690485 0.25470273512836134
Ni 7.172889680537331 8.727986778223865 1.2392747976317817 0.2387973767520145 0.2732838405646584 -1.1484189653222867
Ni 8.479497222356253 8.5972681467646 9.86012886843016 -0.26378952792097793 2.864113790855519 0.7947148745273475
Ni 2.2601170164417663 0.2696306316846366 1.5530209837369136 0.5407163645548624 -0.9684669408432547 -0.22871402437408353
Ni 7.7856140119728625 0.7319673923989839 7.428823001078628 0.41805854581160906 -2.6083062526987533 0.9442497201671028
Ni 7.942760155084001 5.69399455304304 1.563527576588974 0.2689954976019496 0.5782747824246105 -2.9098282621734985
Ni 5.485505663875631 5.319528568442815 0.9402303734837447 0.8555134938719589 0.2432063044529876 -0.4939803939509041
Ni 1.2809081636565747 7.484754855127855 3.0901247826919094 -0.8074973710039964 -0.1281764345686373 1.0234062731936115
Ni 5.430083503269071 3.30079713882342 13.262584644444994 0.568534415208395 -0.03047914242546364 0.661971132303002
Ni 3.6734427896998314 3.4972438202794485 6.1729271562917205 -0.030742680499495443 0.3601367337941604 0.06459922403762422
Ni 8.271596441007308 8.792034520167878 3.219743745881096 0.16713507522002186 0.04060903177061393 1.2727593139742854
P 5.866244798539459 8.71810096584685 9.738051687884402 -0.3827614131722118 0.792034756592023 -0.7181111698296794
Ni 6.456714383320781 4.702500781383292 6.690063430128637 -0.2389300456751369 0.15578339765262847 0.3390886548746096
P 7.482794495732979 5.1837970179595105 8.955720795622112 0.6573099793819067 -0.19198453016353387 -1.726446921843414
Ni 4.963135230454397 8.49266897048087 0.5557880265725498 -1.0808251774327127 -0.5101024963237473 0.130821071280336
P 7.812302904877386 3.1570187797763873 12.22829902770853 0.9556078254923995 -2.406500108459107 -1.1779246880908874
P 2.64487022034272 4.872109209218999 12.026540705796863 0.9400446809468196 -0.6627746020409038 -1.3693242922852287
P 6.360843473866619 0.3535956250805876 4.916756861189532 0.16290098253401622 -0.711875987553245 0.534683528097221
Ni 9.019949637434031 4.956694049585519 7.232256831049959 -0.33261461711449164 0.7361114630618419 0.2777395623431668
