# total energy = -340859.9909883296 ev
CRYSTAL
PRIMVEC
9.29230590541559 0.00000000000000 0.00000000000000

0.00000000000000 9.29230590541559 0.00000000000000

0.00000000000000 0.00000000000000 13.60022897324978

PRIMCOORD
 96 1
Ni 6.3419522062062965 4.109735936666903 1.4548572820701307 -0.21314316651902004 0.030857351700488794 0.5188272777912548
Ni 9.164610874788254 6.21318872556336 8.849791273230167 -1.3255175795129237 -1.317418861665189 -1.7124637201904442
Ni 0.5088159977283003 7.489403288237928 0.7396433769306516 -1.3283833310964928 -2.6914719268846548 0.2858573063542948
Ni 7.253703953135953 2.287867888617878 13.219435789144175 0.28491268305283834 2.3714179200439935 1.4060974952495202
Ni 6.212371002658217 1.687882291580056 6.841799270434087 -0.15910654848859052 -0.24668809235400094 -0.42549828991910593
Ni 0.32077132338473097 1.9524435283113133 9.465636977705483 -0.049365952027637564 -0.381008435036847 -0.13956847845566286
Ni 1.806322020545551 8.884215549075575 6.152743205953471 1.5031599820221724 -1.7198304449681605 -1.2054082382231368
Ni 7.01808824878564 1.8436399203984795 10.115972933396964 -0.059075208895601486 -0.1560068265173442 0.26520029222557556
Ni 8.301662317606503 0.9070386894581906 4.69163034365899 -1.0853374634807695 -1.5267632232634094 0.06650004060476289
Ni 1.4649691691766935 0.19221599039037698 0.9002497308843486 0.9421378160304226 0.961391522053712 -0.21963880154569268
Ni 0.07157398496443784 4.3510664090474815 10.295509572604741 1.7173884111855713 -1.2243966064001817 0.6346804149078489
Ni 0.8681643283937667 5.957148533195932 11.877936274030182 -1.2085580967060283 -0.07598046929137238 0.8411968201389706
Ni 6.504019310622364 2.342896923211763 4.3275791770583725 -0.4978799861156264 0.35434223859957037 -1.721840533419654
Ni 3.2231849229048612 5.475844265072852 12.256471357588161 2.0230774075538127 -0.19051720158938804 -1.4969965335239381
Ni 8.474564250515725 4.931445240973332 6.844233854538039 -0.8085664356984591 0.4693502541070498 1.1230774012337046
Ni 4.337499642666686 1.8345148761615333 4.280195851627583 -1.4813369726098102 -1.0331535823883626 1.200089911334017
Ni 8.129067030786707 0.08598263424530214 13.607844876781764 0.8896191773064164 -0.13900540686334126 -1.370012576601505
Ni 4.224886189400341 7.425397886298941 9.766106471508872 -0.6146643767972382 -1.744786600692866 -1.934025964011095
Ni 4.444351866374063 7.705848965846062 12.631226331170996 -0.14327652343486938 2.209636652936717 -1.3864452682362316
Ni 6.742840860453071 6.921996515125497 9.097886544189665 -0.043512835680970224 0.23025154406453252 0.39654098345480737
Ni 5.692884650248363 -0.2319712620389787 8.531233377072768 -0.33790980407516 0.4185398563234017 0.18242285461702776
Ni 5.21043742851923 2.601659761161091 8.834545387202105 -0.665198638101364 0.011896751437585963 0.6964848498091554
Ni 4.809994804947989 6.520866260929475 0.8833107867504084 0.7669708716448598 -0.7205403480964624 1.1146899485009576
Ni 8.963850609269699 6.733427754738177 3.1339825047205556 -0.15565895625962226 -2.1573028765300073 -2.418550611865738
P 9.236282428962966 0.03971717319506656 11.345215819785036 3.1686380774916976 1.4455713849744267 0.24678193761938794
P 2.5149346716871417 3.098630856762268 6.25330360944411 -1.6600852065887282 -0.664132915841011 1.3023496260368925
P 5.655631796535616 3.3273795471705205 11.20224997904867 0.4830339222417294 -0.7727283429539272 -0.6658280441552469
P 4.295693559141207 3.2376623352482037 2.7709925194354765 0.4157610080266839 1.5786871658262103 -0.9992949819677048
P 2.7805831081900103 6.850687360874656 0.08375805625108124 -1.567639649762797 0.8301058524321316 1.4402653993804808
P 8.002143426680345 6.100231456984626 5.049370176200815 -0.08719947793564337 -0.7909803471855797 -0.1024638602938816
P 7.956341651686549 6.031607779092724 10.769028746978622 -0.34597406914053314 0.5920024164233482 0.7708491236533433
P 2.6622827638106195 1.7194668387912375 9.260708183831841 0.09424969991420541 -0.013442241547834915 -0.5334887364581715
Ni 9.438102017335913 2.23548716115997 1.0677677018476592 -0.009709771088596181 -0.048433155800723035 -1.8344252841976212
Ni 2.8029403958011025 6.2218491545132935 2.2840496801892005 0.1137898268296621 -0.6629795189628582 -1.854133047039194
Ni 3.0305368402975614 1.6001257561689362 2.231593685054796 -1.3426575816273199 0.5840103993568071 -0.5152709278985641
Ni 2.8619372449460836 4.154339004220203 8.333744003174788 -1.6209586729009116 0.023296251523779232 -2.047952316418621
Ni 3.1767791480379475 9.048447760729125 10.787565038469316 -0.42035685492748254 0.8475914108114047 1.5804478572710587
Ni 5.694083357688858 9.387551874108839 2.5492539444776843 1.364908165495404 -0.8512017538704825 1.0505967175654745
Ni 5.838030465911396 4.724078146073443 12.830456153934131 0.023794788426752568 -0.17909996089138186 -0.06820930998638576
Ni 5.21214721277544 1.9007504314781856 1.3184731814895982 1.3802861906133712 1.877580736539173 -0.850453048629916
Ni 8.151192010754293 3.069936216636311 5.584212993077041 -1.8488931387964933 0.3274176462945845 1.5006367013796864
Ni 1.4498784646544933 8.194903016956527 12.424311771560658 1.1366528259252942 1.0687384214715079 -0.7617193934379334
Ni 6.086450967571803 4.694640121488264 4.904446446644974 0.192888530035042 0.7503162938073142 0.3246796785381312
Ni 6.624652023742564 7.042740735914579 2.381359635131893 0.23169984647528483 -0.4468639000790756 -0.28631470560668754
Ni 3.6969531310725814 4.249297076580033 0.6551261393005902 -0.635082535442274 2.508234546786132 4.0077651595858335
Ni 1.2205815282075647 5.017176053733072 0.5599041654577366 0.2100367596795544 0.27730016081290304 1.1473067060947144
Ni 3.5827506935246496 3.591160230219595 10.345381377512775 0.1745352243388349 -0.9808650573972915 2.2180469884875995
Ni 4.090212802306593 2.906224374104215 12.847198101186377 2.5319293192999104 -3.669608786717506 -3.17764413764505
Ni 3.9790303641242497 0.11067414905835041 0.6879093939522665 -0.44270694048790854 -0.8685731552693944 -0.7224198245073623
Ni 1.9906720741267885 3.516896122743349 12.230196433876971 -2.566679578296902 1.8429407778678002 0.08575734617247811
Ni 7.4959543637848185 6.84771382303777 12.895900004801712 -0.06003962969139983 -0.1380561555761945 0.6419957176223395
Ni 4.11618479685065 6.49529383553225 4.732771098093466 2.1735319367943604 0.40643253153690645 1.1440894847089975
Ni 2.796314981808289 4.1450188215627115 4.452469624668764 0.883162365937479 -0.15880572941872004 -1.293653126704159
Ni 7.162964587582206 8.573964045019405 6.4112021855050925 0.15149531180023587 1.3097639162230925 -0.7799251178126826
Ni 6.0274912876497835 0.775067504873713 12.18856597492998 -0.5475632122733667 -0.10920040768676678 1.0245735540288354
Ni 1.815447064782497 0.4486799118995621 3.9775092136745673 -0.7556127663195632 0.8443425648568039 0.190111224400221
P 4.464516169830452 9.098551873280668 5.008651292446948 -0.2535573086700085 -0.562089945134632 0.27010981371205095
P 5.26595895531735 8.931597016045217 10.708113036698276 1.0682522258637086 -0.4934507466996792 -1.128022918164438
P 3.3966908556872024 6.244429457462152 7.3640073391952665 -0.4437040142938552 -0.7185297454243368 0.10531392814816702
P 2.23103614671038 5.468642728124141 10.262583216444664 -0.13491735283689665 -0.29596636976383867 -0.9774076949763101
P 8.219574088696948 1.2584662587106499 6.974999827068003 1.9440339830664006 0.018674436481051708 -0.10593690644414659
P 8.064299659777019 5.517864071630357 1.0354481332524224 -0.08072955394058354 0.734078234681897 0.4904137596455683
P 1.1911806728453471 4.55838704241867 2.805808930583124 -0.34971091047514613 -0.4112916594014207 0.3106252573275941
P 6.154266214864302 8.699159280258078 0.4105415014497676 -1.1033668101786547 -0.9212424606386521 0.6173766335220786
Ni 1.2539966596495793 1.034196459669208 7.583650499208628 -0.7977629173250519 1.3788080634059479 1.0810414072085768
Ni 3.4950499119479717 8.580264228311309 3.125006137375453 1.2835412350811377 -1.0117188095533545 -0.4542884746779208
Ni 8.903162560479988 2.1215913697014672 11.503264001968436 -0.27746265453269636 1.0738567165346795 2.5115751811235905
Ni 2.58926382530357 8.662844949425098 8.683051997487892 -0.49740407492047234 0.52671542229008 -1.6440862600573105
Ni 7.604600002500068 8.405633926534396 10.912116316920187 -3.3230171385976317 -1.721783454929473 -0.16352987436726676
Ni 0.4282321931180957 4.497559609042855 4.9386235471576905 1.0468601333411778 0.22117992078056747 -1.9388357266949126
Ni 7.311269787196932 4.404190520964612 9.386497197407317 -1.9248422406292978 -0.45916997113993824 -0.8569792797842078
Ni 6.830838995813437 6.4113285608631605 6.8905699371119 -1.9322717003241496 -0.8226797351713896 -0.38491471206978867
Ni 4.702575750590455 5.3066778390712175 9.09886595321469 1.2663726937216513 -0.08851588275422174 -0.6511295616028077
Ni 4.611678415839124 3.255791623747472 6.2679371325238895 -0.9317276764406921 0.07198266098588894 -1.239083261878079
Ni 5.562104739259788 6.4140604987508 11.25001428901481 2.1306338518792534 -1.0243712082100422 -0.509718116401135
Ni 0.7516611159445441 1.994769980958248 5.422139384046956 3.484659051913566 0.3394743203488024 2.8615977093018845
Ni 1.9205895042336643 1.4809333504384794 11.312166805189188 -0.9213684446935552 -0.758095680642417 -0.2945540627973443
Ni 3.8796491542320504 1.1667512010541745 7.39784434131789 -1.039052721481617 0.4946748489147674 -0.07150443579788976
Ni 0.445898724791499 3.380605874450793 7.75219805764796 0.9831787931321326 0.05370957370831395 -0.5988099262634848
Ni 0.31522567531893725 2.2262877784771016 3.295756901505804 0.23875983864585976 1.5944765674499828 -0.8043410847632019
Ni 2.0351357570939856 6.463839380601432 4.340118214424295 -2.2847506604627363 0.9641922247273006 -1.0781692278671042
Ni 1.2530209675468509 6.122198467754627 6.298551563015787 0.4524586205580337 -0.07098944383468418 3.1326668016034116
Ni 0.17350407432119316 7.993956905323166 4.813827881065851 -0.15014008332392206 0.9601990444075076 2.2301820811882367
Ni 7.89400886478081 4.529766740738634 3.255976540631704 0.4705792414181444 -0.5682456803233827 -0.04401574345931775
Ni 1.0111980029620369 7.596469234977332 10.028223831830436 0.6938114167420503 1.3580070675001967 1.5545087688077937
Ni 8.885154071955343 -0.1539196107429979 2.265417677949383 -1.0372722325424264 1.4794757510313554 0.7142198051950732
Ni 8.06948476638009 9.274018482574206 8.74984323268781 1.1960568789152242 -0.22980262945257196 -0.715573233899174
Ni 3.9824592249424096 8.190749356290626 6.888434565252786 1.957589353153332 -0.8714682174290024 -1.0734211716591577
P 4.843651536339251 5.4583282687524415 2.9452111720680967 0.689561897437077 0.5223658870721326 -0.015727438037585816
P 0.7318908062515435 7.7382605282681265 7.6051659039196515 -0.010642310205194577 1.133855208575499 0.8984267482957172
P 7.562561611331082 2.0539433839122943 2.3360159708110926 -0.7676601844024005 0.8460076112640527 -0.27002188198393495
P 9.115603254314065 3.8272219652454416 13.10728880962599 -0.6695468877677306 -0.995932236143059 -1.409310088649547
P 5.898374699388717 4.1347229468024915 7.574620236490232 2.105588735985167 1.9139176232969937 0.16993732055550734
P 1.4343788986797212 8.074558365314278 2.643979709194008 0.4406099487495637 -0.7776610043688542 0.9731525192443821
P 7.558770350589051 8.440117673136541 3.831184204413093 -2.0073283722496718 -0.6707799888438836 0.21235178096597623
P 2.2766427832836302 1.800597960209544 -0.19730910316661954 0.7156791633494191 -0.7040395222279616 1.4116071122138398
