# total energy = -340863.58294038847 ev
CRYSTAL
PRIMVEC
9.27761161795586 0.00000000000000 0.00000000000000
0.00000000000000 9.27761161795586 0.00000000000000
0.00000000000000 0.00000000000000 13.57872239823250
PRIMCOORD
 96 1
Ni 7.049583856793938 6.946231264154236 5.640425066298586 -0.33369987975887044 -0.09707097141308443 0.5495301061917504
Ni 4.3520440784515415 1.7416952934330148 13.12164887258111 1.9826820344559015 -1.8601820814467511 0.6176723103856265
Ni 5.155976951881348 4.211367654556049 10.819946740765305 0.6446066728826254 -0.18598126139224747 0.9789236174002045
Ni 1.1118289678583317 4.564343663494117 11.86493793951278 -0.15610812798189888 -0.9445006598356444 0.007511220775380611
Ni 2.63483240189251 9.161001248008347 0.11202159286973166 -0.6980977028222299 0.1677220580717434 0.629769864980109
Ni 9.157447922785638 6.522699019397054 11.562756853797545 0.06922875238983561 -0.174775365374099 -0.26733456495975894
Ni 8.710768037217319 8.100013591430589 1.2098645613201324 2.052264056420098 0.26591197358061947 0.6023302807119175
Ni -0.05924311629803207 5.969892535336317 0.4438093925555063 1.4299442199601309 -0.31022287968285284 -0.3996383914332085
Ni 8.132559452739391 2.9548636122252296 9.173011116156651 -1.508465453395486 -0.10975036665296582 -1.117107813913831
Ni 7.627755330825676 1.8690954552039645 13.246505113265721 0.5878480279353424 0.24119467333959752 -0.02643016916707061
Ni 7.554239536922893 4.056051159638522 11.212616082948408 0.8960849875364181 -0.7401524659004349 1.074871530952439
Ni 7.859389458333343 4.5294134560175925 5.27852492281293 -0.6020955389932922 -0.838574294914459 0.33637125594344647
Ni 6.77119056708662 8.867680281321023 0.5989421907643909 -1.3622259906775507 0.8820249098989261 -0.8044457286618661
Ni 7.280967488789822 3.670269516268319 3.086498075906481 -1.3553799142899947 -2.5098630835284905 0.44563337010608417
Ni 2.1081609495612197 1.7392088935382715 11.254764272208925 0.14198840075106514 -0.6111121406696056 0.4886001034755972
Ni 6.469426973891026 0.9439413092938761 8.446074068721112 -0.9668625724706122 -0.028870917398079312 0.4594101121752023
Ni 6.229118279586398 1.5868983447621514 4.414646617890941 -0.8424990838901619 0.22224461459965594 0.6603927320722885
Ni 6.939950321136546 5.88594870605409 3.3474670833663462 0.7451879714418134 2.54498872358703 0.20046531394103542
Ni 0.4816536978191155 6.587586634560616 2.8189289755916893 0.31527766849794087 -2.915566964429489 -2.0787703302407423
Ni 0.6762182006273949 1.0585383671292075 1.9039542250715722 -0.3576695032005905 -0.25949655697257895 -1.5428151345199494
Ni 5.701370624315593 8.882774955308886 6.216040558348973 0.2600197764659006 1.1735638400190305 1.5621279759159485
Ni 1.157539759953108 5.6582575634541294 9.681425156723517 -0.06493063923511398 -0.43698237929930545 -1.7244892838964105
Ni 2.1744123736222707 4.861097346454034 2.0754258249768465 -1.529494249041327 1.0003702173097544 0.5302329485250352
Ni 2.652970132467969 5.846797185323431 4.217089157597423 -0.4655925868368304 0.8596794523241904 0.06575519201893837
P 9.168590334254244 4.503371200403621 3.276369035032855 0.696561982903994 1.3285640796487312 0.16038078721532378
P 1.403183080897576 5.151950468469711 6.143774458721645 -0.6078944050632563 -0.6337393911508182 -0.8611251836317814
P 0.7160776031191319 1.0473774004375054 12.945017065133088 -0.3936582625903737 -0.15881395694883615 0.5120318521359762
P 1.378328359561691 1.6483439660415715 5.925686571834554 0.1486619561164988 0.7901915327356971 -0.9273755701195834
P 8.27082369763252 5.37419565309126 9.398308634977342 0.27425726022152125 -0.7448982081155365 0.2792842811224674
P 7.659772368276268 1.4462683089243962 2.862761051348087 -0.21630793740024684 -0.8104592818457977 -2.5417825579449067
P 6.884813475709459 7.964254301655296 2.5771191637386686 0.15058616972240518 -0.73352416195064 0.5315794352506006
P 8.120786163685551 8.031925200283121 7.2590083100179275 0.9040075848176043 0.45977752281695006 -1.397763264352212
Ni 0.9056702338990796 8.965382808528267 6.597046087294498 -0.6190059415953855 -1.0967773298865948 -0.8825321885526478
Ni 8.365112063790267 8.601756101533612 12.093264598503746 -2.5650800950202663 1.3443087440774977 1.8023271181114957
Ni 3.2798768999589836 3.636211404277265 9.263730385152055 0.8098594434782699 -0.07052973058944627 -0.6533450811968877
Ni 4.791737922524555 6.154238676786126 4.7070370401400465 1.9056715812381178 -1.8460556693476982 0.042148351233275795
Ni 9.231464707711986 2.1138574030514152 11.123621521939695 -1.645181292893702 -0.22722766963654414 0.8007749646784983
Ni 0.8611581092162467 8.807505692823616 10.85713882993712 1.993265980619335 1.8819981488805781 -0.3361539977263178
Ni 2.7273858546908634 5.565629889763396 7.581231819959334 1.4683004511408262 0.6219210583596515 1.8893970124478108
Ni 8.983845255507891 3.327053554678273 1.412906945560563 0.31905230504902476 -1.4178788041551647 2.2055848514648466
Ni 2.1657656396599547 3.29511073812006 7.219317760056356 -0.7923232343667193 -0.3630904171058456 -0.8965896950869785
Ni 9.14157392942778 7.6425438436324695 9.232879543472988 -1.210085331983832 0.09562266900233209 -1.160542488058698
Ni 4.719892098700331 6.578643017028779 11.823441966344056 -0.14971276597851635 0.20020820362490682 0.9289118042584519
Ni -0.07288306079523935 6.328889714168746 4.978068545084384 1.3464142204562746 0.05206458190572324 0.8531920448276338
Ni 3.9438848360286487 3.7912031827906265 1.223856127294992 2.6818521444067036 1.7705570247887505 -1.0114670985538645
Ni 3.5572589300076185 7.312437147159111 6.205774881171609 0.19403935581003356 1.090802600360399 0.20185859474413623
Ni 3.9719032229022484 8.995349493826852 11.636326457847304 -0.3875814602686744 -0.19165697162078607 0.8005546211375761
Ni 6.858168175344897 6.191423343868705 10.80031160368607 -0.4442462599505704 0.9569540551076486 -0.7137081556659773
Ni 4.838478529501109 8.202345646800058 8.423220528196033 -4.617161603115913 2.5311045094057696 -1.4705843620789962
Ni 3.5655160042849374 0.6432390748593209 7.123235103825315 1.1004177548526597 -1.2067048455473735 0.23856392058496975
Ni 5.2485211270681535 3.772824234314931 5.004669312913517 0.9817741994751221 0.12736448019030325 -0.37914104281080513
Ni 8.811476510565967 2.629469942418026 6.6856871713032495 -0.21627039929409206 0.10205736888408229 0.025458292172104543
Ni 1.8192932364167187 3.351268120817377 0.32066394344026283 -1.6156390604602109 -1.0142444041886858 -0.3606093025552048
Ni 3.402545479840683 2.8622081056998527 3.2843533475306765 0.5886278435241605 -0.590976289151679 -0.5964532531058503
Ni 5.306886581313789 8.254958981886212 4.138223892876323 0.9305400838904943 -0.08505594923007932 -0.8158228601505564
Ni 4.610963661520553 3.6291975299473176 7.203471599533142 -0.43641725082445487 0.41488966116532416 -0.15351594177469044
P 5.416696391590584 5.920888191142161 7.0094721032681075 -1.4440672896250744 -0.0688050345888557 -0.8040220108608862
P 4.273536929536178 0.7646542494209463 3.974139127285208 -1.1975612313748925 0.47632925652804414 -0.9617432489661759
P 6.0023456205296455 0.5098455760286541 12.427002552136816 -0.27090865546426246 -0.7982959070103864 -0.8549655917882887
P 8.424015619505658 0.7593446723322838 9.430870268225778 1.3658820993728993 -0.5171989981592126 0.8052682245631615
P 3.258928053084617 6.754908358820671 1.630166341736458 -0.1655870140066116 -0.3840652195852999 -0.5403399550520501
P 3.1683228987112484 1.850299014208629 1.2479807006020849 -1.6722092435457716 -1.4784887045277377 1.812168272571634
P 8.765199784166791 4.004671746888193 13.137576676085942 -0.8733644060104507 0.0518915466629687 -1.9328694818091487
P 3.142781634120845 9.61262610053151 9.719568201078959 -0.40425789248309085 -1.9060227939299494 -0.7359332856127648
Ni 2.300467281718826 7.986873118608221 8.123171437614426 0.10842959095901325 -0.4150277294050852 1.8991162966181034
Ni 2.9480909557955184 5.622687200780825 13.278781923839647 -0.6905754263032559 1.196816639899384 0.458803588939455
Ni 8.187891128008976 0.4036920724627475 5.183867307715591 -0.8806755949598832 1.5127393981804913 2.714638080588473
Ni 4.738391656126145 6.137882247627796 9.51644417385691 -1.5505528694838393 -0.4743929587372797 -0.9220441306043411
Ni 4.2353038923487265 1.8936625705818755 10.614976468845294 2.908422640075223 0.35229075538718035 -0.5836087930430143
Ni 1.6166238121604999 3.8545228816026516 4.365070772825455 -0.22219987740464955 -1.0685193634821661 1.4241196428585536
Ni 9.156455218350048 2.2813832347655167 3.952209636870265 1.4513278278422295 0.30851155341870096 1.359615035417265
Ni 2.5363783881499145 7.242233460578804 10.659324379803733 0.9102355680051872 -0.16614057251723646 0.3214046073312852
Ni 5.5447552637814095 2.162657639791526 2.134996440962507 0.10259447233447491 -0.7288460397486802 -0.39032097068702454
Ni 7.233401174385536 4.970044338856908 1.094689508285389 -0.44722925383829426 -0.5269851310116989 -1.34997159879023
Ni 5.802246094672099 8.354470643345227 10.396195544375601 1.446394137986038 0.8162026120874782 1.2889001854002062
Ni 3.608053853230452 2.1433694853841705 5.473609899629026 -0.7083666888484058 0.3550058403254983 0.07481190290456795
Ni 6.955184159297621 4.426042308154797 7.660558181974347 -0.3263673506531992 -0.03239101473619583 -0.012368034647049667
Ni 2.0819702521624874 8.229584714303664 2.757010196123344 0.950288470162015 -1.431436488234941 -2.7788830066104726
Ni 1.9763075342474463 0.7578389159781165 3.8335313577151666 0.28936891905197903 2.547693524112703 2.6275375901245397
Ni 8.915228040502214 5.832723048605799 7.344703752360333 0.49236085606961016 0.3782763808176646 0.17158925433663352
Ni 8.955585650734054 8.342576745341269 3.7887761596097875 0.1194177145394008 0.7294960146278533 -1.804252874379299
Ni 5.2936010415776975 6.1583857691478805 0.8538399292275396 -0.5621524229414512 -0.19863211738703856 -0.27093050984113337
Ni 1.7952642225085655 1.1697305415265882 8.294222761716595 -2.350035083492843 0.7104544246153699 1.538825296634266
Ni 3.3971830203661995 3.470179268022319 12.291052143563647 -0.44482732926502094 2.074177311553421 -1.2274937572682665
Ni 1.0344629651633166 3.2717775450779727 9.465007239914984 0.7367436973292021 0.03511124188083631 0.014156494006040136
Ni 6.872251589674077 1.5494353493331463 10.808405392000152 -0.5094232108685355 0.36264253093514964 -0.3267764131661598
Ni 6.5629174654556826 7.124277907363259 8.443195225857908 3.9500171541420874 -2.121399477765179 -0.4322348373119911
Ni 4.733038474263209 8.34965556295205 1.8289586521269559 -0.7646375955259928 0.753278975980064 -0.054291414353712944
P 5.285436743415854 4.574298540684637 3.0236552463279995 -1.2649948395375181 -0.34160473642824396 -1.0809907564762995
P 1.7865525452654165 7.7128588615513465 4.767258944456345 -0.8085214413931365 1.0819747176561239 1.4246989124007914
P 1.2022300147776541 7.567747739336125 13.041982949983456 -0.05546229473336255 -0.4095083422487528 -0.21256286853551778
P 6.752876561891758 1.6424619603204254 6.460579843519283 0.698717595794416 0.46580855950237837 0.11073844159784799
P 5.572383990970012 3.157440260365973 9.003140832004485 0.8555026952386815 -1.0907396083329473 0.7016000595485337
P 6.773324417742558 7.0343964066905995 12.789784996480643 -0.04746667812239567 -0.326902654331379 0.8638659796017121
P 2.94282127243651 5.0033324090895155 10.791268715710673 0.9785376948156954 1.6921592043051374 0.677532991297001
P 5.500417558195671 3.7180028276804613 13.155636474724401 0.8378672415451055 0.6731898838369567 -0.37489023795425114
