# total energy = -381168.676020955 ev
CRYSTAL
PRIMVEC
9.20547060273205 0.00000000000000 0.00000000000000

0.00000000000000 9.20547060273205 0.00000000000000

0.00000000000000 0.00000000000000 13.47313673033517

PRIMCOORD
 96 1
Ni 5.861758185127775 0.06852920389240871 11.108398552785472 1.020125802670127 -0.2720360842004863 -0.9581146510746532
Ni 1.8484768685190822 6.786383249144379 11.703237639497585 -0.9931125073060768 0.8869460013496273 -0.60653403438062
Ni 7.621687633808982 5.514555457814629 2.397463507137584 0.46129627345432167 2.1478059927831654 0.15247284522215676
Ni 8.117190489367076 2.306172857118642 4.7311726878824905 -0.18196288426147372 -0.029574371223007132 0.9970110710295346
Ni 7.258356922344058 5.503085441688421 13.301502457998026 0.9425805599947961 0.206277035526806 -0.42912714492094484
Ni 1.5265707738823566 4.686735120590321 7.4571518174085 -2.1998479489810694 -0.6541691197600799 -1.9043150672102234
Ni 7.752994463683963 7.712085353198516 7.4026802873735 1.2797072060470285 0.9714219097065204 0.9681069864006745
Ni 5.365031002005646 2.1060459304864128 1.6919433675427678 -0.13642556195130698 0.125800478137293 1.64192190541614
Ni 0.3924172363076035 1.237509797655189 3.4249247221566703 1.8204302554701097 0.8095987336177155 0.9202991228887764
Ni 1.1362956505382913 3.807014341215484 2.7853286383292892 1.2949628466545182 -0.695328367607209 0.8998261997464052
Ni 3.242212704439016 3.5552171091928826 5.7380200930208245 0.009713113522705853 -0.5895881505549008 0.9948474877193124
Ni 2.7697235248965866 1.990314756538833 2.3217181349937035 -0.6811932137574075 0.35536605187839443 1.533702887806036
Ni 5.931646116452148 0.05258624969579614 8.161015892877229 0.8128627490809677 -0.5807044749120258 -0.49602467807444256
Ni 1.998369543144316 5.243601641876587 4.631228895681658 1.371163916597129 -0.588646869687554 -0.9373154549411148
Ni 0.17722739844960098 8.596703442829487 2.0249853197299537 -0.4780668080444412 -0.8234286975222721 0.3221569121162774
Ni 3.909167446313821 9.164414008254335 3.0952777474553157 1.6990685298304609 0.4356052964461207 -1.7905514656328065
Ni 5.26992928723851 2.8514404856930127 9.93580481188823 1.4203300939091346 0.9448917246264759 -2.707631567363653
Ni 2.1906718199312185 0.03584426066791965 1.3442389420924807 1.0223307807412458 -0.12303911334207196 -0.6666176299360778
Ni 4.111825877307774 7.479315828505667 10.344310448824865 0.2965762354336957 -0.09584738341862847 0.19276845951740992
Ni 7.308149311771552 1.7207049392801061 8.711783790019345 0.42938142702359605 0.8470067419525283 0.7406715716286986
Ni 7.626446862009021 6.671793553527176 5.2013982422520195 0.08624431311122567 -2.2977915528070945 -0.38971933254728364
Ni 7.467689319382553 0.9697594854185277 2.3514527249529844 0.47741966137874553 -0.5106894791754689 -0.757711814940437
Ni 5.6514408027558085 4.353764050525263 7.478398963653203 0.019419027956560104 -0.016817585777971038 0.7741051686967958
Ni 3.805292918249512 6.433509952060974 2.5537926466708796 -1.6664587142152398 0.7962385102607255 0.3888904088880851
P 7.9833245387191525 7.674398157355262 3.316682198384589 -0.3225369211635155 -0.8376173303178284 -1.0831000895098184
Ni 2.3514821824582843 5.918390239067125 9.581272689037617 -1.00435594143038 -0.15236434466875048 0.48300204056252943
P 4.270298050351647 5.478405575529222 5.003990611577801 0.6453278673193661 -0.5796634352420211 -0.5982041743586859
Ni 3.8856198530145916 8.51158966345315 8.142071955328174 -2.0766931359967398 -0.8174591102023986 0.05409883872693264
P 3.1992968014050027 3.4453590253645006 12.22621145984206 -0.3106049456126199 -0.6212376591393817 0.3011152609546298
P 8.79593743883231 5.436999369641836 11.707172057549222 0.32540267274708473 1.1448777849382477 -0.786815931395245
P 2.3082809098416766 5.347338087884802 1.3189892573151332 -0.4076288658378528 1.3662232847624018 0.4331905163570411
Ni 1.3344065791515478 4.191038950153694 11.238926599864083 0.023476228745069248 0.9635556195845663 1.4026200782238811
Ni 6.694890078776498 3.2268027469789264 3.0890530083665984 2.330195423059097 0.5263040457842743 0.5582592585346321
Ni 7.3660701315677795 8.365103012878235 0.6306299556516779 1.3836463653348559 -0.8402591388160497 0.7013702029259147
Ni 5.280276235975152 5.168724345592017 10.229249433122863 -1.103217429084984 -0.8907779735012079 -1.4648508020293287
Ni 2.811010059668691 2.749195325890613 10.091890927002801 -0.5998982742316571 -2.326660927543277 0.6234616633738941
Ni 8.936744314166557 4.7877283364174685 4.285266145232236 -0.7327510312300413 -0.7033370968442985 1.144338624605326
Ni 2.0173604285924434 1.892930085110942 7.766926022596807 2.1294400886814677 1.5287087770255543 1.9927031661373293
Ni 5.99108583886541 7.65889614519111 2.5893478555680427 -0.4691553644874243 0.06921821086687434 0.5658689525610899
Ni 3.4622878854416244 4.164775743084617 8.597140702673785 0.9991929091722017 -0.05015990868384264 -1.3259855202882778
Ni 8.141281205420276 3.3736299999588737 12.21647023105815 0.174991338039647 0.8707220832915972 0.08752472248554603
Ni 8.797419519567717 4.092982279386146 1.2432715015824711 -0.5965712667409532 -0.9618224389435437 -1.761310566489818
Ni 4.021013911749956 4.021750349382458 1.9631567777462662 -0.7814932336307508 1.4099343524971073 -1.8690228196668326
Ni 3.71989376929058 1.87205207822953 0.30084305780014775 -1.3173070186776732 -0.9113262299662047 -1.734953416652528
Ni 0.533928330127932 8.751171236246636 13.236143618113534 1.8544390083153868 -1.5195772470379314 -0.19504028627072215
Ni 5.134470790210301 5.9303941724768965 0.5674831903058132 -0.4851689663068611 -0.6390646600184736 0.6839921166587833
Ni 4.519269202959525 1.8410112320196002 11.614032028525662 -1.1604836097963047 -1.7282497793801075 1.2831265161412224
Ni 4.520815721987778 2.928757231635243 3.759988195645073 -0.7862947687844524 -0.2592078220875665 2.3775690272470533
Ni 5.381582437796113 6.801535453433093 6.659232689157825 0.633191231956832 -0.7301619303466264 1.3513209137292728
Ni 0.5053122048230125 6.4298461748392794 0.09958661994906991 -0.48037668712454046 -1.0430086208055713 0.8030259654962041
Ni 3.728602144294908 5.495693448952189 11.976189963060829 -1.787927397746398 0.5803496626757683 0.4874593050029347
Ni 5.643956755315514 5.336576892979877 3.1743113136283148 -1.6248117280984145 -0.5550098983593991 1.6449743190892188
Ni 0.6222548186760569 1.0659474456936042 6.3927334003493765 -1.7756694063146516 -0.23337054930948842 -2.0725958259989143
Ni 1.8498300726688033 3.4198138449871114 0.606818165351789 0.3632842782842066 -0.032933774613543285 -1.9110852960545215
Ni 4.413949416041432 7.68401787392981 4.754225026873862 -0.8762604966113231 -0.5075213658601324 -0.6540325941822156
Ni 3.1593910871938387 8.96748137985308 11.860348323468372 -0.5148919472925907 0.7183489968720983 0.2772217421664839
P 0.8418052878655078 3.1730059779247064 5.7369154365720725 0.461284960600412 1.0334070931600656 -0.26482953914971813
Ni 4.516636438423333 2.209386541267158 7.768583927816976 -0.6938988342495339 -0.8525567252364802 0.6715371787248822
P 5.585419169002067 6.577952988205698 11.85245279150092 1.5695358383442453 -0.45132065029884855 -0.349982676079294
Ni 1.3529279856089556 7.3309420564974666 7.948153197937931 0.4993195467756304 0.44978930125598665 -1.2262920236506816
P 7.385346386598501 5.716910108285174 7.314619836920117 -0.010455905226001348 -2.305374507360675 0.48009797954185707
P 5.266440413954534 0.04704915924642697 1.3756747029828396 -0.2196064056458605 0.44694823226276575 1.8137168480056765
P 4.208372850928694 6.203575712253254 8.52015535366618 1.8493096575086214 0.904104772517101 0.9481228299692639
Ni 6.436980414404136 1.1605336541179903 13.389642996043944 -1.2999538721112063 1.198192437200988 -1.56813355868008
Ni 8.137147949207863 3.2165938802983773 7.069247102694048 0.43210165416823654 0.9076552088725207 -0.12489853514831392
Ni 0.5926306943616513 3.7478139610327856 9.163484255743302 -0.41873114639860143 -0.34734292446360177 -0.17793525115931935
Ni 0.7503829996197554 6.839185827394723 5.471710436902744 0.5617652148053616 -1.498184640294768 1.5311744649572274
Ni 9.151949801324252 1.8449972007055133 10.278305384917855 -0.6107799541411674 0.20301353428418586 0.06439250734345685
Ni 5.900338311600437 1.0347685174275802 3.953570953365487 -0.47212498863870944 -0.7855121249821568 0.6788596805282244
Ni 0.48364989186298674 0.15716131405802175 8.526784212905733 2.1691402354845675 1.2891673230186635 -0.8969576199493585
Ni 6.531971663526397 6.907932280388719 9.653515379691914 0.5023195099442188 1.1984125236315941 -0.8460847443588912
Ni 9.011851747211285 6.3417682339921235 9.366092977197061 -0.2400929556349865 -0.6052333132913255 0.8786984166288544
Ni 5.461706852212255 3.9292813991515128 12.18294851057373 1.4545365645875143 -0.6859266146773347 1.6448138822519545
Ni 7.459910696889258 4.44879212152915 9.433122609960288 0.051142070091453856 -0.4599287036828337 -0.39048809239250815
Ni 0.373392290618973 1.733601803319285 1.307847876482429 -0.16323059795929307 0.01686617962771934 -1.6117314978756887
Ni 5.736968828300429 2.2919872272225854 5.902217148110355 0.7913801537271598 -0.30902166028590006 0.19418950823465267
Ni 2.089052632116445 7.937600967211227 3.533464582622875 -0.7758301218077026 0.19764712776594992 1.194373063454898
Ni 5.206015706207802 8.192196662237334 13.17750845381378 -1.106428994043746 -0.23002657253791997 -2.12822061445207
Ni 1.43514204180732 1.767404290651095 12.06233751676379 1.5248256399210642 0.3778554912301621 1.0536157068974565
Ni 0.8654789961093028 8.978362245873287 10.918521917450619 0.7296163422558014 -0.7428174143271078 -0.21047076189317945
Ni 4.303382510991768 0.4076301967009992 6.129064793690854 0.3632146013885358 -0.4917466195243789 0.013969317695898523
Ni 9.046510343290878 8.68249842701589 4.820729027276893 -1.2554717305384313 1.414616331353809 0.07357340251177652
Ni 3.0015356806671845 7.261008097821062 0.3025773684246883 -0.541811397391254 -0.40159345827705034 0.09566972019018362
Ni 7.6137249019075615 7.593417634191337 11.8652658857594 0.6922895807808851 -0.5568721483791184 -0.28265808269070675
Ni 8.185071628142884 8.575816230477669 9.675153758428882 -2.917993314482794 -0.07987260525692695 1.4292695624906095
Ni 0.6929141684204757 6.314556863471201 2.587017030461176 0.24718380104349685 -0.833763246679061 0.016504425412926415
Ni 3.1033942107125205 6.018775893847459 6.797669155862462 0.1901094246280081 1.0159295052005923 -1.4955559444226696
Ni 6.5331131418567745 8.487563385692795 5.556563701466585 -0.9433408351995882 3.056584516626852 -0.6200025011806999
P 2.030340141865279 8.516477768238877 5.8255015193856545 0.7539320361830306 0.7432938397428941 0.3158505102822754
Ni 6.553613724451529 4.303124757820393 5.247638240649735 0.029509579423342727 1.4663582398127908 -0.05165654783402717
P 7.477760104007007 0.9544139662512818 6.634522444946286 0.14386324917627483 0.11861527324276348 -0.5201308270940268
Ni 8.500230112971817 1.1309012448802191 12.684122856449127 -0.9556294227589542 0.353043831503121 -1.536274505187954
P 6.354177208099771 3.874840247168854 1.0453621727711115 0.4848105545261779 1.4014792797512188 -0.9757825006680613
P 7.0386959875097315 2.061592713894553 10.90921242522876 -0.3706489461793939 -0.6841139869486283 0.6190025991612758
P 2.655529664506853 0.42803964513873216 9.643936167187151 -0.37814808276991646 0.13174872530092793 0.05294801295194108
Ni 2.8115255660114418 1.1680637289103162 4.603986226561353 -1.9020473542219694 0.9097303462339945 0.8253408269433206
