# total energy = -340872.79666380794 ev
CRYSTAL
PRIMVEC
9.20601337262782 0.00000000000000 0.00000000000000
0.00000000000000 9.20601337262782 0.00000000000000
0.00000000000000 0.00000000000000 13.47393112893320
PRIMCOORD
 96 1
Ni 4.105476885981545 9.268798353075056 8.776595167335302 -0.692729239421465 0.24856936853711387 -0.9107497886374444
Ni 5.87484503228969 2.5772234351158714 1.1028868425907696 -3.3438497590722673 -0.6981123581102493 -0.09265561595420817
Ni 4.613915796851395 8.457638105477521 6.309572314930823 1.8787413325061773 0.8919413976816897 0.5973503109988229
Ni 0.8365587178070043 6.272839401094582 7.850653424787354 -0.3403461814307945 -0.038151828479373005 0.7128535209751659
Ni 8.21493076972687 4.85124682081027 4.102839363159038 -1.1601038578593825 -0.45625639703756904 0.5103259251884631
Ni 6.022951374937106 6.244558528107706 7.272904280667637 0.08685932098740524 0.04619861004324947 0.21692011706294897
Ni 7.774782065828584 0.7267834529120153 2.8117668782347645 -1.086529941126974 -0.43748605840860133 -1.340326362390982
Ni 0.32141598802145027 2.7187382722103566 10.035410702110253 1.3769398998489577 0.02201198549471693 1.3959303249085315
Ni 8.85606515690949 6.507206088757306 13.503573696446143 -0.5564705420653255 1.5098636192945933 -0.0736767608588602
Ni 6.133193384708539 8.477421828149655 1.1949709116462799 -0.6223946555619604 -0.40531255899985036 2.1157885593363046
Ni 0.05740593739722108 8.623226667461552 11.56491801199312 0.019663796977514525 -0.8385267295059752 -0.1322169231865981
Ni 7.431904098902739 4.164634727717765 8.331740349416544 -0.2786980696016942 -0.9189654916790173 1.0929088480701241
Ni 3.376784105902382 6.35299615926409 2.2401084325421685 0.6356875160161245 -0.19945667017086294 0.7792278346353418
Ni 2.0471043628254186 1.893695356492963 11.554973676381003 -0.39486410997301674 1.5571966000526019 0.5019297307049678
Ni 6.881623857393126 7.909640955276744 11.093666792018611 -0.3652591426223903 -0.9750767328502883 1.9160657799882483
Ni 8.861505910794662 8.438673717992833 7.265413347611184 -0.9549617072679683 -0.27819001961702416 -1.1343707147593367
Ni 7.299530833056941 1.032960727048317 11.759778013999634 0.4866951731434005 0.7238177332961535 -0.5961449778368121
Ni 1.2188301364249539 2.85440729083262 0.6678410318880006 1.248920816793791 -1.1132367609941989 1.1188258250462022
Ni 9.017317686609399 0.45904128447890596 9.251537998659986 0.3825276998948509 -1.7821359878756018 0.6097268302863047
Ni 5.88638937302066 5.9980767268868 4.648910615368652 -0.6886244732244722 1.3673324586661806 0.44457227583142145
Ni 3.2164337655099966 6.664131792186438 7.336488373618729 0.530136532156487 0.721485485618551 -0.6952445496441509
Ni 7.955606579893761 2.0152791747018406 0.7391204313917394 2.0357094944955265 -0.08353745570302389 -0.48277321238117504
Ni 1.2190234627051375 2.2393167153947493 4.209081360133337 0.6974202171392312 0.6368385989014322 -0.07975562006308845
Ni 4.49309607774991 4.634343940457475 6.592416948251619 1.3059589406547056 -0.11762025631934582 -1.5272779581162987
P 7.06062558081657 3.0978787256906646 2.7725041519321185 1.7096180232115328 0.27395824092386367 0.11295781784666997
P 7.585598491648798 4.888614028965782 6.432642904294447 0.060704774079224484 2.0521033624725176 -2.3528075040316576
P 5.347266819681651 5.926012054444983 0.925586390432943 0.07111851321338074 -0.45909669469984155 0.5956199585712775
P 0.1965069577934125 6.537438636572704 3.3872117572149585 -0.4382440196205485 -0.368893654051184 -0.753802709694018
P 2.7288832989133316 1.9066021871985621 9.51228543815578 0.29841303153211834 0.22197336321614028 -1.435255090650083
P -0.043317054578498694 2.2898945526961483 12.258973166872698 0.13671738216011295 -1.1825716999445957 0.5743790469146302
P 7.461639521997663 8.604114983763388 13.12770506010761 1.5389659359771883 -0.4712716394994787 -0.6020340896277373
P 4.619034340269592 0.6073234619811558 2.037918602712689 -0.17895160823897568 -1.730306147688504 -3.077859881065861
Ni 9.190482797573964 5.294405891071417 10.418231719724725 0.05527871796764673 0.7759033982477992 -0.11791824717573886
Ni 4.662072452643826 3.4683563206160724 9.902921440496346 -0.31437546839864566 -0.5257456021776429 0.6891947439056453
Ni 2.6838290696171816 -0.025654397380380063 12.491533634717706 2.047797793118628 -1.0705333085884015 0.6121801769228038
Ni 0.9529512650922819 1.9624274521049476 7.7687723803188735 0.03308007038342045 0.6160388885472617 0.7703917244009506
Ni 7.814662515626484 6.988570114388093 5.594524687827294 -0.478448359753576 0.06675483692804632 0.19653769675185506
Ni 2.795746573816873 6.66148966635726 9.59985211646433 0.14150297647421436 0.5142471146197402 0.4926148810619452
Ni -0.03750713955831071 3.4354632349448133 6.0991099615121485 1.1421369889683168 1.5092545249556848 0.8501555719941551
Ni 3.5847847713533842 4.148294054035569 1.2037976372386678 2.533639874233114 -0.3698189940789308 -0.006137994576937816
Ni 3.978212957540603 3.554285249151066 4.0572705177170665 -0.4859855486708856 -0.44124835366451104 1.164891251945697
Ni 3.08415255979762 0.8062405540675255 4.893623941426543 -0.15624645333197607 -0.12158258340120352 0.5014998422564009
Ni 7.338389415373869 6.553447893774584 1.9646746399617498 0.014910598563245288 0.3585490775920664 1.4110265571200216
Ni 4.177449498289943 8.217269097115759 3.806466493232054 1.7115525212300844 -0.4535965908172188 -0.9108850286637281
Ni 7.677373238656014 7.072887990588223 9.133654077213292 1.4713171264799627 -0.2926661017460121 -0.9389172522105959
Ni 2.644234006232887 4.428377803955073 7.7436160282603 -4.340326040644254 -1.1817821141637646 2.345427923738135
Ni 4.652976911461849 5.588252630937333 11.961105240378961 0.42032523035859864 -0.45964202568035034 0.26564509307247797
Ni 2.3938396493415968 6.393079141355515 11.93132746962266 -1.1163341689725998 -0.39779311069435364 -0.7373075402524721
Ni 3.846189520201804 7.229859724084063 0.14338918141093326 0.5257944531377075 1.1315188471328383 -0.4414375868571817
Ni 4.497735908474319 1.2613343000253465 10.806726403361923 -1.286200784191172 -0.35415634784100947 -0.5080605261930541
Ni 1.9701328852722704 4.3425409355535 2.7439793195916775 0.19073728801999407 -0.23852741092007956 2.323211792652412
Ni -0.11062958293313427 8.872258534378213 4.403375192319313 0.5458197472196986 -0.9887750562729875 -0.5637241383039453
Ni 7.712641475769531 1.51192198319682 7.025725584236737 -0.7282140625916362 0.4950484302041022 1.0834237913978244
Ni 2.16530036812441 -0.2195496091886439 10.294420046287065 0.22224872836471402 -0.016754079529887275 -1.3586117909637312
Ni 0.6545300571966842 0.40928370296628663 0.1610997098784307 -0.9749484348025402 2.1492815488874273 -0.3600611433612186
Ni 8.052739226666068 2.227781580677121 4.472294170002141 -0.8190760769805314 0.27973550972727307 0.4189617743521688
P 4.304695014704201 7.799454181585364 11.175076488603978 -0.6934162381861606 0.5997954301052058 0.936536153572929
P 1.533105019896951 7.6696033633952965 -0.07019401053070726 -0.48377979926881837 -1.1007301438867558 1.4729276655001924
P 5.4960544073163815 2.473407222657212 12.300122205309137 1.065667752965984 0.5078532952782544 -0.38169440536027816
P 6.677775103959402 8.312588159259676 7.529799003579771 -0.31414329778318156 0.49694641855776345 -0.18947256237495755
P 2.5833178159483294 3.958944771615625 5.72885975511629 -0.8284842576683086 -0.09214885152111871 -2.295357489444305
P 0.3151236779021372 1.058544238125963 5.84954506642298 0.5880274909360003 0.45907355477139 1.6479531992118845
P 4.2460158856617705 5.2291628745160805 8.809363971826443 2.1975450118795057 0.48969179387787926 0.25887280734565093
P 7.6870763767185695 2.0568627369680255 9.30907189964266 -2.6907558746542373 0.24535960335056453 -0.7399647753696611
Ni 6.325783183824895 9.459178708989313 9.515357484808034 1.0781332324228463 1.0256091943822014 -1.3190983062501411
Ni 6.242523999159105 3.721549305563355 5.2590640058511635 0.011774624037424884 -0.7381842864304706 -0.5362254186630442
Ni 6.987557452920464 0.07068561164317444 5.238529993091649 -0.6461295372850551 0.7237190029347601 2.6919871759581766
Ni 3.066062743580429 2.095850203471743 6.904945450992622 1.5053536472393818 -0.13449800591129094 0.16892430590996066
Ni 3.422648464372635 5.935282509880459 4.6581267553254095 -0.6002607997773985 -0.15536867871271304 0.36353393240116744
Ni 5.199583953647972 9.536048920395697 12.741272523459042 -0.11798149631350649 -1.7747597500161887 1.1927905494591264
Ni -0.11858541966336159 4.593754627632236 1.9865426040545315 -0.04428956594599469 0.22276552010013248 -0.22402098977378837
Ni 9.296324332967881 8.266613328629319 1.9317714276758144 -0.027768685472836046 -1.0686296638077855 0.7688675744469404
Ni 5.327878955583227 1.2058312455859337 3.8626793313001415 1.0305374849217541 1.0021193387903775 -0.247192028573613
Ni 1.7809124870391158 5.340776580275484 0.6641300879098073 -0.5652477740373233 1.9665709878266517 -1.016612904420862
Ni 5.310654504620191 7.221657166196269 9.3721432176506 -1.3294842774701554 0.024185596107268025 -0.49131236020043767
Ni 3.6387412155513275 2.1222714617635186 -0.07663085505949103 0.07478722031421958 -0.12366286296899993 0.3884862314711309
Ni 2.5530760621195903 8.892447321637398 1.6428766023866033 0.9165895352476731 -0.48525072738739006 -0.4238836371338183
Ni 1.8545790058024563 8.959807721261413 7.439173167037646 1.6207344727052475 -0.2744040702120306 0.012269047175340159
Ni 3.1864037499881253 1.9031039021285707 2.5969519217079533 -1.3385512727684301 1.5512190423129284 -0.21121535336868788
Ni 1.8866435502729282 7.9064372626337 3.8222446794990486 -0.7092665749548559 -1.0900263843160067 -1.360396907888612
Ni 7.438385132295565 3.3570740313369845 11.247067512939058 -0.7917221104476106 0.23491038299278255 -0.11378674150586855
Ni 5.450963353966864 2.7985452018728663 7.752671062983572 0.3512340319878919 -0.9819793735073927 -0.052377742270767864
Ni 7.24067678976101 4.5523551856328925 0.6981674810394873 -1.9711192693189667 0.2376336954612166 -0.9054823695909179
Ni 2.3806106081690253 4.332469556957262 10.39795363413612 -0.10204657025080491 -0.5077957025674417 0.15392808961144458
Ni 0.020150122003149203 4.30239351136868 12.933693852531237 0.008409049999301647 0.40815902730971 -1.78903040100259
Ni 5.599005254520885 4.6716282944929075 2.8678591175280705 -0.11043376587323561 0.04922068469902491 -1.7645133896978322
Ni 6.23520521855215 5.178815187548234 10.087137449876744 1.0251811057058473 0.8568437826476082 0.5691144560815812
Ni 0.6708118123934905 6.034063033040999 5.477921322836482 1.9449904334423986 -0.3629263807241556 -0.15748469661445136
P 1.1328643838365915 1.2122662489120493 2.269009790828301 -1.4047898321816903 -0.1493219582980009 -0.25309091055655125
P 9.582999588440316 4.200169939218201 8.549559228096877 1.5744479309338821 0.2940946066624225 -1.3779475151778657
P 6.459610999778742 8.15807443132617 3.6742469678090695 -0.5179222494784822 -2.177404532375889 -2.0362473692768672
P 0.7137293259929429 7.520926247920672 9.623526300374829 -1.0559281570807169 0.22869011311468357 0.23939567245764576
P 5.527410088759513 1.7467857955800175 5.83775584573711 -0.5601996700904546 -0.18927227343869338 2.2233835702091644
P 7.582744627512753 5.442318907438649 11.97709884735816 -1.1525527849850021 0.7039626462434392 -0.11617272523954185
P 2.698346952657645 7.851191976567865 5.6931533117676905 -0.48207824319667947 0.26752431237306185 0.14964360330347776
P 2.7736797598359026 4.098240959494669 12.605818925548983 -0.20981975857274188 0.10762097901478884 -0.42656529773103957
