# total energy = -340862.46233301505 ev
CRYSTAL
PRIMVEC
9.32082141505974 0.00000000000000 0.00000000000000

0.00000000000000 9.32082141505974 0.00000000000000

0.00000000000000 0.00000000000000 13.64196430400919

PRIMCOORD
 96 1
Ni 5.965195276497294 1.1887868965254573 9.174357851578826 -0.8603960187752407 -0.5449658838598357 0.03176186579262917
Ni 9.193974452534027 8.049312325048733 11.760301405788077 -1.3530044720792826 0.20052522064469336 0.7831066008644578
Ni 3.2196447709544858 7.8964881355298235 0.7722589568571155 -1.386897782392618 0.7811978138775191 0.486182238062724
Ni 2.9189364273182883 2.530929269396038 0.38477935743247244 -1.2241790910727368 -1.9182046807081223 2.1641880336856145
Ni 5.88132652452784 8.43155921527626 1.7233071157205064 -3.356612458054574 2.2059625465192396 4.22881164011233
Ni 8.682065614246147 1.8345706941973416 0.6175789917750665 1.1038967145401957 0.09311970007482026 -0.40967932060897827
Ni 1.4258526708743215 1.0911978952896073 2.3995802526419214 -0.2636797418159911 0.935060854578983 0.5293456608240754
Ni 2.3981634877720217 8.533258698799122 12.226719974684215 -1.5504148012440782 1.1332471426778548 0.5403594954360759
Ni 6.671228864425962 2.0953672801170247 6.549916508276503 0.3500832062129003 -0.18061742597717279 0.5252365237517083
Ni 3.193481224968905 4.787612007429859 4.88543309712137 0.2788873027943649 0.6098720976149175 -0.3876951030284033
Ni 5.88916533541985 7.451493474880162 6.4171796211991765 -0.4735172410005458 1.3715338983420378 -0.4971166255870407
Ni 2.0042748914753856 4.317320637195279 12.880279201661825 -1.3075075160887484 -0.8407340215699393 0.18344923899901308
Ni 6.518525845586714 3.6546475109427496 9.083352146577251 0.06336920828526506 -1.9199422322245194 -0.2300114030292684
Ni 8.143499226432523 2.2718104313486043 11.8955334767843 -0.35103142905878254 -0.9500915236598605 -0.808140403904634
Ni 6.439932678593334 4.066730350831781 2.3075930651350824 0.344929944146735 0.9415379776628946 1.3281881843665513
Ni 2.9342505370633214 6.630729894954161 8.96710845316629 0.15727875125123236 0.7154174250476001 0.15962771109938317
Ni 6.75847175378294 0.4270446225808929 0.33488127154746783 0.599184021773452 1.7583375999044235 -3.016136435914135
Ni 3.6381589776871412 2.2500649547599476 9.423173453526342 -0.039208551878661506 -0.5086955886738918 0.8241025836608453
Ni 5.148495574750741 7.659319832144321 13.471412226559481 0.38545721483682005 -1.6006482434783336 -3.573058720804898
Ni 0.9087950107829367 2.8157176498888896 11.019160011550435 1.6338332148707346 1.6305036362768692 -0.8175573263431597
Ni 4.388680846694961 5.72857690158103 6.797286450807435 -1.307781081465109 -0.23497620323371146 0.06010544993232875
Ni 8.713691161638051 8.121986770381678 9.034799987318651 1.0271510849480245 1.452816496572614 0.17632034126371568
Ni 0.09636797361771275 6.295236245433322 3.3735762740690816 0.25609653015209444 0.19805156229322018 -0.5302951692215384
Ni 2.3153666302765057 4.115263868447356 7.172003981417165 -0.12694821858849106 -0.3420672778869593 -1.219684288526177
P 7.093545966335717 9.261550408499636 7.933702447500621 0.5259394633560039 -0.8343864820853565 -1.3567138026100698
P 1.2398277151278942 7.720939783163444 10.227980719105101 0.8909854615263236 0.1298507369472667 -2.105456067062045
P 8.060096515538694 4.142247646726037 0.7423931805667706 -0.3556488732261359 0.25841155143851624 -1.6229744177793597
P 5.790551043817627 8.228439872875912 4.19834221475255 -0.6752310826367016 0.3850160135343434 -0.6107161907827675
P 3.6354652602700295 4.250154797376221 8.823363675882701 1.8497997097711627 1.8499863718606722 -0.02399147781859094
P 5.139006978451019 3.393953454059704 4.288419565931478 -0.020759086924222313 0.5056447176627098 0.6075650467482956
P 7.2298629809559944 7.615120496532057 0.28283753255028615 2.247781539437555 -0.9330415101561093 -0.45838269935195247
P 4.5875312528425845 3.416118367616423 13.3572433480172 -0.2595230393351401 1.479207327861317 -2.168239320936853
Ni 6.738105758778133 7.5104756334112475 10.130591183449617 -0.08136924440711148 0.6062427283924463 0.12545106521767427
Ni 9.164772318735372 3.3132258189399617 6.982462279714073 -0.7777713046944734 0.02276994670666401 0.39505462871726804
Ni 4.92756414244001 7.715533706686195 8.637777730829514 1.1791148517442467 2.4519240451198607 0.9739778433591548
Ni 7.695913377402387 6.796006702013768 7.557921411156314 0.0542944996775065 -1.355760694668181 -0.052386998242148486
Ni 2.0080405033664346 3.5253397540998703 3.216543733637278 0.7494194930246577 -0.20728259397318494 -1.007916919308761
Ni 5.5206573361017455 2.321070973042154 11.204800017368395 0.24561311412226733 0.6205560596913248 0.563663460269339
Ni 8.146957251213658 3.0989680948321796 4.874710424053393 -1.6887105836349048 0.9790773693692492 -1.1613431295831225
Ni 8.83135721241182 5.972978162460229 10.13607462274542 0.5003752417336543 -0.19602861832592045 -0.9314224864954476
Ni 8.917630736331498 4.638888979376446 12.195834500520402 1.4134696193438754 -0.3333342688893356 1.8458206705187563
Ni 5.4634927377655975 9.262883285975922 11.691545433818987 -0.11554126230313004 -0.09244195728150532 -0.8243013299352127
Ni 0.8581624441627472 0.5786636298782377 10.211051310991952 0.9191979194047977 -0.8683373851095045 1.400718490325794
Ni 3.841567265554376 7.380524739884005 4.822707696670866 -0.552822403789777 0.4298190287816469 -0.7087436125718504
Ni 6.560115351175479 2.8849433912622096 13.39309402380072 0.6085965733366036 -0.3413725658127798 1.1548328392684306
Ni 7.12718481117432 0.6903913852663953 4.423188392098529 -1.1545834422617858 -0.1178007477612681 -0.33816640017065636
Ni 1.3703192163028608 2.0256288935605173 8.31674160755671 1.3093229720309323 0.13719020803147342 0.31166449722538586
Ni 5.773149070053793 5.132417157641683 0.28533364855133303 0.11755880695379108 1.345350812188767 0.21992290844501478
Ni 2.2025474066892343 0.35713659707285833 4.960340811288708 0.03640733498444052 -1.1107204223302485 0.10881654198478678
Ni 8.87136217834346 8.166950413357966 2.151992202887599 -1.3423963575461333 1.4324327907099395 -1.2786509968683721
Ni 4.402512945819508 2.813956014623028 7.114256831736486 1.0832435570662182 0.47490383693542726 1.0686638594798306
Ni 7.667400984395656 7.458884886339574 4.82546293150996 1.3366931365137689 -0.6543210719569118 -0.26417699316738374
Ni 3.744388380465076 9.22197420035757 3.0191576285492676 0.657876393408338 -0.10519540029243173 0.3980034269329468
Ni 4.134865556088139 2.27048687469383 2.7935601929893803 -1.8063876613341145 0.755556202050015 0.4339816447997687
Ni 3.0207384398777872 1.630481986359694 11.811089630127526 0.6205010380836733 -0.4446599504492213 -0.4395264858773979
Ni 6.951217021839878 6.805439373384416 2.4557577759798956 0.9838681058896733 -3.777086812396527 1.378705733500129
P 3.868401910688857 7.423447122949057 11.276420277788278 2.0769304488185263 -0.6116934670943724 -0.5766971535248455
P 7.603972794003111 0.27038491500958933 10.95110030494833 -0.48759505924985064 0.018507314775568127 0.008037011371863578
P 1.6564125118074624 4.654808942519793 1.3104198889349463 -0.4805132127024047 0.33534744266462246 0.6724020978283387
P 0.4067895453520843 8.405162648752867 4.353355865244747 -0.13390176708818877 -0.4832840905793225 -0.020264920896623163
P 0.1342133052049068 3.686273058334654 9.166677494652527 -2.200567086535281 -0.5145160520104107 -1.305173468638933
P 1.3311438034858334 2.9009658834421925 5.246194561680438 -0.5611892876972335 -2.5178551005950314 0.9984940833329642
P 8.41002811758239 1.6005341868400393 2.668013387626794 0.3364360477431109 0.21433641549617277 2.380622469361397
P 7.713669542383696 5.1404610266069675 4.095222238031184 -0.06329953138959421 0.2126204612463306 -0.5065762283380437
Ni 8.432407410033898 1.8123871389975974 9.378113806088477 -1.617611867915866 -0.2118103066402094 -0.23337157775075293
Ni 1.788236890458716 6.157539749229195 11.538591684881053 -0.32075129001800246 0.1844529976731791 -0.3355718999706027
Ni 9.128505002230245 0.6277964763170664 7.2849313265339815 -1.0706711197178465 0.5266904825894155 -0.39393722728337316
Ni 4.666357440373777 0.47039110302476306 5.5053786454784595 0.8940255339042281 0.25483488983085145 -0.3440861080892009
Ni 5.508530947313986 5.637419267188803 4.454797162011712 1.0159814414844504 -0.2101293193933607 -0.15674087646989135
Ni 3.665450343075734 3.825209223799943 11.15918112063978 -0.946367280730738 0.5704709701094756 -0.017227419621880007
Ni 3.5958051647343523 8.33624449448946 7.003293383712354 -1.048758378805155 -1.2127965602674082 -1.2918332998866011
Ni 0.6393272646101771 5.718929851315595 7.3185999980014245 -0.649670717669094 -0.2375794451845134 0.66959342473495
Ni 3.4963706408390274 9.259844698162848 9.948702808290438 0.0306596338673859 -0.39196776226182817 0.5447738224536876
Ni 2.7838497611376605 6.174941722993028 2.631794539393531 -1.970904582204999 -3.3181071028905245 1.7744471038717764
Ni 7.36262876258001 6.316133527264341 12.020944198152804 -1.0658364173333645 1.600455153630921 2.173683888991192
Ni 3.7477625178526006 5.718967134601645 12.703219944128268 1.2567619101047647 1.0316721127468298 0.25419982735001384
Ni 6.282466719961199 1.7848534322496794 2.2608286394425794 0.8964940500493787 -0.8918897185081479 0.04753506946648588
Ni -0.04021095608706593 1.1840612400186212 4.854342564884283 1.3621192898963574 -0.8512698881042565 0.0027366822048727063
Ni 9.026553856526546 3.8424434227765514 2.6114126989921522 0.13790831714442056 0.02006540329130738 -0.1660133029107528
Ni 5.42521212381377 5.284206735972706 10.758558230800363 -1.459016454735739 0.9175768388616069 1.7211442786835778
Ni 5.7299843456294175 5.728865847047917 8.63829690058776 0.5060555799478834 -0.718556227786898 -1.2154836201812678
Ni 1.7286861618153686 8.80806447945209 8.235626226262049 -0.5580034337700841 -0.13916558659028935 0.36059310460528865
Ni 0.617290046308179 4.706511539449617 4.915404198694805 -0.44312731585477877 2.6807226587879507 1.054956537196067
Ni 0.8310136873432955 6.577675778905024 0.18863198952347285 0.39774580239618595 0.030656805653908496 0.5504040241562714
Ni 0.302985420331701 7.809496908353683 6.5544594766816955 0.5307271145526343 0.5595939181856556 -1.3614158360714295
Ni 1.7949478819477143 8.0346693144526 2.5707459547331255 -1.533746853670094 1.8624281971684506 1.264624600682293
Ni 1.6726400620607207 4.864434218335864 9.49100107167279 0.9720559437460937 -0.15676401639834292 1.2479882776771927
Ni 3.311175238207212 2.4070741931379698 5.240956259990415 0.6782750116693479 -0.00396078441996092 -1.3671159717800003
P 2.2685108605331803 6.5074620304513795 6.013487384835695 -0.6045578844908556 -0.6648967905902291 0.8712630433967317
P 7.020097892817236 4.678875303665062 7.143941784089488 0.29700740943384335 -0.46050617345285855 -0.06872892993528164
P 1.036605843690909 1.4379510971975433 12.602255873422742 -0.2170928951953874 -0.5229245877890801 0.5070122874341978
P 4.498517407398232 0.9197497723065752 1.1849560388838207 -0.18481475188797203 -0.8395029773763155 -0.8920504124557282
P 4.525268165139101 6.45700842360423 1.8521693372950883 3.8869492791473257 -0.09284047827150463 -1.947676464914994
P 0.9591591377435663 9.155237118328087 0.7100005295643878 0.7812291813360868 -1.4606401063820909 -0.9061567699501233
P 3.9330231662350026 0.8721203743777124 7.837895587337961 0.11934983741594284 -0.37405000144114287 0.17297070806519244
P 7.329120409242582 4.533200184246237 10.853614764831269 0.3429820763917448 -1.6121356752926428 -0.33650443908720107
