# total energy = -340868.9918535559 ev
CRYSTAL
PRIMVEC
9.27390309294440 0.00000000000000 0.00000000000000

0.00000000000000 9.27390309294440 0.00000000000000

0.00000000000000 0.00000000000000 13.57329459701752

PRIMCOORD
 96 1
Ni 7.362032311617152 8.787319927203862 13.414880709788138 -0.5026475827075988 -0.6077686781186695 -0.9811661335774778
Ni 6.3382954252174235 7.078742394425651 9.558327189210766 -0.8356018425496964 -1.1320562076935472 0.1366839578190162
Ni 3.0721936929249933 9.37229918528503 8.481734619632945 -0.06642984948845979 -1.3912365189772877 1.3880388379755966
Ni 4.147651136766598 0.7548307928754954 12.992167861177341 1.8967300557741138 -0.799844482444429 0.04828043227294265
Ni 3.441628895767846 1.928610157104185 11.115483214772961 0.301791461086048 0.03555295740394522 -1.5677985439381643
Ni 7.350031881039818 6.720306040628177 7.536504104922783 1.196606580771107 -0.8662619906377145 0.9915713880712019
Ni 2.577922480807425 6.796954849532087 12.670561886046652 0.20498788440173732 -1.7644560540973353 -1.9950387562490413
Ni 0.42082004499346115 1.8974127471643476 9.430603286518908 0.7608097371394703 0.9060750088695945 -0.022036668085065273
Ni 1.306405452085292 3.6209490856003934 0.08964989362289297 -1.2927139027193415 2.530872595900622 1.107874211130705
Ni 5.495483113881988 4.469427751713842 4.261091373944385 1.980635179229202 0.2332509930124886 0.05304365798954091
Ni 6.366636473010569 4.207857315520886 1.4010623259776613 -1.5844086416910197 0.4173316949479135 0.15589164109571862
Ni 8.879595262786912 8.357966036602008 8.985467067666274 0.4116552133884265 -0.06896932808086187 0.8743936186059134
Ni 1.279372024625534 2.345193883173592 6.8101154453839365 0.5765256609439877 -1.2406902013538827 -1.144316513118139
Ni 3.0019346032388445 3.8998524466380458 7.323850725272531 0.19621553752574594 -0.0702970457533499 1.2640648715240812
Ni 5.016300542065286 5.429183980808298 7.582300493081196 -1.087431884115953 0.6487816301959214 0.6351897504440996
Ni 8.876553422578747 5.726486765544119 5.617063983177847 -0.8844682292330961 0.4285257638915201 1.4565317406406721
Ni 3.643429026650978 0.9498887962240672 2.2729427591072175 1.0657443718401902 -1.347200978023628 0.4827125343465687
Ni 8.613424970669413 3.8449323926357524 1.900491682984807 1.7317282248470114 -1.511240702147778 -0.7894209731182598
Ni 3.6578406720274663 3.9242335378187336 3.0672933625408647 -1.3151943432100444 0.5916013243301875 -2.2511183171202713
Ni 3.0409499134697877 0.16674477726464693 4.515400344030656 0.710712306262447 0.14173951796505266 0.22036128153401405
Ni 8.90597024312844 9.209764760015831 6.640286167956986 -2.179978977971284 1.5439469341315477 0.005808893372293222
Ni 1.8889642214642313 -0.17187324566438833 6.436578395211599 -0.09730339913886468 1.1892162018443067 0.18198216753518337
Ni 0.9984469527178208 5.622823076986598 9.09911596766322 -0.14432553352467403 -0.2713981935061713 -0.25699847314107355
Ni 5.200304052950039 3.4177578692562105 12.034055895097849 -1.693288947034206 0.9251055431384841 -0.8750402510509768
P 7.157023410270529 8.522893128864215 11.225413279637364 0.160977026038426 -0.6750727026819663 -1.0620216715729645
P 4.859766332084754 1.3021394566714024 9.103581351993192 -0.7179957272977376 1.0602121291680513 -1.197542719432131
P 1.3924209030936123 9.359315720981888 9.88886486039171 -0.4108154910959506 0.2905248870332932 -0.32381013144898424
P 1.0043358811696035 0.4576532058311696 1.332381654594651 -0.27399835013317975 -1.8189755253014546 0.8414300191956993
P 1.5611317478098783 2.227480231459456 12.248052135913168 -0.4759253362214062 0.6425839860256417 -2.691600224932403
P 0.14162270122837317 6.052074954654643 12.590058843025323 0.7244124294573588 -0.4612307103237089 -0.06643396325351784
P 4.128352144470284 5.29995214147666 11.777927385228523 -0.2393979864504909 -0.14764328504399732 -0.31784902876954285
P 5.126966027443431 0.8840125531305358 4.913600412037121 -0.5319962110730451 -0.16849981677803239 0.3027404552628786
Ni 7.2447730811536255 0.22534193383565204 4.9198037258031 -0.6428410963417703 -0.06576059133557706 -0.8130093019611612
Ni 1.466983083805946 5.91217812678828 1.0286891506410696 -0.47505836023542053 0.12623782278502776 0.9796759221851965
Ni 1.807604269798895 7.435370337123761 10.466543701973283 -0.1105695201201515 -0.8322627508741344 0.059950155301387066
Ni 1.5646280092686529 6.097099754077327 3.8312255638928634 -0.20049848117181598 -1.1897443064336348 -0.2425316469834662
Ni 8.182652172897285 6.0078940804116625 1.088004107309977 0.5793459040016022 2.202914246611219 0.5534196710541437
Ni 7.80719820695962 4.692632050891013 12.924626952482086 -1.1534598701803038 -1.69275210069413 -0.8692472985182836
Ni 3.755810184097751 1.489101342636657 6.880370825508857 0.9481688527158508 0.7119870592098125 -0.8012495903220717
Ni 8.116482874466627 2.84244201817781 5.113494755838613 0.5465913352784006 -0.2705610423168566 1.1706893466847128
Ni 0.4476513013662129 8.111224571423854 13.213846603298892 -0.4781346851678991 -0.274338764191734 0.7611632638241472
Ni 5.328348832688247 2.2578986335411044 3.171603442142621 -0.9698473661305491 -0.951380160564297 -0.3537711965874488
Ni 8.827522297028237 1.602864311641408 0.2650713346032687 -0.30002279922139946 0.4274890950968896 -0.0020846504431706035
Ni 5.863091357819328 1.0980764934382936 10.947431744565232 0.7554374170839635 1.1000457162252215 2.2137126227783037
Ni 8.61548377715177 5.556162261693034 3.4384952439192515 -1.512774365183485 0.0629424051604916 -0.8096727813887604
Ni 6.043672798469895 6.513210511089977 11.84039175938125 -0.01599149033224988 0.784734623386184 0.45365701174150896
Ni 5.351348112310958 6.558411514671061 5.577185272570744 1.290773748273835 -0.460817019825058 -0.8309334905397495
Ni 4.256313459080829 8.516345753294202 10.764885163853354 -0.43590997217073313 -0.059779948272109945 -0.09679946291925265
Ni 0.6027239442223346 7.301603559189096 7.106284959164154 1.3538655345279973 -2.0292958776596985 0.6401316678304072
Ni 6.636831639062042 -0.02659662662498782 9.064884136637676 0.6525711791453407 1.1548732055880626 -0.8930911950154167
Ni 3.4426026555905813 5.670129256565406 9.75029512805519 0.3060211828966794 0.04898928541450918 -0.23367316815157177
Ni 6.1333978107076845 2.1563493948843813 13.465929836647481 2.9181730345937678 -2.327864975153707 1.5029018432647794
Ni 7.431503119542039 8.201413278815327 2.7247979207367266 -0.774399302898447 -0.8965202753016237 0.7903946498854387
Ni 0.08028325151848288 7.994697979303148 4.448918515066414 -0.3707139950893744 0.7209807780679905 1.4359302623402366
Ni 1.8954652275188764 9.45437322748704 11.990743058182565 0.9605643981667262 -0.6228795656181788 -0.21400859984310885
Ni 2.946513758470572 2.5005503074637683 4.754087424389324 0.4717753186087746 0.37484010144260604 1.4086670557489094
P 7.3586380630921875 2.8305065049219924 11.443956515129704 0.44594035982354163 -0.7226548233363038 0.910163062896039
P 6.862280222783041 4.774279493551633 8.597446963063781 0.185920326247325 0.8983586140619432 -0.9688171250938217
P 3.1952398389064918 7.248204425290885 4.310403498758029 1.731856265784443 -0.7655493087069848 2.311845202686683
P 4.380824881747968 7.457228926668408 8.802471630045629 -0.7319511610365652 0.00986866526396365 -1.248192937488831
P 0.03868608667182841 7.410933602524631 2.415543857109863 1.7275344984806376 -1.2577463855052209 -1.3616040408228356
P 1.503420248982409 4.168480323070069 2.7657626053937565 -0.3629374364677491 0.19533596313427004 -1.199384143516244
P 7.09643700149022 3.1920032467337798 3.2733900927180297 1.9213617382798651 1.1736597421669464 0.39855055768566844
P 7.184223767985612 0.6540299581968176 1.5775836518625748 -0.8710707248802676 1.6980519156404887 -0.3048405323250169
Ni 8.977175270928104 3.910721461040391 7.604275006414266 -0.3330535044241232 2.2897355152718375 0.1539597141803284
Ni 8.509325408667431 1.4133150067185984 3.2129075516521466 -0.41045039444704795 -0.36076459718614645 -1.3977457808507154
Ni 8.858135451074432 0.7176276033051474 11.417461901438529 -0.6925929709539168 0.19608955347084295 -0.08913680416767229
Ni 8.352763376977675 6.519526039083148 10.612660536631157 1.095659414232068 0.39095860427102347 0.438741013861625
Ni 4.934421251827825 3.7147546151906 9.267207315654163 -0.8000632833234544 -1.5334223804511398 0.2389858386137368
Ni 2.0672642819586753 8.131988840405809 2.8120338173895423 -1.0601069710487547 1.3293102137861366 -2.022516649954336
Ni 6.902176553805984 4.490460963884934 6.462164166401557 -0.6943878580708106 -0.8186546731723965 -0.9897330493108826
Ni 3.4238600974786872 7.442399955653604 6.727902294635823 0.14458315806143487 -0.6405505005353808 0.21906544554072596
Ni 0.9354956986537262 4.001429507003991 4.885191664751537 0.8989070303662455 -0.592291922639309 0.22041681736229782
Ni 2.7659879612384466 8.360469990431898 0.5412490955275686 0.6675059460783022 1.621749287123007 1.779823023471709
Ni 5.061835406157023 8.112819682752527 3.7950935101275243 0.11350777681286904 0.8937252290549899 1.3896810015647099
Ni 6.400467671423329 1.5360736617048127 6.771309725362459 0.07886087616296096 1.3681277008739663 0.7298325720316656
Ni 1.6353878897207805 1.9237877275058746 2.882669427540483 -1.0443743908048464 0.6331981739353675 0.3227132988403797
Ni 3.4771479445400146 5.12931232492107 5.260534343852319 -1.4237712583801996 0.5074102942035648 0.3429208841365062
Ni 2.444369002643455 1.6955755206689207 0.5554761902328909 0.02740204616203668 0.7777841602102799 -0.7528488304211808
Ni 5.28684811643356 8.498799528678811 1.6614800160185605 -0.3475506695990337 2.349383565951773 -2.2598068460332046
Ni 7.526727556302516 2.7962116113555484 9.108861912403343 -1.9272796464261972 -0.4449273451779951 1.776616086498637
Ni 6.606914027746373 4.679370369495659 10.641083194771351 0.5124365437735627 0.40928285650150803 0.04914175183197343
Ni 2.0714560861479754 3.82722851166811 10.53170956409137 0.168722988532432 -0.17132185960785978 0.09631301020113735
Ni 3.925800827438184 6.438221730836254 2.067972808153504 -0.4965021319314933 0.029280494131672153 0.6279572372514024
Ni 5.991887323706503 6.696166070927405 0.5661356144257711 -0.03315566081636225 -1.757446969769354 0.44887321719962053
Ni 5.8689895601741835 8.478526776559761 6.899360069442509 -1.1051853514446321 0.5190021128062223 -0.09323257150360073
Ni 9.078576127135648 4.258094048470974 10.864119636302888 0.13591545508410785 -0.3011067763141976 -0.01016382790687927
Ni 3.634266410414188 4.8654697824750635 0.27472175814173316 0.5447206006182489 -1.2739052546532705 0.4667580678998413
P 7.407057111039836 7.500278384736401 5.636080121430414 0.6632636258621802 -0.2403580363709151 -1.1641132361290918
P 4.752476547425427 3.371852049041527 6.146856098848199 0.7658526988800165 1.043683535385409 -0.1314859585578445
P 1.3175990530952157 5.162077024480358 6.908684978983088 0.5225821168479968 0.7489173565772586 -0.19157083966488297
P 4.396775995034686 2.701107735335028 0.9379848142387 -0.3822518205256449 1.0971776506488071 0.6364781302382199
P 0.6635996987785412 1.1326032345815797 4.84167572935894 0.8489263275727444 0.15974726739638295 0.6703593563666972
P 4.62928201899475 7.862442847569492 12.895403956506634 -0.6917229096441377 0.4563204175062851 0.5378020191215448
P 8.59029585640367 1.8904387720529452 7.538825362862124 -1.0931312484935753 -2.0527533373516906 -0.7377361431494585
P 6.023418594156992 6.383960123952191 2.8249959517156156 0.3714038220675474 -1.1472606833481274 -0.25869668677910285
