# total energy = -340866.23508798477 ev
CRYSTAL
PRIMVEC
9.32661301732808 0.00000000000000 0.00000000000000

0.00000000000000 9.32661301732808 0.00000000000000

0.00000000000000 0.00000000000000 13.65044089935058

PRIMCOORD
 96 1
Ni 7.6028962248581475 0.6631939869800348 4.099650702358276 -0.03285175642269826 0.21977481290292475 0.23045466121427408
Ni 1.2878746589486805 5.279748888790706 1.216595087750433 -0.3753509796407536 -1.8537941756425365 1.837113372552746
Ni 1.1993371233737504 8.686089038686486 4.5899330181548095 0.4200516649822379 1.1266203813899565 -0.8549635349057598
Ni 7.705041288548934 7.398951182151206 9.66411589892909 -0.83256588393685 0.6276998698249576 -0.06931976944174513
Ni 2.5381817214267173 0.7624123595654371 8.177146035943958 0.967374221999708 -0.11750095713266215 0.537192924782636
Ni 5.7044828369717155 4.283321554100004 5.797956016055152 -0.25885198141004456 -0.7452964719952196 0.4885165426228555
Ni 5.675766196074716 6.7053216595299965 5.8868619528367825 -0.7524811626691169 0.4575470908245346 -0.2502801805806335
Ni 6.756328905085595 6.8477297107986805 0.9460039350981274 0.589638801287178 0.401460789353928 -0.04392781173120177
Ni 9.010617858644904 4.340046013319084 11.734000928978404 0.19182949264290833 1.1627891180010297 1.4355577094921663
Ni 4.705957014394744 0.8419431851324973 10.836743468486397 -0.5207471205217871 0.03301964945913023 -0.05927806893502694
Ni 6.370225787237605 9.230623328641432 1.7371963565277928 -0.857257473146259 0.32163420684358796 0.3083775989439979
Ni 9.067127805768944 0.591903223846394 10.97825803024617 -0.19826907762066498 -0.8052561403783035 0.045907046944759645
Ni 7.174814022671934 6.107103386137855 7.555846261125413 2.099762359111377 -1.0530217820671994 -0.18713157294660673
Ni 2.8576275373939497 3.4633071010483847 2.282763102522784 -2.5795582340317833 -0.12978337404444099 0.941888676134094
Ni 7.9041178393597304 1.8294803924756768 6.387723445563965 -0.233547698317301 -1.040808527830459 -1.3578582006271582
Ni 5.170487619512257 8.482554366943969 4.273775765870683 0.47003442465826795 0.8411225152576095 -0.5826543995495449
Ni 6.827518940800695 5.048672729367501 12.962008060185012 0.8825602135771059 -1.2898183263391012 -0.3197894403253654
Ni -0.10510066729593721 5.79238616287435 9.701845778462937 0.3776865697524657 -0.9904935816259909 -0.5303435059609705
Ni 3.155006587410452 2.158541946268439 5.561066578856339 0.41963694604232243 -0.5305479086622926 0.022633935349431988
Ni 9.319104904539396 3.663055167982787 0.48709447953196905 0.41111245351107906 -2.806789503212753 -1.6984113558624363
Ni 3.128295168271444 4.6807844863723345 5.978046381132261 0.7724635193283148 -0.06764058196710931 -0.30053779118460494
Ni 2.941809544778267 7.74334568743298 8.887392784640577 0.5734344236131736 0.03871284318916559 0.9144845730895284
Ni 4.690838575000773 2.3252738037921965 3.219470269954095 -0.3893796898196778 -1.4900872079986145 1.5850894698081281
Ni 4.356218359962603 5.410256182091032 3.9640883849052466 1.319921830592701 -0.09213445334341551 -1.4794685519425037
P 0.3720591042517892 1.4900383186055 4.510665203069496 -0.6944685907100749 -1.4226769968747561 0.49021835580531054
P 8.354397380076264 5.281306433132959 1.2763161876711062 -1.483296410329026 1.6102454002484656 0.812701283802439
P 4.9533547462667125 8.962856274353404 9.070281133566045 -0.8162689465490394 0.2853981073296891 -0.41984160585396074
P 5.254734913186369 7.115534071538019 2.503736674930843 1.518879192529642 -1.3549816504103116 1.1299252773934734
P 6.547608636610785 3.1881720226263424 3.68612361215123 1.1330949333707065 0.2490887313756936 0.5573166921157048
P 8.12136263195921 0.47485050221154673 9.113648017893055 -0.6953990729441444 -0.24505492762595218 -0.29691587816130155
P 3.2286215424607967 0.34688750889066206 4.276696861008371 0.7162232087783472 -0.7353607009387465 1.0247319339835705
P 1.7593535906229538 6.488226092735763 10.348740576864996 2.5703739964293537 -0.392119457348344 -0.9564097525684045
Ni 6.327547206937291 1.0250320562337658 8.086766494335524 -0.3583333620368345 -1.0303346248823289 -1.0163596507594754
Ni 2.548422342311714 5.374479295283338 12.128279755631297 -1.281294605138806 0.7743080287362213 1.4663901214919906
Ni 7.114489490901299 3.3518074446912487 7.90133944139831 -2.914531838296755 0.935240317579641 -0.04496268075361934
Ni 0.9504564600621507 3.510387842603451 4.874585904967689 1.338847206742294 -0.7815531403344089 0.12320109284123298
Ni -0.12928643968115888 5.181213224264302 3.3154467119205306 0.6350370269163192 0.8574420783532394 -0.10675965945575808
Ni 1.9005491822240146 0.2652759160017049 10.62412467584954 2.5423214611675116 -0.27917166680400307 0.17495148594064708
Ni 8.747924481735236 0.9785668711253382 1.5398517577191315 -0.1714110768875564 0.7031735746832407 -0.7565393918988906
Ni 5.041481910877217 2.5516213705116724 9.349760548243307 -0.3739831527589495 1.2869548887483773 0.8321442230183991
Ni 1.4320547666546581 2.939981528664005 12.22975703384361 -0.2402433651699217 -0.3369818929442519 -0.250577142995762
Ni 5.947888778553357 2.767056800222545 11.506761738072582 0.5136938132194313 1.2788939661171137 0.5102269377167534
Ni 1.7398516431998863 7.122734216641132 0.38476381624590794 1.368681002274275 2.8206644614226324 -1.475554561600078
Ni 2.170414724398312 3.124144825563044 7.504548025249586 -0.4977838268573943 0.10523936615648972 0.7538538746469275
Ni 4.954035589003147 8.845546138204508 13.17182886897351 1.1481975933400999 1.1486876456026411 0.3900898285128249
Ni 3.21545236514785 7.191909703985413 5.010503566369461 -0.02945378648474282 0.04460684007609737 -0.11599660467299377
Ni 0.30999982249516994 7.574319483153568 11.208540494917726 -0.9816528434059095 1.5418198604862157 0.8603093725987054
Ni 5.816915154611637 4.782062175070129 1.682062084795864 -0.5228572248862543 3.4023750090016693 1.943015569104215
Ni 0.8773003743629367 5.735829582686172 5.573733984399146 0.14829171726127366 1.3018130368071321 0.2884124686759807
Ni 6.754015905104284 1.3965949846831123 13.206432467887458 0.49902027036765667 0.3112104404071027 0.3993285735022736
Ni 8.401683307113544 3.717606526412974 9.761170497338428 -1.7204562514776178 -0.8293077820108685 -0.5029643426170692
Ni 8.745564848689785 2.806956049900155 3.0241318255647074 -0.5054223172392586 0.2366839299534375 0.5762250989844333
Ni 6.874263924293959 5.425355968259346 3.9202290554209247 -0.7626377914871446 0.13049351273758816 -0.49043844223591665
Ni 5.403028057149435 6.884840303240758 8.763173493708797 -0.6679425193950884 -0.2736628211706319 -0.21837741833476582
Ni 4.685149341175775 7.7578765502187945 10.896874006710215 -0.7697108962838421 -0.5070621668355266 0.7183441117760919
Ni 0.43905589483948054 8.576053660543325 8.640660972924517 1.1902150754224663 1.699664768653563 1.0385971220014372
P 6.595622039448639 8.786116961265346 6.280362939979835 -1.2098081670630456 1.308595092725972 -0.9603826211732235
P 6.195911393484793 4.795082126577829 9.384117924578598 1.1087478719849098 -0.28808002503722646 0.19546374696138596
P 6.86118801310929 7.136052619759324 12.030392290696431 0.6870890104165521 0.2360061871601226 0.2780874326008888
P 1.629713672315619 2.1682416236094193 0.6591984660445771 0.01564490562610854 -0.11253744247979973 -0.2750252487357973
P 4.274834336426646 4.447292734226713 13.021947402845857 0.8056960561291994 -1.877277089255825 0.11900171004790475
P 4.417680738498238 0.9720942018227994 1.424395752200415 0.1522663856383055 -1.4044321917319553 -0.7614160032649016
P 4.599922753154737 3.008019169243286 7.395235459600584 -0.7472137436225905 -0.07388656287682113 -2.9641764979070753
P 3.068446293755029 8.256328046191255 12.49392028493495 -1.2650174652453374 0.05633904091136104 -0.026079213585555084
Ni 3.699130506400972 7.931985758489394 1.4926208576975364 0.16108809769499355 1.8397099296353283 -1.1906724746748591
Ni 8.661970417913624 8.335557622163975 6.034095593582604 0.6410284686130637 0.10511286788095446 0.26568828760558755
Ni 7.199930591017377 3.2626077196055396 1.2181125276575269 0.3932047199927228 -2.4403119148022294 -0.07637256252346847
Ni 8.16069295825432 4.095287712877401 5.809203911125557 0.3914643402628484 1.1443661354091519 -0.43154552455445033
Ni 2.065397063956543 7.135091978638053 2.8565726974831183 -1.3993326657218612 -0.7866868620165484 0.48224407935058244
Ni 3.266198465544268 1.45293705277625 12.486276193061231 -0.18037831338317323 -0.5738805100116569 2.714771263732228
Ni 4.946089314873805 6.361738569564247 12.866523130714603 -0.9395867674737947 2.2884725893990137 0.5161836695208206
Ni 0.8796394888601654 2.291017154875445 9.454922771183908 0.4723854413889477 -1.1012909014862324 0.06268478062373076
Ni 9.124365228693556 6.374823807361744 13.063034862997737 -1.502555001448322 -0.6612183132973773 0.474705347771376
Ni 7.959695125200983 7.78687298950063 2.9176312336833075 0.6999982622790525 -0.4472233403010233 0.2172242785669291
Ni 4.497395298338008 5.176493958173402 10.764123663024787 1.1583071709702761 -0.24459495727039807 2.1055375710322575
Ni 6.772976908983336 9.075381858121604 10.964020023103153 0.11007586831318462 0.9277730626683183 0.7347922300297861
Ni 1.9835560363920204 1.1428924625395063 2.617677105865032 -0.2955128271661879 -0.6399750876478849 0.17027773461406157
Ni 5.6875457080763105 1.8062851063727747 5.628526902101576 -0.6259332648428382 -0.23005922554806832 -0.14252730397367067
Ni 0.9351887948629343 9.216633409399632 13.034273454359166 0.7560413692165496 0.467141162270873 0.43429763337829075
Ni 7.882787875822401 8.666792276745632 13.486607647881677 0.25000147299795006 -0.5319838697778709 -0.738854830134934
Ni 3.5241725763630365 5.398989633794969 1.282073505769748 1.0932412917088785 1.4903954832676525 -0.43090017766096755
Ni 2.046902390718885 4.336763045603675 10.01284354853069 -0.5134639565968125 -0.3083511165814367 -0.006674583806698183
Ni 1.8840504041315198 7.940211831003571 6.7654997634792355 -0.6924523316109945 0.16165991103806351 0.6223992835476507
Ni 0.5810517098211722 1.1392457569238106 7.036570304030893 0.9937794514661142 -0.1755639227136654 -0.4690802882751148
Ni 1.9213008957660158 5.580588112166345 7.879594443590141 -0.8119026991605437 0.38008746588447445 0.30882008579805525
Ni 4.109165712765265 9.125213950460891 6.476833635166526 0.3010908354745976 0.16834169393361328 0.11684815404001166
Ni 4.06950895502118 4.812420299824832 8.71224365903967 -0.6961935438209816 -0.4858338535843697 -3.151755442803746
Ni 4.650538280971565 3.065741576034948 1.0913675899719615 0.4372777990525372 -1.324146924417642 -3.602287535763028
P 8.400927851474487 2.28750102183934 11.804900907034554 -1.8533295773012919 1.9335863053705151 1.1999428442331914
P 3.7886939693869675 6.530522281910136 7.1232779581689964 0.11981752108098073 0.46572628420121726 -0.19063367256259428
P 9.380334117754334 6.797440614430827 7.762091246555707 -0.6774887683226268 -1.3559285877046132 -1.3816061949763754
P 8.138719458431869 6.349595319662366 5.361524630065433 -0.701646853626069 -0.4494046642230583 -0.5439302435064697
P 0.4443394210064665 8.519487753742318 1.6617095502828954 0.6150533847055407 -1.4744932102150994 0.09601733333758948
P -0.14970799112905386 3.2913057072768828 7.687982913686768 1.8284916923220056 -0.35698764664221744 -0.5020657420621998
P 2.995409588700012 2.5357661287043003 10.69082021684289 0.06687902121073643 -1.093740085722168 -1.2319695336514331
P 2.3148559772634703 4.945996048745526 3.850079869697415 -1.4472294894031397 0.7114314438166586 -0.08857013303092488
