# total energy = -381177.63157324074 ev
CRYSTAL
PRIMVEC
9.14033982242845 0.00000000000000 0.00000000000000
0.00000000000000 9.14033982242845 0.00000000000000
0.00000000000000 0.00000000000000 13.37781124984138
PRIMCOORD
 96 1
Ni 4.625578642215394 3.617901880452929 11.756915631426068 -0.5123887212547628 0.5423217613687692 -0.0969213332090976
Ni 2.315284633874363 1.137204517134008 1.5746620942180272 0.8240431911778194 -0.7075843021564265 0.8109863579938613
Ni 3.608277102638644 6.829680182706124 5.440287292124252 -0.27692760796483273 0.8749803443473189 -0.7952283238286562
Ni 2.393324855126374 2.0081143743996535 12.648707509009393 -0.3447206563494063 -0.06524842758584891 0.0648902729154818
Ni 4.200488858921031 1.2431867571688011 7.440657970641416 0.07543179587675397 0.4115004329781171 0.25501846659656724
Ni 8.169699699765275 2.055369931189639 6.547635803320387 0.6396259318385822 -0.7186238478000398 -0.14961917782344553
Ni 4.706205579632116 1.025692371517408 3.353134571365922 -0.4132210152136496 0.8895114480839584 1.5016510015768136
Ni 6.531531438618592 0.43073851329362883 7.847611491695412 -0.48942285648720874 0.7387555855529084 -0.05259680026010942
Ni 0.4122101304756445 1.2558004260992035 11.160104456153986 -0.4120344511047162 -0.7914572868219983 -1.6274082851809974
Ni 3.8282942220761176 7.807979892336477 2.5873358797516874 -1.1970002166650997 1.6362472236288659 -0.22560170399734691
Ni 5.184711508744791 3.540007904637793 4.146920983461962 -0.09174930208985489 -0.8345561748940014 -0.42519592818733865
Ni 5.043785749636862 4.394227501420167 1.1578753956021999 1.1226688529413762 -0.07244160290017845 -0.31484598027716104
Ni 5.731678582994214 7.578072925230384 6.575407811782803 -0.23142370999576276 -0.5537060919463109 2.5900758457336552
Ni 6.17728842914999 8.259668064462339 12.660439135148648 -1.2067128159671734 0.20854783383885375 1.388569513668086
Ni 1.0233798655468342 5.880693542829249 10.740415699650185 0.19618494139812664 -0.18403082253409597 0.1573692540825096
Ni 4.527978093781455 8.69809360353167 9.184643031672426 -2.3643928948764117 0.1012631551175611 -0.6213798411442009
Ni 0.3203862767982376 3.972190591620555 7.612496358968635 -2.0258750249036077 -0.3856875856800712 0.5338708023879387
Ni 0.12981476204140976 0.8922086770784161 4.370370300496077 1.0567095153314316 0.6370445442646513 1.5949079985604466
Ni 6.740826939465225 2.2716395113072103 11.523405542368986 -0.0505741134031258 -2.294369414499423 -1.1801726035847997
Ni 4.5825002207161285 2.1079908674449475 0.07867090469853079 0.901913164182421 -0.6719475267894234 1.3670534939731813
Ni 6.459971718288071 8.89509534734106 10.29132246999486 1.8583668826148834 -0.17747373814186854 0.9905609445288167
Ni 5.268692950869817 9.295634177920162 1.4205230598885115 0.3956647514974412 -0.9513027703591422 -1.4823574434545244
Ni 0.47240749439501867 8.717416281878677 2.482253049153671 -0.6725681910925578 -0.7658303302825133 1.612793620591616
Ni 7.006271547731756 5.91651453452363 0.941847120455471 -1.5211757018733028 1.7553222101168675 -0.47033961460351253
P 7.979763438624868 -0.04135363937812976 12.148978624904325 1.6877345928748806 0.42059133953579175 -0.4459393313822772
Ni 7.788035670882754 2.800335046287159 4.213555888705744 -0.6229857521787401 -0.07521042389456725 0.6184917209631284
P 4.150280972374148 4.964072846200602 6.437349377271589 0.32212477332676137 -0.8002877406294346 -0.4403780352444158
Ni 7.12807571596838 1.4566502529663483 0.36290256739951754 0.20056584407464167 0.030847838618792037 0.2203779937045624
P 5.782562854686641 2.4536328171573842 1.945950009354321 0.5806844203073677 -0.48276832728516855 0.8708205565426745
P 8.166829633066618 6.740379062814797 6.607956561827123 -0.36230391664880834 -0.6487967997045729 -0.41656370643363744
P 9.022173491644962 4.974419710859454 13.242187030422684 0.27500776523430054 -0.14921885706123333 0.46078745213870315
Ni 3.2340898717163187 6.339017601653279 8.215166492055491 2.222098275738838 0.43802084786614887 0.5825420423413967
Ni 4.4509890116069775 0.8873688671518595 11.46917225017214 -0.22231377727469456 0.33554258939456405 0.005801437173125492
Ni 1.8637518475251798 7.75126408384869 0.9512735528959956 1.780626750319927 -0.1994420148828436 1.5496349856552603
Ni 7.607715047216829 3.721315685002619 1.2860595210224621 0.8162414357452137 -1.2735342444670972 0.9606962957589003
Ni 2.0004364889637563 4.420058101708078 9.008939193641824 0.1381934524850072 1.5210314629859547 3.0482081196376987
Ni 5.467696429096425 8.190292885345126 4.4772455517297844 -0.20149195543333684 0.4243556916742305 -0.9809812712601815
Ni 7.368658599966292 0.4563113559990488 3.3842647406725628 -2.568605848785338 -1.0154237692087673 -0.3396699812993763
Ni 1.6724719564334924 1.0771707652971367 6.254461232154541 0.1697311180819722 -1.247654805597174 0.45372154643085727
Ni 6.971876449046897 2.7736086926983936 8.46935842798853 0.18001527361679964 -0.5329740016052821 0.41702830477488173
Ni 2.09513040933982 8.328229753336938 7.702515909568607 0.8880253504567351 0.07476536593734866 -1.473256766704837
Ni 6.905389617307951 4.668721046093291 3.181819010475528 0.8541801197725161 1.7873815525452572 -0.2134596693181743
Ni 2.2754693136853543 0.07041443575300008 3.897545092571987 1.4950463517761026 0.513984862097289 1.0682002895798506
Ni 3.4022995451410964 2.5831514321891236 5.466280590460687 0.8402740512143851 -0.515700559236815 -0.8265867835352797
Ni 2.1806748495714396 5.836335473757334 12.928651438308023 1.4079957407134978 -1.6500764162024744 -0.7100510185293643
Ni 2.028460770804781 3.91287892662825 11.302096892917117 -0.1843475824435664 -1.1038391218293828 1.1870022249121235
Ni 4.613047236343233 6.619488928558638 0.43303273858459335 -0.14001636462635886 0.79154084767474 -0.48239551732678215
Ni 7.668781657451624 8.727909391974404 5.787843228991782 0.459223450085693 0.364108831068031 -0.06850421551898525
Ni 3.6183954588023797 5.465530168562725 10.549394480174968 0.32817509328589933 0.7741337079418861 -0.2964893321468442
Ni 6.056133225039496 1.272810598475637 5.401425309376868 -0.8250348656671275 -0.6018831658721698 -0.18393646304807676
Ni 2.0077579011472726 8.902380198165359 11.914840594502666 0.16790692038903984 -1.415428285732143 -1.1323050904795597
Ni 2.800106537792043 5.5969956759728525 1.7783527386964542 -1.3263488171649676 -0.9232090974467198 0.22445550620804572
Ni 8.75408732517489 3.4790509784806534 10.386626051035893 0.44500293561093685 0.2529713542595514 -0.6082006234497654
Ni 3.5976651681254577 2.9758478512158435 2.3798858135116125 -0.819469198653892 0.6248022365621885 0.2413707939061456
Ni 2.818231831624643 4.5541194656227235 4.225047123908136 -0.013719149358305406 0.6040871155020241 0.08535496852773687
Ni 3.4386323958645377 2.5513339093291743 9.911861263005258 1.4929344476394224 1.372579565997733 0.04783948808078213
P 5.514805740449536 1.5752004602325205 9.65962261768847 -0.0761658458293011 0.9515359694158708 -0.8739038234536884
Ni 6.887310025174375 5.13758391671207 7.70033502449122 0.15128036757595237 0.9897934702351727 1.2593288995009926
P 5.455466654437818 5.757372078185054 11.842466469895552 0.09459191374497258 0.5402031723638697 0.16387517352182746
Ni 9.173062221139947 7.897600924120965 10.202614558156856 0.9511932413644714 2.235463384191834 0.8089670135709875
P 3.707404087819958 9.128110029980732 5.788230779399498 -0.06989466810860866 -0.13863851044222575 -0.571975322569144
P 3.176469169587872 3.860651024984541 0.2676081266982892 -1.2149012653152367 0.26509359144438216 -0.6361801393818269
P 2.2383595340785183 7.70640329608752 9.795099820238855 0.8092256665490128 -0.019102525157405813 0.8720958237106723
Ni 0.41766508527105317 7.099630978496341 12.855073530948637 -3.33959252645781 1.2250303833294385 -1.5726774692970207
Ni -0.12304542638209386 6.368138724270859 1.716266066539461 1.734003651144749 -0.7817482870643504 1.3461152011586173
Ni 8.720268067897724 1.8787054434455697 2.2200075598187636 0.7492976227348128 0.05819357762159655 0.30606309187820835
Ni 1.9542503519309138 5.547573858649168 6.489415494900756 -0.6429670803966733 -1.6367033373296782 -1.6256334526687617
Ni 4.6362911204664305 5.829580762641705 3.002328329663864 1.1188847033085956 -1.6245936985503375 1.8612218355651753
Ni 7.528038705139787 6.8216732450372595 11.44628301123336 -0.8790468011072088 -1.6121881257971333 -0.10869184348146442
Ni 6.999434573557885 4.1893650653787855 12.605296379141238 -0.23740615283144273 1.5681703254552863 -1.3786761658137738
Ni 0.4348096206426152 0.5577590734567603 0.501657495803845 -1.1500439025202194 0.1433179181957661 -3.2145186420738963
Ni 1.1059628356817508 3.4040727710631966 1.2784611565428652 1.2065238398848188 0.9342417011117976 0.5571017478914212
Ni 0.9136948738571817 6.348084818739482 8.32065058357093 -3.0163197555695342 0.8152608169994993 0.3393395945431511
Ni 2.2531943055814483 0.8801379443324094 9.267291812253935 0.40875115236775417 -2.6338658463354125 0.5682670204796213
Ni 4.232333802800395 7.716987809581291 11.540181722046421 -1.0997891201297252 -1.1913779853823159 -0.6627182948816716
Ni 7.6569449174046165 7.641388059057119 8.535739231785744 -2.07971418221125 -3.52474409285991 0.0014436744250620299
Ni 8.209679546070767 6.939949242109292 4.105529868690634 0.08518784682225329 -0.4476470581020033 -0.1810660834788172
Ni 5.50571110234392 6.640264920934582 9.236482468874438 0.5362243902217797 -0.9821063860035602 0.7654192108870237
Ni 2.5195712285080525 3.0715929106694406 7.552042151500751 0.9046411046365451 -2.194474086263666 -1.7664178058093964
Ni 1.6038828465394788 6.864614561439455 3.5587785064606 0.47432662427571853 -0.83742861134579 -0.19268387022340366
Ni 0.4124678880581353 4.598614639791707 3.6027252602413062 -0.2702337408844249 0.09445873060121797 -0.5594015996691915
Ni 4.552382801059841 4.327905195797704 8.51670264607462 0.28234980742166854 -0.49861635006101873 -0.5059005424272578
Ni 0.7232705185712086 7.624853184350528 5.651978476033681 1.3043250045957084 0.7833194882062121 0.707261371599369
Ni 0.9427803491495247 3.1405293534760306 5.471297722979453 -0.1575335475745158 0.6773825817620656 -0.24486595154359764
Ni 6.079587336978201 5.52850710981669 5.230617037345631 -1.4822414867019507 0.9050753639604865 0.41764691219548716
Ni -0.21687649868059944 0.036902293893270405 7.929858097325519 2.4962053835357394 2.7918948454891077 -0.7012593883796632
Ni 6.091058463433023 3.257662808072484 6.385616882045292 -1.1299556164107765 1.3747220662620323 0.14980378303042588
Ni 8.116905097053676 4.667514521239079 5.770907093367764 1.3262649992019093 -0.07304221259865486 -0.8690814623643807
P 6.394563446646073 6.9858154672489725 3.0137665508953897 0.843720872112405 0.17314682863174052 -1.8495757666858146
Ni 7.625904323428061 8.370046807943163 1.2754823198005334 -0.6492302876975657 -0.7519103777673115 -0.048673553946303266
P 0.8225455772573574 2.185053072337862 8.924404760958618 -2.474623800710222 1.813715819564412 -0.5685632115638014
Ni 6.414562510138624 4.225085513335316 10.16095563142925 -0.11421920105759684 1.7608215426685416 0.2858943302398173
P 3.4397566576605088 8.872802058557545 13.49125489186124 1.9573098742397002 0.562076061177561 0.06515612498235876
P 8.21640683616698 5.584747620634636 9.722886565612301 -0.33721226378750313 0.1986575713083353 -0.9839580945003182
P 1.8006743625333639 2.511811080013914 3.6051730432409888 -0.3036861070055996 -0.21293773537643326 -0.6544146601119826
Ni 0.01884098243930307 2.6818396810598144 12.7471142354141 -1.4351021100119865 1.9830173063081333 0.4461396203185414
