# total energy = -381168.3572191845 ev
CRYSTAL
PRIMVEC
9.25156594864494 0.00000000000000 0.00000000000000

0.00000000000000 9.25156594864494 0.00000000000000

0.00000000000000 0.00000000000000 13.54060192845602

PRIMCOORD
 96 1
Ni 4.72626424531516 1.401158918408777 1.39171677017517 -0.7317899528683526 -0.32219573577401284 0.19806364647807825
Ni 0.5656398185262611 3.832359437723973 2.181120514301036 0.2610482177304149 0.36736770432496085 1.1564202383602082
Ni 8.399006415280539 3.3902270998011104 0.43522881939266705 -0.8802953288023291 -2.373524939084667 -1.2262863672237267
Ni 3.4005240927307634 5.650865748809842 8.962470265489591 0.369779399090247 -3.037365777606556 -0.5639632508979449
Ni 2.0545785200579907 2.0163325463192776 2.487137337510408 1.5805059642025039 0.7510308033758355 -0.8078092458174604
Ni 4.869561750694678 3.6700222095688675 2.109341314531035 0.8669343341143908 0.2636686860723975 0.6456227728519656
Ni 2.4579467965475663 7.74737236586441 4.228391222395745 -0.34506672683491535 -1.443818663949378 0.5669637282871655
Ni 8.030266750233636 8.325067900012083 1.4940427904798788 -0.40245940582177137 -0.8976952694463314 -0.36780556319332786
Ni 7.557234181955838 9.084769491576715 6.583792736525005 0.20615053725127075 -1.0835099233537275 -3.0269098723805543
Ni 2.6511287456617594 0.37189999998380374 10.313308066249697 0.5563191040891258 -0.8505962590759997 0.6872746440647971
Ni 2.748057402376926 0.5822510052335326 0.02351007945447956 -0.3991552811492029 0.7868408710959095 0.23164019688194298
Ni 3.9384193900560023 8.247687802201101 12.316951164678304 -0.22004529295549202 -1.171821660516943 -0.5122311126309759
Ni 7.178761869503726 3.3325158312519823 9.806226034559232 -1.8869022710504149 0.5423004212125305 -0.5411061437941133
Ni 2.3256031452818924 4.600553966853225 11.3525087174709 -0.4238255302023733 0.8282500301703155 -0.07603857622281744
Ni 7.169130989324239 0.9915920927162655 0.3331350133939191 -0.720355742889482 -0.7979997159262062 -1.3351329911155005
Ni 2.5488711869452625 3.4764239399858203 9.379818583323281 0.7342299297684128 -1.463227664603609 -0.20309375270281793
Ni 5.480757205236131 6.440070584267255 0.8019655204060848 0.4558738168871697 0.22297737900062245 0.4051243542484442
Ni 5.765575915328059 3.0931963226228003 -0.014808981655432644 0.7529915266466323 0.059319720806239776 0.4037688686618143
Ni 4.952807341333513 4.719538356851674 4.844719445739867 0.36843368369563 0.38912309372418147 0.300965622750643
Ni 8.797600883727256 7.319126628469319 12.635737924402324 -0.5215009679686761 -0.4076378646989173 -1.0591996287431371
Ni 5.425414337576482 8.432737624823682 7.039230676632439 -3.065481304895849 0.1924200750390557 -0.26640613960821863
Ni 6.865244801758802 1.9001883870750085 2.3243800882600594 0.6805033867792345 0.8173850624313536 0.5706082670182882
Ni 8.80018207063415 1.4765961873651072 10.376799713219711 -0.7837820296649276 0.26559778477431034 -0.20696146318834033
Ni 3.1503154909495583 0.08709979302382469 6.17148097120785 0.1268065508043042 -0.5523338941891327 -0.29033282562714513
P 6.88167558292957 4.731546889486617 1.6542281043893077 -0.6599577014173988 -0.8622042756285732 -1.0934292393499685
Ni 0.04864288358089196 3.865665075232286 9.863082458412313 1.2166534721196531 -1.1253844521003264 -0.15517481753435214
P 5.475252523481284 1.8074691928782531 10.06769471728804 0.15184935270554492 -0.7345315201692317 0.6898262068420572
Ni 3.434773389968479 3.2151597168650494 13.458979271080038 0.5399152088098057 -2.1205435575227867 -0.023344588263211407
P 5.102617949159102 8.805584985163277 0.4816837076205823 1.3177237945001177 -0.14059537705828043 -0.16616551221790093
P 2.8703168467303604 4.197278206023395 2.6561245912880067 -1.4233197726650777 -0.6824034320154247 0.19444199056509096
P 8.511653482586436 0.4325523413562351 8.377678780239451 1.5557740086734626 -0.4058825725707074 0.6685631836982228
Ni 3.5539150565884965 0.45907195522222977 3.6397954932168783 2.286662275663152 0.5517327702700241 0.13325873418755113
Ni 3.7932160620857296 2.8187578695542963 4.441208695134283 -1.2007272878076998 -0.6489464379085598 -0.43213430717838475
Ni 4.397768892257468 3.6092116664182714 11.056591828835925 1.0218785236951757 -0.09583889877819624 0.07768408224604041
Ni 5.01239667777547 8.629379659612349 10.283992629146198 0.8644002548386275 1.801543445867936 -1.5781806585034368
Ni 7.334752523400303 2.496960650262166 11.870707430836362 0.13151166958945737 1.3929655858532526 1.261481684177937
Ni 8.734560713176798 1.5600823187192798 5.812953184683635 -0.2999945170866253 1.3356410411001707 -0.105151948649006
Ni 1.6558360265556813 9.209082783576495 8.17469202150545 -0.46910497086546304 0.32763207629823576 -0.1393944147716438
Ni 6.074282168766228 8.811533742084901 2.796039724147237 -0.7494590880133415 0.5014090823148074 -0.19289495779294522
Ni 6.328108132843474 7.790031336572975 12.474036278829669 -0.1505460605130891 -1.5249886478614898 0.3517279409051749
Ni 7.049471235009648 8.004353113938972 8.491771867307166 -0.14403602730871323 -1.2109998733783016 3.157907321337755
Ni 4.16646123976223 5.266093119929075 12.98378553699059 0.19044212537707847 -0.49013633761446557 -1.154277995206225
Ni 4.620435582132493 5.913360430205226 6.798966583117258 -0.6063108626262204 0.9201476849125767 0.8777602210853012
Ni 2.835993536964849 4.2064002500742825 6.979571028289076 1.484144103041302 -0.5902723211061188 -0.7638492952967425
Ni 1.0973559949371101 4.8527424037529805 8.201596500515985 -1.200009950025701 1.0947353597559017 -0.7098700128668097
Ni 0.045255885277615954 7.360074059472596 8.467615103391067 -0.07770028019595651 -0.4129464213960243 -1.597823886655661
Ni 6.65522500257096 6.473700026584677 2.8563358802296483 0.9269860479906487 -0.10075561935352326 1.346596768780726
Ni 8.330924141273961 4.932648179075009 4.793156767937412 -1.2902942375342552 -0.38629025226107666 -0.32810207395611884
Ni 0.04240362748766788 6.8281645253328795 2.9239037671680426 -0.5770257405088578 0.4136725009287715 0.47933333346169055
Ni 5.5070316526038 7.3003922073708925 4.98275188492328 -0.6415092649042242 0.9091446489338536 -2.1223273888960867
Ni 1.6568999566427525 4.5846227702450815 -0.00689796759061072 -2.0714385724660196 -0.7741838444535312 0.2363687127058639
Ni 8.792679050628806 4.904051588647732 11.630415582623256 -1.0617792165448554 -1.1090548617023674 4.627874875768359
Ni 9.013939502475703 8.373657124510324 10.39984536406227 0.0052352802570103385 0.6443783589219031 1.2828686344941456
Ni 8.689551844710703 5.5174211611932 0.7316323403979036 -0.03059792739151505 2.895705706729187 0.4544152300637722
Ni 7.036324759759839 0.36605393544449727 11.554466702068535 0.1329391460646033 -0.4519611120963248 -1.53932511908882
Ni 1.3349917185589275 0.9203809390971013 4.476590384047282 1.4735334174049914 1.6886247087893176 0.4794202367485421
P 8.192446701767173 7.302390545621392 4.8026886563609725 -0.5833069455318793 -0.7419368114943673 -0.07591979125676604
Ni 3.7324702798969556 8.003242926022029 1.895372946985265 -0.7965344442345894 -0.31350900663329234 -0.20584354753381326
P 8.607240662235295 2.6426913174929867 3.7241938289761394 0.63269526615702 0.17086574590704767 0.28515179564683796
Ni 2.130413606351226 7.187338071162117 7.225333327462921 2.162085385520315 -0.20891344470838857 0.2430453533950911
P 2.779707009575799 5.974578042258701 5.5457291027620705 0.5013136943875238 -0.30131117901551974 -0.45761033996230216
P 1.6494987038631272 9.052823834266658 2.6838691124890293 -0.42318429707394867 -0.6855828581846709 -1.6123583328264104
P 1.4038326209754166 2.3459010810300147 13.639718789115085 -1.0684502008071275 -0.1648827888507354 0.05077877321476416
Ni 7.367706601401585 6.315414984326417 10.616008203057199 0.04250342057984938 1.378613945117271 0.013715806924195734
Ni 1.7049710934464184 2.0102080096441375 11.29310533750503 -0.0399855392540021 2.6175825357943565 1.016043405070637
Ni 6.398151738836654 4.89026675534568 12.215166360983106 0.39074905936337867 0.5281611535976711 -0.1709953295063765
Ni 1.9271752050227169 6.071395680182173 1.7596552496086795 0.09526271455975206 -0.443777547844268 1.7690305608418955
Ni 4.6648523503762185 6.502611170255088 10.687014897068325 0.6856178251876643 -1.7819894349954084 1.2447026649473854
Ni 6.41439748868793 4.231777295542423 6.696274200799957 -0.47889367482111067 -0.7975052927882911 -0.28676747687339
Ni 0.14665027288868934 0.633985762163113 12.410394756490868 0.01802189049871735 -0.576847820170097 1.6548715235982727
Ni 2.3198301681137847 7.384821998454468 9.762841741078264 -0.14858893678671828 1.767944269756252 0.8086132297759945
Ni 0.9982347170859791 8.24435723845027 0.5918356275831472 0.49981551257544243 0.02779028273939085 1.8842494068086002
Ni 5.030307709502164 3.260834698081312 8.627651467088306 -0.9224135981286179 0.9357301127318658 -1.1286482104532627
Ni 3.847300716772841 1.0890295855600316 8.43835425052682 0.16158920570112817 0.24695960084783272 -0.5256689833034367
Ni 6.921142763376921 6.5161832175397265 6.5527981401971305 2.0822760294011555 -0.21197794256632524 0.27986869287102767
Ni 0.4435367256377964 8.590125265182412 5.751316476691513 0.6484805540157348 -1.002720462709486 1.0564053538274516
Ni 6.124823473685093 5.530290089463772 8.86003600186298 -2.317139618316403 0.5731436318456323 0.030643178807153677
Ni 0.7313520179488753 2.051358975098854 8.655964959596764 2.3387479406147977 0.0049442313791527755 -1.707728519498304
Ni 4.628382677304615 1.1941181234647356 11.96940498696586 0.1660904360055914 1.0414932126023095 0.42403661777191487
Ni 0.2985526597811202 6.315081927951334 6.400886501738724 -1.3271913676709206 -1.6133960300623051 -1.3352908568496036
Ni 8.123818585368099 2.8785877467115917 7.57611570295326 -0.10070599706251045 0.2536724940916341 0.185500465101087
Ni 9.272659544953477 1.103674814497715 1.5462965602606304 0.3155561189703081 0.5501188888156848 -0.25644748573361
Ni 0.6418246140133336 6.10850371130602 10.297316734462719 -9.924458202563555e-05 0.30843519165481076 0.04975238883277883
Ni 4.149114553559984 5.821714417661516 3.072389550746079 -0.128107786114231 2.101697371350561 -0.21974164567214413
Ni 2.5086731327859226 6.673598612596381 13.273283689152436 0.11226259155185828 0.19454303491932948 -0.2359614499651162
Ni 5.115126066356669 1.950896220181416 6.35950609744784 -0.184524731451379 0.0036013441980131526 -0.9023939604735814
Ni 8.442886592697743 0.3905419054224848 3.8469389805432366 -1.721326569897713 -1.1874105160941357 -1.3287548555032986
Ni 0.9964121585889965 3.2889409555119387 5.642477353940734 -0.569957777918483 -0.08363592895410112 0.33059681535351454
P 7.921468334373145 4.97123646075478 8.185063952119497 2.5654853008784846 0.08704572596659847 -0.822158572560597
Ni 6.438044491318833 1.074467620716119 8.119893145925104 -0.642326618599197 1.713384432232501 1.7196119011994513
P 5.804543511212785 0.4184270504263204 4.77107142964301 -0.49621622525995834 0.1862121464561309 0.6179515321889422
Ni 6.5618859534539125 3.0986177402838755 4.297989828065548 -0.4745554524570731 -0.20732373162376552 1.2119136434418225
P 1.7325962694463695 7.948677189904242 11.885168553611152 -1.8104795720153015 1.7428428467029338 -1.1834566736527103
P 2.569687210387958 2.0737200100592967 6.429104703117643 0.7708105571059242 0.10879468760791587 0.23447895188231874
P 4.077905250254014 7.560592500404593 8.522996827627809 1.3432000843943512 1.2684473168624928 -0.45079203148888813
Ni 1.331716664203943 5.05437103260192 4.248946351677959 1.4766699061514441 0.816729945345858 -1.1056815743547603
