# total energy = -381159.808387426 ev
CRYSTAL
PRIMVEC
9.28890934078091 0.00000000000000 0.00000000000000
0.00000000000000 9.28890934078091 0.00000000000000
0.00000000000000 0.00000000000000 13.59525775758765
PRIMCOORD
 96 1
Ni 0.8775074875190255 6.144567177099597 7.329081482982481 0.9084674203611709 0.29777154129337746 -0.2464109274332143
Ni 8.631886335541443 2.9342364602986915 4.992708961387931 -2.617737316204666 0.8640225597842344 1.3012733622535781
Ni 1.802819418790801 6.332314615528514 3.2416129772598925 0.8185436015158291 0.6455847205251785 0.5998951889078635
Ni 4.155477256487348 8.495487988723205 3.2774226521998946 -1.8715481571918477 0.8297950060599322 0.2553241707624442
Ni 0.2578443360449946 7.894161144564566 4.136289156172554 0.3094032119950349 -1.0557234972690785 -0.3743611049236585
Ni 7.232558566784055 5.9534107088911705 1.4662617926952026 0.7049959726039601 0.16920661303706988 -0.14115484910617626
Ni 6.835429819745093 5.188366835130825 3.979617764412147 0.5097595111620318 0.34594655833670745 -0.3069390667252585
Ni 7.010897319840197 2.219965765761207 8.303167620156819 -0.24476259319651397 -3.096215243644597 -1.4093088030979664
Ni 0.1794292199887291 5.077150721915436 10.180510101931368 0.5876323123801105 2.1649539653173617 1.944439188924619
Ni 7.960446802620609 1.3245056028883535 3.2630657137061414 -0.7899827591590007 -0.42612898152456935 0.15258494531998884
Ni 0.23060739566495936 1.0421784881244247 7.209605671456633 0.383733547277494 1.5262101789734166 2.819596939390067
Ni 4.274226675291786 1.2216773749342609 12.295578070706124 -0.5162895989710657 0.13823356169432321 0.7212551147752997
Ni 1.2164384299870061 3.1043628374422516 11.511458492435706 -1.7477464546521384 0.7531792171774061 -0.19995623551510078
Ni 7.172756567545713 8.797442569220378 8.804044197188487 0.048736803084070905 -0.26108215629214393 -0.4472742481436168
Ni 5.337360943205228 4.115739301727853 12.092152810855264 -0.06321391365432338 -2.0225032802178973 1.5179340550075535
Ni 8.367031659511177 6.231520658750749 8.578390576949717 -2.3014119231685006 1.085076496509899 -0.08923527741874955
Ni 1.0178415452843415 5.57982934738641 12.746641941755264 0.4417062671375361 -0.4508272556021978 -1.2274911861651054
Ni 5.696730273204139 0.2141948215030726 4.802293748156086 2.2295164225797794 -0.9551884785667937 0.725508490735015
Ni 5.266310074585458 2.854361127672021 0.3837750107691527 1.7997734984517066 -1.6551260628112399 -1.1365258134291265
Ni 3.0862215972259603 6.410917367556295 1.5885103437011128 0.22730994493770532 -0.8448927809333191 -3.2000430741655403
Ni 5.522265975332975 0.34274218202801365 1.9164961641276927 0.8408880306493002 1.2394324176873814 -1.1354171537459798
Ni 5.615415159607921 2.056908248732648 3.359197566815419 0.675077844888289 1.6246420352897697 -1.0622535850781123
Ni 7.383354723297764 1.6406443481629327 0.837273504993248 -0.49147433969959875 -0.3944265082149659 0.20290194840698605
Ni 4.441009045022204 5.401342951709997 3.469686358418449 -0.78352286246627 1.1713802021041504 0.6250459771418784
P 2.375610733023969 7.358423290250899 12.861154688945442 -0.03833874767919849 -0.9474741406416716 -0.3315167560646226
Ni 7.211017585697737 4.30660781374237 7.780987858121542 0.9560860506803986 -0.4213973803768549 0.7342571834619225
P 7.30158445313698 0.1647536718997796 6.595141522619088 -1.7076737550009686 1.6686665204998359 -0.08339141704346283
Ni 7.820379336557397 5.534025734735857 6.055341628189403 0.9115720274284236 1.3747647465745096 -0.3241286911306676
P 3.1382673570477113 4.641426555983134 9.266214817303995 -0.4581006493351595 0.1043649339713364 0.6942143086074237
P 6.318594896225154 6.319161519703492 12.659931829532512 0.7180841732464859 -0.09804799061437307 0.6484820966776316
P 7.815131102700661 3.442516298186677 10.542429237582798 -1.922303276257528 1.127229218618549 2.475479206731982
Ni 8.775660076487554 1.6391952782839048 12.368190405009642 0.7645851450215025 -1.4939680311102594 -0.1565308173416143
Ni 3.726599016842505 5.950791236417543 11.86935367249999 -0.8846510346678635 -0.2964412525177282 0.7007461961886706
Ni 0.7142196055353395 7.8536522103181525 8.94482319371794 -0.5397372884710446 1.9139883286339294 -0.7445678213593113
Ni 9.170392284880434 5.478561656225116 3.2003377079813005 -1.9381867802570039 -0.6878356587745896 0.030282453033625267
Ni 4.883514114875597 4.623721894512448 8.0030392392636 -1.9372179885858312 -0.1625222590383588 0.8064517033483015
Ni 8.035064612481063 3.5946872133035646 2.548090919830001 -0.7236642384374247 -0.6397701707259305 -0.9832860081339582
Ni 3.031305564374597 1.5640015560356317 2.5034577097740467 -0.6869519706180556 -1.3706232136023104 -0.38455887139226674
Ni 4.294188541766342 7.400223382915164 5.211959736321484 1.6948295520484489 -0.8352956241631873 0.7338051835261684
Ni 7.301231474576704 7.802396007802282 5.06956261176045 0.7787251839673105 -0.466965298814641 0.0530642268148312
Ni 5.255070494113512 1.1653122722038693 10.018971321602942 -0.6170727291284146 -0.32001286919008115 -0.46254480114944213
Ni 8.87772661386421 8.127647173277671 6.711353211353331 1.4639583721220464 -2.0702442950476025 0.9961299539761618
Ni 6.410257854983147 2.4448223975665115 5.626832158250954 1.0845504488031 -0.7429840218119591 1.0734630806406869
Ni 9.180489329486225 0.5482723087672581 5.138028376871672 -2.2340665038443075 1.014395327944253 -0.9395980803277044
Ni 5.1262704752506885 7.392327809856358 1.5800955206023222 0.5799598834365173 -0.5401473794252697 0.2486285039098234
Ni 1.8741396657855185 0.44684020390815193 4.308839938690641 0.05364761012212696 -1.0803071001457136 -1.8339190339851643
Ni 4.900289885398188 7.422303120751377 9.260423182242624 2.2733575881344463 -2.9455604254677854 0.05747649694991392
Ni 5.721652417341522 5.654187067781398 10.724959095556267 1.0669486765609366 2.015961365334322 -2.5282570126546458
Ni 0.7491375451651705 7.7256231709422485 11.235107862031818 0.4966453423775769 0.0711316258395033 0.7696443047119649
Ni 2.088174718045519 2.0244899546441406 13.31529040235993 0.8844983111400833 -2.061492002776269 1.1216262706094748
Ni 8.16910357629114 1.3200655041564604 10.188979729596095 -0.6662918711655429 -1.7358139648806108 0.25754020457715643
Ni 6.496403201509458 1.731025437412555 12.165404222131071 0.404837933356277 0.0694113007142869 -0.6857600071924834
Ni 3.380466382853945 8.905825565044077 9.018291965475601 -2.323651965513624 2.147008950803167 -0.783656816940973
Ni 5.7743484008269395 3.423947768134262 9.778022583012845 -0.22478897828806446 0.3653149355609902 1.0432521042749452
Ni 1.6242215562006168 2.511321700540617 5.584320535120448 0.9962533669279036 -0.844510715003552 1.565142851482872
Ni 4.981214864796207 5.373624845818848 0.5478942501513835 -0.24058789299353406 -0.7304997733020193 -1.0658783263148934
P 5.83894347735745 4.401317534810113 2.2546923538557304 2.192626748642282 -1.5884468163161354 -0.3763925335313905
Ni 7.94888211031683 4.7340462724176655 13.018193921521293 -0.3632845353945227 0.014559642981729763 -0.6810132365361175
P 5.957730051799811 7.274953149655102 3.6154553571210677 -0.3723962678878038 -0.49167180042238545 -0.8310846714056332
Ni 2.8494658723755615 4.024011320603493 0.20383675854086766 -0.7049460932026311 1.881270269575618 -1.4910953375481546
P 1.4648517362359945 4.1044625656179825 1.906041496506886 -0.6078226712850564 0.22110047369288371 -0.7246672257806422
P 4.583092204442782 1.1202889279497152 7.909843610441251 0.9047172092901193 -1.4506662829988306 1.6843039699267766
P 2.287867694066936 7.225034550104487 5.009309171521333 -1.8248209283386378 1.1651234225611613 1.8147368046297587
Ni 4.510759466314641 3.3300368932818794 4.956273213948914 -1.3713850314689995 1.8745977426514489 -1.30689507931573
Ni 2.6419423456617057 2.2710454789969394 9.164332200335064 -0.47216252674486425 -0.9327399197552905 -0.7462017574183084
Ni 3.353807212643625 3.3370221532115525 11.047669744288616 1.5074930621798877 0.6462400947209902 0.5738936226377793
Ni 0.643467839800856 4.845485319460598 5.459107893099167 -0.19361023869241495 0.4265835525634846 -0.10379697728300834
Ni 3.030209473055845 5.209396926195691 5.5557153383738695 1.5102873370955732 1.391720657702558 1.6430501054833122
Ni 3.212569343985813 6.886667444442001 7.2994702973391155 -0.5094728331595484 -0.9293581477672511 1.2009959680880542
Ni 0.07814852435416234 2.855290018620116 0.4208944219459684 0.5664903881951727 4.003628768819956 1.0408578930111558
Ni 8.324562765364284 7.544220057688817 13.002504953407975 -0.14093064891051213 -0.4437960597870292 0.8989988187491034
Ni 0.8618092304962236 2.579725229958317 3.5390224943480364 -0.6564599726767856 -2.305620819043526 -3.850519575565381
Ni 6.109993856011509 8.385107877361103 13.4582309281256 0.4176564252771839 1.0920030484264032 -1.5607382946572734
Ni 0.02537172735626095 3.14629297483925 9.267193868363288 2.6273041339574945 -2.032395599630945 -3.2338181137334567
Ni 5.041202642224167 8.32051280083059 7.223622635863384 1.6295410152532839 1.6077871685159597 -1.1296072319324224
Ni 2.082945062007745 4.098452641183809 7.308919904954084 -0.29283373767212795 0.15879775899892007 2.2975799510169206
Ni 2.32573857802076 8.972324868018184 6.475923942776812 0.02559841729439462 0.0585995548107636 0.3172946989279697
Ni 4.1862978581451324 8.267918995349465 11.18472388811621 -0.6963375255980137 0.5069932612708042 1.7679846360758844
Ni 2.456145578223787 6.813981727753584 9.818917007002716 1.2597348766901595 -2.016261927293876 0.2631313255116888
Ni 1.0623632884265244 8.940965509610503 13.3660830882927 -0.1290979179416422 0.31022519367569795 0.513656789333909
Ni 2.181333191229945 4.202414116094578 3.930293655068314 2.0555018466311052 -1.029361462335782 -2.2113536356278236
Ni 7.748297398985242 7.3070834875497 10.817746941252404 -0.07922160193648937 -0.7575457216762179 -1.0566089851978253
Ni 3.84914759962465 1.218602745896067 4.709628516065098 -0.9621286573300526 0.5058666038655288 1.2693006660017236
Ni 0.44811835785273035 6.577634714920347 1.0884196084115312 -0.001987719853990125 0.29656517969010215 1.1633539893655642
Ni 2.134972244010534 0.7200409651070494 11.398223899190107 -0.8829031987388214 -0.26174730067996854 -1.7339332029181298
Ni 0.31859566183228977 1.086105741059827 1.595335834387713 0.7995716883990165 -1.6314698568448804 1.002554369445267
Ni 3.7010730935888603 2.5438328837239346 6.910374599219276 -0.26221472723469036 1.0073523050545428 -1.0780100765814207
Ni 4.027290305650268 3.418272244441403 1.9521432831517782 -1.6948061550096813 1.270442750025967 3.2105663422943675
P 6.320034677194701 8.850677309455689 10.936814040761089 0.07747608000029238 0.545330466288106 0.6983838666040811
Ni 2.0994514541553895 8.409704909666653 2.1273590537999496 -0.752585035236833 1.427633055328451 -0.9780653831649672
P 6.183682774923867 6.259805388120235 7.565285446609711 0.700559019878529 1.7838509136841794 1.0948292050212887
Ni 7.636301017373454 8.282158893583757 2.5002901916410436 -0.07765939965569205 -0.19110701265458702 -0.3905443995517403
P 3.7084484877167325 0.3977260239185883 0.7051657054642597 -0.3805996296342026 0.3250571164822079 0.1476440563749457
P 0.8463784940664731 0.7500701516770577 9.38752518845233 0.8621837068032828 -0.0922252132850089 0.39637489019058836
P -0.022040724416393053 3.385891105990819 7.0936661477701834 -0.3787687470730509 0.28781417297034945 -0.8307527419875113
Ni 5.49995401475974 5.175223028215283 5.893340260168829 -0.3714143635905087 0.27162522191531285 -1.2758731770129188
