# total energy = -340888.6238031859 ev
CRYSTAL
PRIMVEC
9.09010207933841 0.00000000000000 0.00000000000000

0.00000000000000 9.09010207933841 0.00000000000000

0.00000000000000 0.00000000000000 13.30428323470887

PRIMCOORD
 96 1
Ni 6.276351714504196 2.1754795320829627 11.807657775198315 0.8226236851224735 -0.8508417994279025 -2.0925193043957186
Ni 4.753223340766965 0.4528297860907608 6.038454659323174 0.30619704635291134 -0.6458019787423072 -0.15390597812425752
Ni 2.9408842869777896 1.5432993097139496 4.698194591275186 -0.23877912191956943 -0.484644718372275 0.6291713121641616
Ni 3.371891465588016 4.200926933343153 4.641252375346679 0.8994904136735412 -0.25501306727992856 0.9043600830610166
Ni 5.160105389101297 4.553959218393987 2.504252153350713 0.34353280668889224 -0.2595065842749079 -0.4913054182219022
Ni 7.071290210268045 6.27653351654094 2.766825198978964 -0.20423763649927407 -1.186391587911318 -0.930943747086816
Ni 5.202347092338705 4.467612341042547 11.782326388408626 -0.10168455892569585 1.0883073447423708 -0.34724188010936324
Ni 5.7711238543933385 8.294963359182821 12.316239882887094 -0.7786539644097429 -0.3854872967438071 1.322722790376606
Ni 1.6336367417719146 6.795187457065325 0.36430492033913064 0.8973198883847836 -1.2953657385198918 0.14534600436938838
Ni 3.0237951058347736 1.789568348687022 0.5132289677479505 -1.7098471085032034 -1.4584680384314366 0.37236772864271356
Ni 0.2262035481776658 9.041660684496717 4.786029518297374 0.36977631376645353 -0.4197606161043803 0.2498217528869762
Ni 8.937851721516042 2.118311881628893 1.257168356164444 0.32249244107882524 1.0518442168193305 0.19625333274221685
Ni 6.895296748598265 0.7206269132448436 4.897040568963654 0.020286518163177968 0.5190149683220288 -0.49663042997924145
Ni 0.8222169823670628 7.206714547438458 2.6016789558315003 -0.3597757509103159 0.6792394324651464 0.621150241631898
Ni 7.595770906070066 3.8971902705553836 3.8946295888678475 0.5853550863101596 0.032432666607408664 -0.22879707100619306
Ni 7.465227953586222 3.9650297005663107 12.608961160268562 2.962034254753092 -0.869038010720955 0.5506606202517678
Ni 7.916596960311747 9.207727754960288 7.09138206235878 0.797726921880794 -1.2398270820226391 0.016296423167178387
Ni 7.1257671905783075 0.8377610565086527 0.41687207025339984 -0.3270093551125723 -0.9732209105884723 -0.33780156063206984
Ni 1.6936677743046984 6.5772977160279495 9.10607678215576 1.535084598644911 0.38133676491054325 -0.060192610329496334
Ni -0.0028333847426512153 4.898483168125216 1.5602196252736895 -0.3595021855339551 -1.04311763557961 -0.06867442254826238
Ni 6.476942991745405 2.1523452229073214 7.053279082487842 0.011739399924115266 -0.6009776233387649 0.9339473097998302
Ni 3.1775359982071185 4.352104416997411 0.4643778514647233 2.224223806722273 1.4745410327338992 -1.0887678293185572
Ni 5.696466848004521 5.393439213160053 4.807928482633341 -0.2811321329644835 1.1668404052522678 0.29820554350700257
Ni 5.016827203943554 2.8121957152687322 9.423889467638414 0.28833353580892923 1.1098876420163077 -0.03038863959418638
P 0.3067327603533062 5.526109249473797 12.534524134344203 -0.6808458577203178 -0.4482206712172861 -0.7533849054303089
P 4.2354420500189525 6.217711467552503 12.693642730963429 0.6539189514224867 -0.009547277368802913 -0.8023186550165344
P 2.237192233455626 8.621316195341512 1.2811780421470063 1.042531938279469 0.381136218863963 0.8452509356036861
P 6.462862423999602 7.9561752637108585 5.970124363813039 -0.7990325280660949 -0.7188454768925426 0.012420228041223771
P 4.630297893622685 1.067259766602299 12.603040776942 0.31647220302667434 -0.7492315453835677 0.5841032161809295
P 4.156567236377679 6.476079432070871 8.098756238057689 -1.0619527660082422 -0.4295061255269183 -0.4714392754255945
P 4.90638246662173 1.0484341656974843 3.631084811353201 -0.21345247022932273 -0.46643333757057087 0.387514611586481
P 0.2082106006011377 5.496775490845195 3.782128670510453 -0.8869048636990468 -0.8196396627934853 -0.6414874105273533
Ni 1.5536438456046684 0.9574876968164275 2.761889273681372 -0.6932254623315932 1.0072720866359104 -0.47526302004705895
Ni 1.8397366207264578 6.319820581489626 4.86610786142189 0.6273715399512615 0.5280585665815357 -0.5965625249902048
Ni 5.532072356278992 5.517019147636611 9.444231297529672 1.8635921355695646 0.14674468448912792 0.46471995442388997
Ni 8.970548817824403 2.633047988261449 10.35781016643175 -0.5569978753237053 -0.39058682275390155 -1.2012949873857117
Ni 2.402341203633641 5.167977417292302 6.920435425229007 1.119946826024523 0.7155858323046643 0.687038873904907
Ni 0.6839219910364659 -0.3486335847718201 8.884094677271285 0.5006524066544411 1.901730851422815 0.16114928995023214
Ni 1.6471900836111608 1.0298630876441113 11.297771237895898 0.8115522577996604 0.5756856815411956 -1.0632550297594332
Ni 3.971583663990922 6.712558431365293 1.4157351836021521 0.06766680721935443 0.6246654538740081 0.5726954885646202
Ni 6.0132478069286535 7.899734821403765 8.2256386065317 -1.1887022383223658 0.3298864195500512 -0.19038890354163984
Ni 5.523345858515293 2.776180731789797 5.049600657107349 -1.1714478221172924 0.3043515085037404 -1.9834965599373968
Ni 0.5377395183417417 7.334303216825217 6.731993978103383 0.22472675759156138 0.6579866937339571 0.207554616687649
Ni 4.984348270079285 4.40209997710194 7.4236034682635585 1.3570884123406692 1.9364883095086585 -0.6725489078188481
Ni 8.24061364029828 7.0334117559124865 9.185157032098553 -0.5358976030099802 0.4344477858029098 0.5554030200327597
Ni 4.277865555293104 0.7496470633600634 10.46476339563791 -0.16382915077524043 -0.6076401229606051 0.11278118305948963
Ni 8.019333291275636 6.971080927614895 4.787653010485495 0.1393789881526761 -0.0032953829218201306 0.3998695336074081
Ni 7.330449013646249 6.145263355910122 7.097981476292578 -0.7953751338191658 -0.5825428136723452 -0.8253737370637849
Ni 2.2753433908662997 5.045397394017833 2.7006892540523255 -0.6642923242370108 1.2792660047445517 -0.6934931141706832
Ni 2.578380115812606 5.711292804100974 11.470167746268704 -0.5144214354140754 -0.717152662571152 0.4351178152867409
Ni 1.0658780711230464 3.3659919894956816 3.876734814391161 -0.6589945661731812 -0.9029084382161545 0.08354645456408838
Ni 3.7395860849022333 2.6978331440550813 2.753400936585806 -0.5394932907810386 -0.4028247595809901 -0.6476140922503815
Ni 1.149825161589469 3.541058260778067 8.139693511681461 -0.467783166730246 -1.0213203371988604 0.5917697315872519
Ni 3.9555669045537987 2.5934060541494763 6.905933985768142 -1.7669744496438151 -1.2592990747043213 0.01195562969997941
Ni 3.862693334083258 7.19200676266589 5.994111324541008 1.1916412663460316 -1.0401827213210022 -0.4703031049386223
Ni 0.8278401193635467 7.377381209431646 11.305939603406793 0.07767714026750494 -0.9195378192427195 -0.3498250674555072
P 0.228442440260165 5.565060335846144 7.950812103626919 -0.1693850475964631 -0.3675523095319412 0.4246395414632364
P 8.449286018072748 1.7646796498568038 8.28721132033607 0.8985324206356461 0.25595743347106886 0.21402711178587008
P 2.056644630765416 3.204024554960682 10.501522858457312 -1.0042875500862898 0.5382216231574666 -2.2439526526097677
P 3.9492583738787905 6.022619701922793 3.526326841740722 0.7000075182504332 1.8389236862886071 1.7221984309797052
P 6.935947684014167 4.012743645109706 10.432619886531432 -0.3005894703581468 -0.39885934717533883 -0.772184040414683
P 6.628820413241126 7.9867998168003425 10.351849786657107 -0.8217546522539589 -0.9668654006840895 -0.7916408635877141
P 2.1765430739979137 8.475283709327103 5.529698930689303 0.29446793084144124 0.3476866809562657 0.6662090816437494
P 6.9391292196571825 3.915988601154686 1.4311020007579167 0.5846230932401415 -0.4574553024416767 0.912010657627739
Ni 5.195829489321442 2.735757048919826 0.5730709261625205 0.6731073514254794 0.9605947371840297 0.8307182892051499
Ni 1.5050299809793917 1.032335595343826 6.777388128657929 0.9302256379738689 -0.5771735789406318 0.5614721090449749
Ni 6.707177091077679 0.9522881585655566 9.533689716739982 0.3996304210134085 -0.12661577494973678 -0.30251882617037573
Ni 2.597514780179885 1.5783961929073287 8.884253754053436 0.07498288126479345 0.6788673938377082 1.0268471805543606
Ni 6.672980127966182 1.9173206399068494 2.5650258472035943 -0.02516672907361472 0.3792695979688694 0.29072774707271865
Ni 4.416916843096555 7.419522921548845 10.452642653848205 0.051504081416562916 -1.374597110648394 -0.507134414834359
Ni 8.368011417546457 7.003641672395698 0.6993088064162724 0.25296466939133205 1.0255891397775434 -1.0360509585408157
Ni 7.601979445624865 3.864029579053325 8.26572504662351 0.42216614022207943 0.7133487154440296 0.41639889872099894
Ni 3.1472750491911228 8.241813533740789 12.42115783829191 0.642082620909191 0.6176923649902846 0.6311670024379518
Ni 0.0681048609845731 4.964640929296262 10.134231839664665 0.49032171415239423 0.26303696602566956 0.5377418553075707
Ni 8.93094324411978 2.26742591216611 6.090873640577496 -1.7079455206051164 1.3453441273205475 -0.9759287964379385
Ni 3.684554608379903 2.8718995041353774 11.669452775875905 0.05664783040103147 -0.7339635634809037 0.28457458298712923
Ni 1.306320354818482 3.2408394674012895 12.648461288791873 -1.3911241617691397 0.5396061622098192 -0.5737339571314636
Ni 3.1344398253970143 8.647995644233657 7.804318749449363 0.3328766125266267 -1.355072667462221 0.6088320863861773
Ni 5.385558094867211 7.906261514522865 3.8847704644152343 0.3612417939328811 -0.08869071776918919 -0.005496504338196985
Ni 2.9880437353091165 8.22930555361282 3.480413646371274 0.5230932521564604 -0.38703818617069474 -0.05078160142824158
Ni 3.2948437624160176 4.830280134040801 9.409679820446524 -0.24091133777122378 -1.5729070688093234 -0.2819757119117015
Ni 7.222222261172699 5.979823502473317 11.354314398353754 0.7583250230444037 1.52123766545949 -0.39366520456890913
Ni 0.7008804850239221 0.000143623609027556 -0.18731609251817943 0.11029981139853261 -0.043396107597447844 2.261164902722996
Ni 4.601327739067569 0.08107643630623908 1.516368974011099 0.42850365240433297 0.14128906069119537 -0.08871925701427948
Ni 6.347090887001187 5.712747220394923 0.24448374297224904 -1.7397909472504876 1.5861657335914425 1.5041051195442612
Ni 8.104798428748868 8.548349947894412 11.692921600799155 -1.1044782980752785 1.389271167720801 0.0014398177703201008
Ni 0.15066116586990624 4.750178156651508 5.983188658173444 -0.8458484599783691 -0.5033955166172169 -0.9233942168743323
Ni 7.694871196299079 8.581183395730331 2.9055619692588484 0.5200308111810529 0.7900884314989296 -0.7366639931312022
P 8.59382772738586 1.6254920105257953 3.7103786786891675 -0.011178642324638813 0.7874111417770827 -0.8495292512640659
P 1.7930680378943393 3.3440484836607114 1.5559890918786625 -1.5639179779368357 -2.200774317450081 0.9253713952053612
P 4.858623071569149 0.9398619893541218 8.214809568213058 -0.3317183305524674 0.8242756189035998 0.10193678414581799
P 8.75145918334452 1.680241693891173 12.182559027249054 -1.4699603553417524 -0.9983251618552678 2.164994074526678
P 6.472670643881927 7.8212508821414914 1.2298507821233293 -0.7333130743810983 0.43931179876343046 0.29278360116048285
P 2.0314559585745706 3.204615411580099 5.998089153104961 -0.9949349052267963 -0.6966589134931744 0.3605475960793339
P 6.892151573362599 4.1192978188452125 6.0525843136188975 0.7141419007692862 0.05249215636144508 0.823398358504969
P 2.460008809688756 8.345840659165559 10.286126532353878 -0.4236602082691026 0.943086295986621 -1.2179127984480507
