# total energy = -381170.5080148565 ev
CRYSTAL
PRIMVEC
9.25950621784462 0.00000000000000 0.00000000000000
0.00000000000000 9.25950621784462 0.00000000000000
0.00000000000000 0.00000000000000 13.55222331504368
PRIMCOORD
 96 1
Ni 1.1945318669697043 7.1912011015984865 5.219529984078212 0.4978298496039814 1.638248570329611 -1.9779918280690836
Ni 8.616053927740666 4.000273383443543 12.79099493382013 -0.340049219015666 0.8886092479846631 0.4408020101557118
Ni 7.248785971144744 8.511458544818245 11.066135956154415 -0.623299683874733 0.5394331269670646 0.04280912474572627
Ni 6.791940450373995 0.3243271707147547 6.636455746895331 -0.13176903701590212 -0.5283814971385933 -0.02098123023735741
Ni 0.614596025435773 2.670386053694098 0.6699271311538338 0.6313264108339515 0.18063413814772117 0.5280739932005035
Ni 8.348935690617262 5.02002280989947 8.503058320722351 -1.0801255802625267 1.0486676188635615 -0.16995454694668793
Ni 0.09900171517955274 4.4879067625904465 5.117671711211728 -0.5921785369898962 0.8599327059855771 -0.3693052876673059
Ni 2.491140531154065 1.611135573453906 1.7444965385812476 0.5948067186413627 0.6326914095022781 0.9257316067582573
Ni 0.250337233894802 8.39659436943292 12.013761236305518 0.7845618452537456 1.0710912379744006 0.7154547060434387
Ni 4.882296913512424 4.234103695495586 9.192080405723797 -1.5991847715589296 -0.5402147423280954 -1.2849841381752514
Ni 9.323767252115978 8.41789123387357 7.599653664705687 -0.8653016836069742 -0.9305773648863328 -0.4149264279405306
Ni 3.2715965368536097 3.9167526368110854 2.1144175182115474 1.2839032464062468 0.17185459218287824 0.36482925417382334
Ni 3.1616954568335838 8.055807500357428 12.633653699332617 -0.9952138699197957 0.056856346867411756 0.7720894238183478
Ni 2.167928204995247 0.14041670891159153 8.018389835485838 -3.2770468425151043 1.5643290973323254 -0.5328734714716759
Ni 8.22102487088547 3.3343667299158515 2.4434253693501056 2.5274190901343827 0.4854828980028542 2.4337358042466084
Ni 8.595275595651616 6.932046039874628 10.189658870346381 0.4604588651546909 -0.5726463804942395 -0.5079250290564543
Ni 1.2688023668298967 3.626346741397145 3.3424530567489033 0.3112343516665027 -1.0718700251219542 0.20068462904069306
Ni 3.6272078754810493 6.272065470365205 5.4424377825240855 -0.7675079750952524 -0.5406150630903076 0.7518229602598279
Ni 3.0219139500527 8.758983666656254 10.032711164875707 1.117761902558062 -0.37135831354159266 1.6011328964242362
Ni 6.52545185967753 5.28056679756511 12.590070129230144 0.8036826252435966 0.29337135534315284 -1.671274133326012
Ni 2.9445970726268675 2.5487068816877665 7.333392857863674 0.6058496067190856 0.39113421061693926 0.3630603351988586
Ni 0.8074335772420793 2.5599201437910812 11.760646150527153 1.2724515529258793 0.03646801301904687 -1.3803352986837516
Ni 1.0336109073549071 4.750385987068302 1.2803813794312144 -0.09237510859931188 2.2898270465443793 -0.157779859257367
Ni 7.202506958764587 3.56403952364883 6.7623970696416755 0.23831786601243474 0.3490390812191021 0.6212217182997818
P 8.460447924729753 8.853097288471364 2.483648664624096 -0.5274106485848917 -0.9824144041622822 0.6927294965317812
Ni 4.948733871060969 3.266688998525982 12.190889109759649 0.8915189654322905 0.31821901051445195 -1.0086031467425083
P 8.103984711524687 1.783982777155466 13.50012866645857 0.4843739812093915 -0.11787196731883572 -0.49621571103932605
Ni 7.5061169101317295 0.4348291926922577 8.794823511657983 -0.590948264127221 0.2949911503347629 1.71812503224128
P 1.2335606859337624 7.681853079792195 9.433228505587774 0.31423122951129756 0.2570475812114541 -1.6890962491090977
P 4.092220280789474 1.229153160945176 11.70008157186046 -0.12815535152271476 -0.770410236343712 1.1611109589676583
P 2.9553473594162556 8.780280531096903 1.2784609578290447 -0.1133429691002306 0.21577031972922192 -0.03263166999209219
Ni 4.903204878689373 2.3283213727521668 0.7358270373382235 -1.4213618776077586 0.5068641918921077 1.5099602927734574
Ni 3.6757184288743354 2.3831654284399764 4.3038472227361995 -1.4487235574501631 0.7758167520712639 -0.4121894886253417
Ni 5.351439058621078 6.95446330457498 0.6348974929514782 0.5639300836671644 -0.674230152176013 0.3953256229904676
Ni 7.80002289891896 2.8118620501239553 4.6999920500979595 0.041771684620147416 -0.18376008537121255 -0.5437600364771926
Ni 6.2534631222516115 1.3206463424834582 12.644102126217325 -0.7979963734920966 -1.2064389934804964 -0.7367771216702987
Ni 7.859330036633027 7.766540524215748 5.44365725950097 1.7847680261818102 1.4838756798712638 -0.7724354943038568
Ni 0.6616741332077686 3.627698629313812 7.237971793762034 0.3540445048534935 -0.6512552885473946 1.1768270841513344
Ni 8.223941615363211 1.2576816997893665 11.220699338758367 -0.8375718217918736 1.0264615150801677 1.1732643065007407
Ni 1.8056685408598134 8.954414806171181 3.1946787441483817 0.10685041939735147 -0.956150585369747 0.15124077258726853
Ni 0.4727209442853109 0.48108598225734656 0.9962228729034067 -0.5229965786775961 -1.885872801344636 -0.32174527850015555
Ni 6.989806840040178 3.6103463145478227 0.8564034021467812 -3.4413441911760154 -2.637071497756904 -3.0690047446680757
Ni 3.155732334790202 4.253798665350047 11.041077880263423 -2.3786620032009167 -0.69960128395095 -2.137729068163138
Ni 5.02892119543315 5.7222174685327705 2.837131242758099 0.2237829056210533 -0.7049530351811666 -0.26968661013170325
Ni 1.31504434118494 1.9472186133398985 5.559461274773566 1.3167184931640548 3.891960359208672 -1.1268371253864529
Ni 2.9989966720133068 9.236727893097674 5.801774220527384 0.21108011334240423 0.06551942185904845 -0.6695062643377825
Ni 7.055188213872969 7.3928083318012 8.166298410927398 0.7911078739023796 -0.4078553800263621 -0.9659657716879557
Ni 0.09540902674347808 4.818517434265821 10.806800334058126 0.21806220108719224 -1.1488653088310858 -0.36775105580630857
Ni 7.1162176197548455 0.6636908536752352 4.196920296132841 0.6335216187130573 -1.012901517007546 -0.8308625280924982
Ni 5.8011269810385135 3.153537831802188 2.9366987137712703 -0.43086058267228383 -0.09016267432902537 0.38015482878730017
Ni 0.5388236336572008 0.46000671621424366 9.816729477126183 0.4072403721501825 0.5794957993159052 -0.3823505508870383
Ni 4.7688031450563235 7.863376440876751 7.078109195714874 0.24931036046819643 -1.0611595806829854 -0.39526263096301606
Ni 5.900074065131022 6.575369858025156 5.225574589776845 0.10277393533513267 1.3947630440733076 -2.0845018334078813
Ni 1.646923565220474 6.634269577462967 11.225537430788904 1.0861355339020329 0.25922479136843096 -0.2773628957300385
Ni 2.498112939381808 4.116017211925328 5.563119705704219 -0.05095026579562193 0.49115218047348963 -0.6735855766134786
Ni 9.089075805980029 6.6364177829195885 3.2771577963245027 0.6226574223050437 0.8865305110787635 -0.16167662320861187
P 8.159365818576651 6.86696097024275 12.622161726090319 -0.8356974875872962 0.13285609943249377 0.5430907783243099
Ni 7.393289826127685 8.780650911348046 0.3030766038054988 0.6663844308793492 -1.2989681111591695 -0.39943810249694434
P 5.085191215087855 8.944053418645492 5.111979892702308 0.5294449054061011 -0.3458987358179075 -0.9280291445431824
Ni 4.201750980558357 5.48811863079865 12.488414639551161 -0.8647776927827041 2.5340862177419132 0.7570554123033607
P 7.699649850859554 6.011280735536323 6.479833050095034 -0.21823137967520478 -2.2264028166514627 0.7304866606758968
P 1.7237311698009872 5.287289199123332 12.763118264217947 0.12922287355528067 -1.3914560911872615 1.1843545028766311
P 5.008929921377777 4.681847121594528 0.7779355680905252 -0.30561109194245434 -0.304888611954133 0.6873363505406679
Ni 3.8825943181495406 7.5699334274034475 3.6317116993349328 0.22067315634747803 1.705772681323514 -0.24451808128587565
Ni 3.244438404938643 5.181851201129565 7.561083191302416 0.5484469004299006 -1.444444727569151 -0.821464631817366
Ni 5.8411743456932115 2.003646044601339 10.312008430607282 0.042065818821798516 -0.29875627380415 -0.9289177177957227
Ni 8.918839783049018 1.4821876890189174 7.200093005477771 -0.15393246048681877 -0.08935586215701385 0.03802044510783129
Ni 2.847057433488697 3.4829447676613507 13.349712616716781 -0.6983324445408554 -0.26578650374634866 0.09739647307330324
Ni 2.2884684577293184 7.2618789130226045 7.33179374112937 1.6056665226285314 0.6835779119395002 1.1060618405123144
Ni 4.61383604797863 0.7682621618813315 2.9063145698688593 0.007041737338129808 -0.47707924732019125 0.7952764034577723
Ni 2.246458077743569 5.677679243332979 3.493600607486698 -0.23418610323224828 0.6013123809703644 0.4483445983896602
Ni 4.1604721015686135 0.5801126981038514 7.975470171983535 4.423471403115181 1.643917081469298 0.8002692286866734
Ni 2.9590974594590658 6.664724093613095 1.4553462322186774 -0.2990313818424076 -0.4247053617041654 -0.6381125805178495
Ni 5.396912493955002 4.285743962011019 4.8967982262952505 -0.6429508824467572 -0.18008443629183823 0.7979287534789549
Ni 6.8001814109618985 1.2769414728487358 1.8524531222827791 0.732798596638525 -0.3627104080586076 -0.0575410316392622
Ni 7.963490222760355 2.9082535104835867 9.469643365929398 0.9884469835096075 -0.33751051175421226 -0.28164763914832136
Ni 0.3292569318574509 1.5281703971981615 3.1797987175587634 -1.0067583802242854 -0.5336622859215583 0.8161769010558653
Ni 5.469636656266678 5.5066469028620135 7.1200260546872105 0.9522329954828956 -0.8778484099237333 1.3200848385331265
Ni 0.18359286073780917 7.250628612894175 1.0127566473143728 0.14910110053644643 0.0972028690052584 -0.7487350653631235
Ni 1.502660457400776 5.3078916005930905 8.856608493252187 -0.22636609296719723 0.25380542012507257 2.32343573573776
Ni 6.3772442021831734 8.031288327731847 2.860494829000118 0.2444016103126694 -0.6397578294307563 -0.12981679838553772
Ni 7.35957596376751 5.292715269802559 3.6544243422855702 -0.8069227294474489 -0.803477965431958 0.39971938118278905
Ni 5.603093920259317 1.8612533570499064 5.396956013634511 -0.7482259869371889 1.256868353775642 0.6421816083809005
Ni 0.6555147096312818 5.923130235764595 6.86059598562688 -2.014915954788943 -0.9613241591508864 0.16664682272969364
Ni 7.550358831130607 5.583074867685108 1.1490121341043873 1.3276924756770554 3.3895894272012272 1.0509304467558094
Ni 6.104486925736136 6.549369164395007 10.202777738841823 -0.12906603626244223 -2.2183534639844247 0.038830085493320225
Ni 3.6963023113315363 6.380077611104408 9.748521176026554 0.11965399891992295 0.018681378459587183 -0.17764574494335858
Ni 5.018967226183717 9.222070094658742 0.7716418816729995 -0.4476264892767129 -0.2708304939281594 -0.6643784561929139
P 6.4873767698601625 4.247789245775272 10.396452350015707 1.8445916832076616 0.011854071125108617 1.935625961508363
Ni 5.267825716925836 7.851070557032567 11.92430329424726 -0.24824283843563053 0.5077946741261771 0.39572260131857007
P 1.3717495576347365 3.110388532544178 9.482125180392874 -0.20567488316643287 0.19036962026793022 0.24573189908831877
Ni 3.3223386312600245 1.8520494078090346 9.863443686301434 -1.228574134816639 1.4038385240120144 -0.616389587018461
P 0.7165922649458064 9.408306544439075 5.524347375064076 -1.5096759287638193 -4.2701714340060395 0.05741916134941724
P 5.489739044397394 8.401714876404956 9.262809144432445 -0.5424302619221755 0.8394194165235737 0.22271795469164868
P 5.336633108081688 2.7708146587911746 7.477561518719331 -1.1406570619886807 -0.15348457431612275 0.1300883068793695
Ni 2.1370199730374706 1.0450556571151863 13.024635425993464 1.4974436483636855 -0.2927123816029152 -1.3006174738371343
