# total energy = -340889.7785686013 ev
CRYSTAL
PRIMVEC
9.10637586821078 0.00000000000000 0.00000000000000

0.00000000000000 9.10637586821078 0.00000000000000

0.00000000000000 0.00000000000000 13.32810156970445

PRIMCOORD
 96 1
Ni 6.6058013030618445 1.9192506201123942 11.67295113393605 -1.3186185384002451 -1.4444457560104156 -0.9231494478533779
Ni 4.702814669813692 0.7991873630396323 6.202925228448402 -0.17992168546172885 -1.5407993896415013 0.33897861165930654
Ni 2.9020471029435426 1.8110668777007524 4.810617765724255 -1.1881620495481795 -0.5956649528765999 0.3991311127794868
Ni 3.3659896218531324 4.386459180640253 5.044246385542596 0.8882307815993219 -0.06588220451510589 -0.5149716514905904
Ni 5.120369311295259 4.628024006814801 3.058665836023454 0.07580691982798557 -1.036896851480879 -0.773613573772358
Ni 7.17704424594756 5.859242416665277 2.5010050523807488 -0.29570386013107136 1.980833154172621 -0.4667817220489252
Ni 5.019133733484634 4.639552678354629 11.679721724212401 0.352048043248755 -0.9516172162757676 -0.9998379989553683
Ni 5.621247289735288 7.9161905425862935 12.583779930211708 -1.1630261737125003 1.0109832169389106 0.2818206743910759
Ni 1.9384013280494046 6.466255203001575 0.300852795311352 -0.13719509312747985 -0.33304527689400704 0.10855274680043885
Ni 2.7238990766136646 1.5773244281871137 0.27577201556807385 -0.11645914613170912 -0.4372734281771631 0.7518458430779633
Ni 0.9791175070791028 9.130962838060046 4.47788172807859 -0.18591749803384755 -0.5031132094901077 0.3770592205811119
Ni 8.694776552052032 2.4888270962589405 1.6841121632156157 -1.3898843758247676 -0.19005260324814366 -1.1258451937868288
Ni 6.689288554781536 0.6619907078903228 4.688493072870022 0.7704578017521957 0.26213502303669045 1.1370996836547254
Ni 0.510606319519015 7.240406407538486 2.214210679757536 0.6418957017093655 -0.12058113871988264 -0.2097302841827291
Ni 7.626088734336489 3.9552814012253688 3.657603999094062 0.1485547411146732 -1.1899458809214798 1.2675124637530493
Ni 7.331151440630406 3.580435661419778 12.870281077539834 1.31636085271432 1.7562578345572593 0.7701279292166027
Ni 8.679905840658243 9.112203704274863 6.387252841276642 -2.1347686999832334 -0.1015770868135541 0.5635151076169327
Ni 6.886587289048424 0.9331940548078982 0.49121793517822154 -0.7050142274364052 -0.4505889143391466 -0.16599710496083672
Ni 1.945331279899174 6.278782248032848 9.23052284275588 1.036811490855924 0.745505245571916 -0.6006487792444366
Ni 0.005766157045038019 4.780865415285929 1.5372764094684337 0.3452762717425602 1.199959813514056 -0.6661116368339367
Ni 6.574985327950649 1.8286512890304558 7.4539937158838 0.384057506275816 0.13054930567618805 -1.6123724738937975
Ni 3.3377962829216137 4.364649411021072 0.30733289220530186 -0.4992213306348693 -0.23582029640156163 -0.2386510809821374
Ni 6.2621813252705225 5.712229088593428 4.873007366398553 -0.33029213962890214 -0.5872723579375305 0.4204954373878758
Ni 5.599027733213031 2.8277117587258465 9.867646770730087 -0.60143553681179 0.3021565577349506 -1.7358702720398427
P 0.03807830967123576 5.818655300509662 12.57642288934518 0.06786272528024441 0.4540519331870826 -0.04330817586933187
P 3.9316685692326594 6.3204074910095835 12.6520868537664 0.8779026602004364 -0.6962855893141556 0.7420064883900382
P 2.257352134275647 8.40712435884505 1.4301453640789117 0.7106608841992212 1.152454568844241 0.20894275528442724
P 6.6817393693893425 8.126165351721616 6.292969981254846 -0.32650747577548933 -0.29454120728153793 -0.29999837374136723
P 4.918471857338313 1.0529702133887338 12.742077878956664 -0.9520864426027021 -1.303550074102897 -0.19236376787982354
P 4.106064768805501 6.1608182582011635 8.178443232903161 -0.8224876737652416 -0.7292800419623053 0.43212685097921705
P 4.6328503858954555 1.097664304950715 3.7200728252362865 1.1776858326072042 -0.1750479023091953 -0.2751689734025132
P 0.10510123426296004 5.754118416463257 3.611901831750518 -1.0992715570633582 -1.5608143993108474 0.05991133164365166
Ni 1.4522392526175587 1.40092482597702 2.5838393769682084 0.7694085345520749 -1.0948276623593918 -0.2792464859059965
Ni 1.8994988913842081 6.309325031875327 4.549173721562788 0.6012139077192872 1.264108323167507 0.8492564572186535
Ni 5.852385315820498 5.3837348007133645 9.293125532619774 0.48331854336168384 0.5962943589304828 0.17900405874346592
Ni 8.541488931175333 2.4802488904212496 10.431224877253184 1.2536891847167118 0.7867673375454967 -0.5367134140430564
Ni 2.2804276901065474 5.215348809052281 7.090150299106976 1.0138366272273054 -0.04938549241166333 -0.23489238527065354
Ni 0.490335527380268 9.181958541553751 9.113755430681172 0.12477049421088189 -0.6758424909684554 0.23851558384553762
Ni 1.554185127726846 1.1931446533670507 11.402110220768304 -0.9669520468606251 0.04004338907513103 0.2942789547590867
Ni 4.211170556256273 6.956478721961669 1.821245073735558 -0.2297524929409269 -0.7292232205824408 -0.5628826162392564
Ni 5.406245761255585 8.113097702701355 8.408805395785217 0.7010678411941474 0.08665388984481852 -1.3491149072168893
Ni 5.220621400538506 2.881393843028593 4.893332796791042 0.9896147785654634 0.471122258405808 0.4680469619145939
Ni 1.0745796427441905 7.342097304130304 6.8764609993546735 -0.4773695248671004 0.560954545978608 -0.44182762320674873
Ni 5.1873193848819925 4.371470086363355 7.136224917213537 0.24829914559486269 0.37113462756656085 -0.3342814632939533
Ni 8.061164042518392 7.047214648677966 9.250514979800537 0.11595058192640675 0.5210777643883283 0.22837592430837445
Ni 4.728531074575517 0.47867572403145764 10.526894638282496 -0.37382631546611106 -0.7084664476510637 -0.18393800570997354
Ni 8.068130419870657 7.296875042782139 4.663129084844842 0.3393825319659446 0.8625084371325532 -0.0398955506433571
Ni 7.163758043912325 6.018567564580604 7.178915606138266 0.17526541763664008 0.6875361252562998 -0.5819954258093073
Ni 2.718690229756808 4.993508392479048 2.5649263454349813 -1.2451487513458683 0.29882440803792404 -0.05522241080841457
Ni 2.5967194346506184 5.245836954641017 11.272228717157654 -1.146644132810051 -0.4312403346092057 1.029673337149246
Ni 0.9189607897077807 3.5412873526127373 3.87750475765941 0.49798745822776824 0.13900257864986384 -0.5746790946535522
Ni 3.634472894371856 2.73540042902662 2.6245166462424985 -0.13227323034583024 -0.18677187561434286 -0.553232237633686
Ni 1.2457430789705561 3.2919001497772804 8.19927497778034 -1.1512093835832302 0.3030217339487233 0.2865445622293065
Ni 3.534985740681015 2.7435233160831167 7.06746540679034 -0.4439127878705516 -0.19615511660145574 0.21926007805003528
Ni 4.6658518911563815 7.050265284511964 6.2073900844167875 -0.6099158063686593 0.22641391548599718 -0.4096266129941719
Ni 0.7577369624748754 7.3903610949368455 10.947408851841823 -0.02338803990663714 0.233951618623939 1.1571656011666651
P 0.2413462731595746 5.677961797120785 8.03323296720484 -0.8951506486476066 -0.6230546577434625 0.30183234162631245
P 8.686262090843707 1.7259495847443873 8.10336571907212 0.04698999559629327 -0.029646105001207013 -0.14840998800669278
P 1.7362488955749904 3.381953098321786 10.472341984470109 0.3044805778824369 -0.8824599405538157 0.1579922323784892
P 4.024289515703098 6.210857792254361 3.961325302726935 0.21664089525963334 1.0722970853570435 0.43656457503559654
P 7.070827480670674 4.199386906198978 10.681140249874826 0.3126194049394874 0.20544605498507845 0.1836785814009998
P 6.284737817690862 7.985071167805288 10.307553921818018 0.37307195379858976 -0.8092801739360321 1.2855083861098378
P 2.8279394181164434 8.508223341021317 5.976107266959159 -1.1987891902447225 0.7263587545504523 -2.368016350561612
P 6.573419031343343 3.862696880257426 1.5613199730281526 1.8617039174079164 0.9778522387128966 1.0412597564352648
Ni 5.0620611881755835 2.8062571377559955 0.6166300296326737 -0.6453528070200306 -0.21025401789668308 -0.6300544861000634
Ni 1.5698298810486644 0.9945892392640674 7.035211534968135 0.5956438698306774 0.9626055969664712 -0.4526933622766591
Ni 7.218460042284946 0.6441094287152805 9.505668339681032 -0.5451733718849514 0.16646710261871978 -0.3370747097683743
Ni 2.7512273098609152 1.6536722814176867 9.283635778582134 0.14924713919600746 -0.39845362709648796 -0.22546697819169556
Ni 6.397565811670681 1.973579257084436 2.6491466603923945 -0.4685861222475156 -0.19520226576988314 0.3925028088296918
Ni 4.215122723277035 6.825601891495329 10.463771974370479 0.36155778251140314 1.1245154192318119 -0.7498036158369539
Ni 7.73685868742531 7.277077782175833 0.2979360231990246 0.5097427989914834 -0.11930510022093647 1.448803518758479
Ni 7.627117754781986 3.8406048129939037 8.178909479335102 1.0760964044984758 0.15626625082631798 0.9118178248906426
Ni 3.1122040395913433 8.224796506103813 12.232451405454778 -0.7469453204525522 1.6483015836902386 0.0006779999036310904
Ni 0.1383049010627352 5.014744460433926 10.298996660644262 -0.6089583275513964 -0.421305591993997 0.26997508790639957
Ni 8.673731717985255 2.3829017350020196 5.772960418266617 0.20432813933055133 0.46895224733768265 0.10338277256372516
Ni 3.719499123571982 2.4405541990767756 11.538323387350236 -0.23765657827935202 1.2257279236170953 -0.19137337894209622
Ni 0.7831073249629928 3.70060339415244 12.62263137117341 0.46091883551024493 -0.5293898837984495 -0.07246654260084293
Ni 2.9778941055148027 8.304449973685852 8.07067200930728 1.090673273871386 -0.4860410844991694 0.28825614560377455
Ni 5.5100948688702625 7.927737426877367 3.86319044581624 -0.5005071393258284 -0.5286499203086316 1.0622142471997449
Ni 3.182441514778296 8.605433900806188 3.560935268658811 -0.823650069504459 -0.555901556935733 0.12860478035530754
Ni 3.555147256312276 4.132810194012824 9.304534000001366 -0.07536880384930246 0.1804330778805086 -0.49943704619010115
Ni 7.0898506993489505 6.422234983235761 11.575376319126223 0.5332380538999462 -2.39164941659952 -1.175024226614641
Ni 0.6942600605510882 8.620841888361786 13.229806250995814 0.34579486325019154 0.5755872082901183 0.19779830863183356
Ni 4.651910030076227 0.13323173920267412 1.4504170668552212 -0.32311747625733384 0.9694545015675047 0.35496058890985965
Ni 5.79604416983558 5.552494153775027 0.3270272507670576 0.19972072246552702 0.49866340124887026 1.158249064038831
Ni 7.895136602143893 8.797542000967468 11.713681220188958 0.18385753018102527 -0.1660205019996044 -0.809326196682619
Ni 9.221298084248895 5.1192765462203935 5.806413599758487 -0.850822773264509 -0.4748547288650468 0.09088155477292088
Ni 8.34471836669463 -0.018832895427737095 1.9316953930399825 0.2353760097752914 0.7774972250974803 1.49017848216084
P 8.434753102487889 1.5048741037235598 3.6854995595426803 0.7776610043688542 0.02987878983730338 -0.3087573508809199
P 1.6349313603837508 3.3225613165028696 1.466224824300707 1.4632317783686672 -0.4976100202836915 -0.18214928924066695
P 4.7720868691845135 1.3208069332381625 8.434995332079483 -0.5647122132488275 -0.016705999900771228 -0.20960044347308418
P 8.569081249315676 1.5527372140026496 12.591230766747165 1.6228252937960053 0.34474996692544496 0.41450142458797
P 6.428281616650014 7.912502460458623 2.0205672446660716 0.8040122406688734 0.10474931389394862 -1.946816430907544
P 1.660757041653062 3.40200533744556 5.91114602580868 0.17830677556612518 -0.8215895874310043 0.7420738512928639
P 7.091380570453762 3.9391995418736045 6.018903589841124 -1.0442993145925368 0.4526967047107688 -0.4767773998090563
P 2.404693291869954 8.653169521826543 10.033954687473802 -0.23970009107194204 -0.33942032718241544 2.4942536591260076
