# total energy = -381159.6114364637 ev
CRYSTAL
PRIMVEC
9.32305573276710 0.00000000000000 0.00000000000000

0.00000000000000 9.32305573276710 0.00000000000000

0.00000000000000 0.00000000000000 13.64523445382928

PRIMCOORD
 96 1
Ni 6.711919519977314 8.42819152049001 4.184638633459484 1.6933773929829545 0.5753434677104284 -0.6812754890585686
Ni 1.9931481086518357 2.3846418635504394 11.61826242120993 1.6777954793842975 -1.6551078079787946 -1.426355474167608
Ni 3.978977618580214 5.216324247852167 0.8967698107660719 -1.1152262806204019 0.3521244050126452 -3.514454280898128
Ni 7.567440403110186 8.69573524987478 0.10547639064691747 -0.828313022197767 0.9551108312513227 -0.3227814330741538
Ni 0.3034244415466758 5.728766004329634 9.012664137600982 -0.2005301057406998 -0.7400269960661642 -0.8646982456950205
Ni 4.7018407421766915 6.524833761272078 10.616811476448037 0.8444099277596296 -0.6932313758688642 -0.8179792443719267
Ni 9.340862735055737 2.944976157151981 3.340531035112926 0.2566421182429193 1.2885988521097034 -2.195989751577244
Ni 2.663242736993834 7.05779556334232 11.383168519489955 -0.7136209952688097 0.8801243504421036 -0.16589220395185625
Ni 8.540142773319655 1.732839070489235 6.276507646598979 -0.2295720014990046 -0.33744494862359947 2.9709382421109414
Ni 2.2039890132772864 7.1329580383850075 2.360189353063965 1.5141450202787665 -1.3592579091881622 -0.8661905139698309
Ni 6.645567332569871 7.0796860981228 12.034386756958854 0.09173438969151944 0.16318508943333832 0.19732856808426663
Ni 3.38154688635366 1.7514012743852894 4.920867289705575 -3.2021542069712723 -1.5007063782753574 -2.2424647552103316
Ni 4.7535464090815225 0.5760753408431775 0.751492363035957 0.3555146616411168 -0.8234958033147817 0.131414996110593
Ni 5.000691292597599 7.051371977965935 1.8132336443900172 0.06185225742010638 0.7939026630386972 0.7497012859311347
Ni 5.375282347514513 0.932370831257018 11.525979086682202 -0.10531187126563799 -0.6446102724270512 0.11135550635655662
Ni 8.352590861829485 8.24766919299664 6.368749027376063 -2.603315227242065 1.8929705887316817 0.7236467549359279
Ni 1.4077720874436637 0.41723657629377525 8.794298594721132 0.528449117151735 0.4025054285683584 1.5154987060931835
Ni 5.550126934087393 3.395960330463806 13.454964993710211 -0.36802976338899196 -0.6755370439128946 -0.7707537357260597
Ni 8.168255404555357 4.253094102232547 11.886731930025578 -0.8378317603214797 -0.7776399213229317 2.7897541449970213
Ni 6.399597154071826 5.320127150001173 0.41238765502489627 0.7480125853748021 1.5406955170737853 0.565059312175601
Ni 1.8405483329759844 3.9816813047328288 13.038171262562123 -2.0677716651373936 1.6124208106332294 1.6163340296447064
Ni 3.2466888856723806 8.056565197285275 6.790687220658678 -0.4260335935972856 -1.6920476184279374 0.5467378881585939
Ni 0.3465137403747947 3.235650387725154 10.567879418613561 -1.1025090901640497 0.51027964533156 -2.1423771084581102
Ni 1.5367099477562873 1.358248015572322 6.822903971931006 1.3832817829065853 0.6375695635301858 0.14468317397440889
P 8.620582097887791 1.8427485741208707 9.10339052182703 0.034405988283695586 0.9779370851172189 -0.5497368228859176
Ni 4.559384451100994 8.782476960095217 4.980005296613387 -1.2262974229673205 -1.2146930059591725 0.7076714625535941
P 0.8025370252917521 2.0240913305157253 1.2652635872560543 -0.5158699949351438 0.7649769811432826 -0.17403925853902286
Ni 8.434633751977792 5.471403051767813 7.0215643042861435 1.330833078188566 -1.17395901857492 -3.403318860972177
P 6.240862807746249 4.062353705693432 2.414332999033998 -0.4483461410515569 -0.3458385720039334 0.016940998729712758
P 7.353923781499215 9.316566851904998 11.48859176871939 0.510191713603444 -0.7642444738526323 0.631327696385532
P 8.483990008846558 0.35556642745820455 4.8739956271805065 0.47217949602572873 -0.8488540795739125 -3.2810919591187555
Ni 6.017650208208662 7.230421262658917 6.129562304204372 -0.229206904850102 -0.48788945056181776 0.9072844557966632
Ni 3.1142175872499602 0.34189230166496337 12.394717265879079 0.6570114743048814 0.24122141281247486 0.6131389412916473
Ni 4.644392072961479 5.25286130313526 5.732868148837049 -0.38693225672044973 -0.0003095608206188217 -1.736896142201196
Ni 8.178920980274636 5.134523757152025 2.4484460598354363 0.626694825599211 -1.0253541409486018 2.0693207547920682
Ni 5.3019192222216684 1.0408166151439624 3.604129247326018 0.298120439992364 0.3749527157610704 -1.9175040550966718
Ni 4.100764695171957 8.92777678315901 9.733296253968765 -2.271261624837366 -0.09230286060047975 0.4020559997357656
Ni 6.42517961890898 9.280617149130922 7.451881127725154 0.3497890720112492 -0.6389299342128222 -0.9951112829036605
Ni 4.369492452630458 7.911815434507704 13.066526404164064 0.9562313180090111 -1.8697627831566508 -0.27823398548108214
Ni 0.6277008294689997 5.773264949179391 11.947808200213144 -0.7380343911161676 -0.43919558490054034 -1.6698379151001175
Ni 4.064134409331878 0.6343248605429057 7.627590893866872 -2.4232886407713554 0.3753188408512375 0.16645501843386173
Ni 8.665248857740124 0.6857564296101958 2.4439570085165263 -0.6494560305551266 0.8331675220765908 0.9395240325566593
Ni 8.39254947855399 3.6858514243582907 0.7409703623744366 0.333461024275187 -1.570892866592772 -1.183838225361845
Ni 2.6569217052301344 9.023030443232333 3.6096829916057165 0.6638673208844502 1.24162479735301 -1.026421920091484
Ni 7.2183479055291375 1.8659816289219593 12.864385775116611 0.46165597078658555 -0.4978437335610523 -0.1001904908786726
Ni 8.490404271167243 8.976238026680702 8.818518961120711 -0.8035540700855323 0.9860702557473148 -0.6262420543325086
Ni 5.06762150945836 1.5527922188364953 5.911770129249991 4.192057977532064 -0.17888295978456933 2.1547479713186375
Ni 5.170333614090622 3.2784245672706573 4.42126058400847 -1.1134172524361214 1.2270607834959062 -0.3795457344483915
Ni 9.556225321695042 1.2015647415004524 12.639853963197663 -0.10284335512048741 0.9076765490287594 0.8283094226533412
Ni 6.967585676401976 4.910779743439613 5.064851629610286 0.28631342005510685 0.23523717020458196 -0.8197463635746784
Ni 0.7806847150396365 3.6542835577625894 7.724130203321043 0.24543673644540315 -0.7738334030926479 1.5163811086981367
Ni 3.3095356041371238 5.09793076353474 7.595155983091195 0.43184505807274015 -0.11863121408236343 1.3679145564218957
Ni 6.6826171559163905 2.6938410057968722 7.048936795817442 -0.9872277663905256 0.21089602235605612 -0.37594721846385576
Ni 0.1781896989575643 7.8904096986235555 3.0192268373473383 -0.22143805953796059 0.14884116200684044 2.2194628949985193
Ni 7.50874244443135 7.19749222993121 2.010762157783335 -1.3158587162669206 1.1004573498413435 -0.5360464698830186
Ni 0.17887307894027693 8.226039703775722 12.44516338795902 0.3476409153199948 -0.8941520321797632 -1.263404869342579
P 1.650441904224378 0.22569905849242328 11.007201381551917 -1.4961447270466042 -0.8877121900916906 -1.3863694206929735
Ni 1.246473900800952 4.420265813965422 1.763810261520221 0.40368839313286603 1.0260635083108007 0.3435091525398084
P 0.3322979450454608 7.237889030273553 7.44945153941008 2.480774136582334 0.24100415459534621 1.9892211211259996
Ni 4.347555302571484 3.0156822115707036 11.070815387500662 0.2989367652460722 -0.39294323880122 -0.19146311044242512
P 4.2865452260793795 3.0685532604378682 7.5668558475178775 0.2526070289415972 -0.5494408889120537 -0.06200909471294482
P 6.58025000434498 9.24701685639291 2.0148009055119998 -0.8905080076692728 -0.4714091935186075 0.07933858713032789
P 0.8219709348956323 5.1081488325804845 4.139936445995494 0.6229903801644303 -0.33524716964133233 -0.4362534715530809
Ni 8.802344391789086 6.7126840105446055 4.898407116221907 -0.021379751227356726 -2.1447936883194028 -1.3835149819633141
Ni 6.733222702248778 2.0706879628976846 1.654948669349116 0.3689846711030936 0.30466544019973335 -0.42527434683375787
Ni 4.350482742060867 2.557929499821643 1.8357749284582645 0.9100458205918843 1.0932271506414915 0.8706804314203843
Ni 3.7070986682955627 4.885458324162022 12.269480658678829 0.9067805195770512 1.2305932221291969 -0.8234017009390787
Ni 9.304474848663821 3.645408008737455 5.587860137416626 -0.0754374523037088 1.882681290990532 -0.7742296100898021
Ni 5.643143060793037 1.4492503622470523 8.889078643564964 0.28719350866721505 1.8641048135399252 2.270004612501813
Ni 9.234337500642718 7.519361404872137 10.318416823450795 -0.20111528882020846 0.5324826637911605 0.9636759472125144
Ni 2.467411952043243 3.660492712857905 5.494758238598554 -0.21921405530344829 1.172557253131387 0.06096625527072726
Ni 1.9474278435055519 7.5090034899909135 9.194008758606977 0.6130733781610345 -0.2710868329133396 -1.305175782631778
Ni 1.9625405167930978 6.590542657836313 -0.130605754977116 0.3465008881782806 -0.024005104665345754 2.031170468974592
Ni 2.3678510402371327 2.4249267872243983 2.8221616798222446 -0.4021822409009848 0.07791239620676259 0.05570397843052341
Ni 2.761302636832458 6.294768715795967 4.700278198041594 0.034280261339108706 0.5039763288213515 -1.3524064334839676
Ni 6.239399088001558 5.081065355775845 7.373434140159825 -3.1550999337959467 1.5574035738570855 -2.826955950858299
Ni 4.0922247761519746 4.741090806668098 2.8518537476113726 0.10201931655729526 0.058045739189822615 3.6487450558946195
Ni 6.920765290683249 2.715358618349406 10.598676268502983 0.1625168597217201 -0.25136929987975415 -0.7629712635671635
Ni 7.291599154153598 2.592723143689084 4.202022403115226 0.14467906020935084 -0.9814551255728067 0.31584562518626896
Ni 2.1099380273890906 4.949759439315758 9.83781796371214 1.8529379982898282 -0.6318041218013183 1.3362290523931568
Ni 3.4126113079416327 2.429495084516747 13.433364405961962 0.41573324011254204 -0.030272682841612383 -0.10697768900383513
Ni 1.2482825736064942 8.435696580327441 5.159167390280323 -0.4827822112422396 -0.28401613938049797 1.4968255551637124
Ni 7.603921520059085 4.087050480239212 8.511106116346143 3.425055481318321 -2.706307963456223 4.125708603572552
Ni 2.756361417312162 2.6588422547040604 9.180745779570046 0.2354976229548202 -0.18380070880116087 -0.6533584509333263
Ni 1.0378891756545794 1.53402490771507 4.678500472235068 0.14373083736346856 -0.871491871578086 -0.8373941585634288
Ni 5.299001105787984 4.319949734647719 9.183733818921471 -1.0414672444603805 -0.5710001031400683 1.5336319253587847
Ni 6.1999066240619864 8.247687839108035 9.734892361104379 1.5988536134717561 0.5356685177183097 0.88609573753419
Ni 1.443609913549356 5.7114624129528995 6.436811995504213 -0.8261347835995256 0.16729448361602156 0.04894583377108345
P 9.512220498797314 6.5303903024684855 1.274995925099897 0.44087657214738907 -0.626004998621038 -0.3639234545301023
Ni 0.5675708494348496 8.741576714745147 0.9772622767516902 1.252554042671004 0.6151320604622761 -0.97132497911734
P 5.999927079325487 4.755616127446627 11.396417513943339 -0.4129451358444437 0.13142759451608332 0.5320964840963353
Ni 7.802064422822946 5.725046105105864 10.293173717841073 -1.7394428198824494 0.13730076546740871 0.6213618434220718
P 5.710436876826046 6.512042528853501 3.9322019835288406 -0.576238468720872 -0.6072385166468123 0.42714610993517405
P 2.7674931458163754 8.57680102832683 0.7347267119730364 0.9828214097927138 -0.16931202826668262 0.40671201045053823
P 4.868928546408278 7.050066750168122 8.28392655660877 -0.14967137121761964 -0.06627249797498909 -0.25333002315055086
Ni 7.3577369112799715 6.792424105935341 8.310916802856424 -0.7130671796478686 2.529847497070217 0.5980961880259119
