# total energy = -340867.0127176337 ev
CRYSTAL
PRIMVEC
9.36405357226849 0.00000000000000 0.00000000000000
0.00000000000000 9.36405357226849 0.00000000000000
0.00000000000000 0.00000000000000 13.70523893605500
PRIMCOORD
 96 1
Ni 3.6905327532212935 0.09147837702888771 10.358173481769695 -1.21628374748506 -0.3354469443569642 -0.1891051517332098
Ni 2.359507431785321 8.487409723331453 0.4879271278641875 -1.228606273606155 1.433033657518732 0.2559129533863786
Ni 1.6615576890405293 8.84918993814255 11.648315344738856 -0.9457473877585519 -0.7442168657777958 -0.9533897347951581
Ni 3.4380497732303117 6.484073438189198 7.666861107481595 0.07878348595780625 -0.7516491536861248 -0.3268861992711467
Ni 6.839673377556387 6.8864936460708295 12.279209098917264 0.23709556356955938 1.442884582170883 0.6142841106396839
Ni 9.410499409254793 5.842663851702446 2.1550114814001615 -0.6210036887517046 1.261971736440478 0.01688494868079673
Ni 8.654773455163179 3.7016853411814337 2.95808396382432 1.2510093238917035 0.41858767884220166 0.37743460164265963
Ni 3.5640056595878646 8.210243097779658 5.9868318861067475 -0.6288003019779881 -1.9298751750675147 2.4279973591009343
Ni 5.753855166384252 3.1133231189215453 8.545710321685636 2.0602897549380517 0.01687183605467417 0.40132966309270235
Ni 4.751189752093767 8.248186243383762 1.0492028883831004 -1.1085275284439877 -0.7288568383819577 -1.4580764594199727
Ni 2.806528627453811 9.562384360315644 8.147024498420718 -0.6582381476231309 -0.8276514773543682 0.17334403224421113
Ni 1.1209240485042637 7.8867150423448615 4.685327680374501 2.3344660254099923 0.0705829524248849 0.6423746982283131
Ni 5.196656514847577 6.553901186651637 4.984198309598852 0.5846053526283287 -1.0046734726707987 2.4962539773854884
Ni 7.508660102198145 1.7458341723665256 3.2689874020568825 0.3405973782096521 -1.4090846029023023 -0.03315720347825903
Ni 0.4510889405970243 5.855239775825425 5.7136459197840495 0.8835721997813879 -1.7118921639576903 -0.16700343473816398
Ni 5.786460801377711 1.1441281735800215 9.995491508587012 1.049707887202618 -0.04454487648991038 -0.3208258520096798
Ni -0.3189087677431616 3.7085491925456506 12.126176114872438 0.9825642994765853 -0.392481211563137 -1.2899013729712108
Ni 4.437887243302525 1.5440856353377936 7.417426126970902 0.27126963834810697 0.4499469098797735 -0.006120768185757201
Ni 4.890189765259443 5.272327432820618 2.6494559906415596 -0.7804203122815463 -2.00646782402159 -0.601109778041255
Ni 2.7232447338203207 3.871155985096309 2.491625801884745 -0.39011142577937974 -0.02676775501214745 -0.17105600754098282
Ni 3.7863925709777626 3.9813240769107923 7.982438144917268 0.3469809131384927 0.7693733104387653 -2.454131337183825
Ni 6.652195658370857 9.024925133984658 13.487393954662634 0.5683662650616469 0.7887087775425836 -1.3786810509097807
Ni 6.119924117791271 6.340606771407244 7.346008362189713 0.21584128217647344 -0.5073635001260294 0.5565839277147383
Ni 1.2855909328695574 4.487441815498211 0.6044655854127454 -0.42125082749666165 -0.9449693719419469 0.3845650420398538
P 5.379489663396474 3.1989480259807577 11.507590472881107 -0.8282019505411994 0.4300103188568465 -0.8408011273624488
P 1.2450164881749417 5.161822235072832 3.801421877170899 0.31223965300256545 -0.25468345185465174 -0.4699855736982035
P 6.55300223749616 8.272823068676061 4.757061013765479 1.4493843309626135 0.5117919682110282 0.5918769465890774
P 5.786835363525825 8.313303872833648 10.92778980492177 -0.16798431059419455 0.2777349343574765 0.9173469822389879
P 6.461609073355969 9.342553835586635 1.9576977602051178 1.0364031996739118 -0.06432668710252792 1.786697381994039
P 2.918756811082929 1.8483705604131544 5.9609290407538165 -0.9411970493837081 0.3246825067516086 0.14068408011734482
P 7.072342019912057 5.189361917013027 2.467614495379798 0.47745668526426804 0.7743548228137568 -0.38714360140030746
P 1.5040823979190538 5.2463140916339945 7.532782840942156 0.613894331400433 -0.9924396496087682 0.5782799246309331
Ni 7.812748382145745 6.35631965352069 4.279748977178885 -0.377737220484743 0.15153542100955195 -0.5864105241578675
Ni 5.07143102467885 5.401701198779726 12.313718446028519 -0.8477739591358561 -0.9513585632977423 -1.2456791699280418
Ni 8.821650256202355 2.6776979766094713 0.4268266774528403 0.7785030406541754 1.103211515547713 1.402155736992953
Ni 9.098142669887542 6.51623896265862 8.40440862411979 1.2552164199945157 -1.1162398094865809 -0.8306771515545694
Ni 9.49646142224731 4.029221211601066 9.435083795846356 -1.0469856031754485 0.08059354258335152 -0.581480690956418
Ni 3.732792727582429 8.10796890323671 12.312567603828434 0.7694833536540683 -2.0944622870547027 -0.017388113569460375
Ni 7.4113113999029165 7.500401006832197 1.303156961210806 1.061236713777824 -1.6337406551569285 0.727223930764225
Ni 7.25554973060907 4.843453773228327 0.09265637498471108 -1.2761205171370344 1.1299885265312408 -0.11584336692458114
Ni 1.1678566856631407 1.633877546294791 12.448002721749422 0.13113988807233545 0.0566966813610959 0.6553808806799939
Ni 3.837548396356642 3.305698238193686 4.572780182514114 1.2934926898668948 -0.4661302045078553 0.14895634742846606
Ni 1.0378555281059403 1.6853049292310545 4.012263846750506 -0.11105468728668615 -0.0662627277829762 -2.3390086504753524
Ni 7.408820561617948 6.8592255216880185 9.846132042809828 -1.0729879407764813 0.8938710106042348 0.09139037608853938
Ni 5.137606792197163 1.291340461843131 0.9319031332684978 1.686340026520199 0.6572654992972164 -0.42134492987236466
Ni 7.87944853667142 8.825068135803908 8.174682167437568 -0.44601646447711574 0.3408748002407549 1.0827799871662385
Ni 4.841796335722917 7.865645921513362 9.125537208995343 0.22374691017679527 -0.5080489562288282 -1.2603084898054424
Ni 8.688615145245418 7.566305216793126 6.421302440597255 -1.1228514012658275 1.845585928800131 -1.175604010377511
Ni 1.6979089455151426 2.6452889867437746 8.056816823479311 1.3502271664444616 0.6210864782734982 -0.32683940519361127
Ni 8.318135724544339 2.070204992634582 9.970671147842136 -0.7979629491509999 0.23401846730613246 0.2637321923204813
Ni 3.19026754819818 0.22503225656096418 4.459164246126228 -1.214831588419566 2.509135718444163 -1.7752534018231554
Ni 6.532682240960892 2.783830161278009 5.757748739913914 -1.7331790983609248 -1.8706564986155136 0.19647727582756486
Ni 7.9782954875591106 0.669291992792472 5.831400767908613 -1.6001638476427475 -0.17831757419940256 -0.20526890597726583
Ni 2.111350644605074 7.170102740570212 9.493235505746664 0.17761514881573928 1.2626839320161545 0.3866422362838567
Ni 5.443399329918689 7.366504402934596 2.998528248172466 1.370154244385692 2.349842764976379 -1.019142098600619
Ni 2.6467029588529103 6.426025669284992 1.727230606874997 0.10935904475181811 -0.24475153745292044 0.49618871445613255
P 7.440957993926261 4.610382476563433 8.493452347185928 0.061037731938611 0.7183466828792532 0.20023031511209388
P 4.8899650279705735 2.6862941779087226 2.654650231230552 0.41504109914152393 0.8681157560170017 0.6716112264959272
P 6.55861130566419 1.1286213006480381 7.731097579478039 0.6853146921249488 0.6100381908791366 -0.09228511998866687
P 3.378307110605883 7.499651882535966 3.8864634036844206 -0.031028844281346564 -0.5246755090419157 -0.8079686542134601
P 1.0271055944550243 2.325169446856829 1.8773981904867383 0.5701349269262955 0.4076759170257043 0.2926817854752959
P 0.5262195526714094 8.009927260967467 1.8392022154326562 0.5579185873657617 -0.9876951929452473 -0.1849278804270686
P 2.9966376457298525 6.020365498822161 11.350486934691638 0.45371871821737986 0.3292768109905103 -0.9522579351835598
P 8.690450499771185 2.768051730788642 5.004166217714891 -0.7843615563174814 -0.3518071308825425 -1.1318451201240054
Ni 7.352458322380262 4.972930543778166 11.199304287658503 -0.27840444962067534 -1.9272215394947516 -0.6064479024247169
Ni 2.367682250667943 4.712506846247135 9.575987521129829 0.3165112837947259 0.5626663864633923 1.0450259083459164
Ni 0.9061098473438914 0.9178813992537926 6.0927327786488235 0.7905548296123869 -0.7325276023653255 1.9587856874542782
Ni 1.7428938595038188 6.43541781514899 13.024307788461469 -0.26624621699158657 0.7344775270028446 -0.11431973119120312
Ni 6.740929431259429 3.1910073084407085 1.409857543939109 -1.5899264861854552 -0.7510187191909775 2.960128295979631
Ni 3.27825219679052 1.2965281475945312 2.219850998455072 -2.3964337253620402 0.15950995457459627 0.9101401800779034
Ni 0.450183436603955 0.866822960033423 8.696947280230248 -0.2517642213253277 -1.2464499866557952 0.3750691867342766
Ni 5.44729477625909 5.313669729918872 9.759213023528877 -0.5267156794003961 -0.3446831182432515 -0.5736812495166571
Ni 7.847844855424171 9.201175352780425 10.811336560261909 -0.8876916212664002 0.776956779212978 1.688139284512467
Ni 7.666210305749243 4.635337679681631 6.114757032958018 -0.4876670501383666 2.9848957327322982 -0.10534966648210889
Ni 8.87480062501995 3.038391961191032 7.029677518430956 0.7594156850054211 -1.4609712644692645 2.274503271703115
Ni 2.259349513379226 4.08554599462394 12.176351523828625 0.5163366501589173 -0.17226622579900008 -0.5218095003480303
Ni 3.0284379721048618 5.657021487042683 5.152141676354787 -0.42588652649646 -0.14684084374736 -0.1433539136400241
Ni 1.519383261669574 3.6211263871754844 5.365834063881553 -0.18095938269762382 -0.2369893770089983 1.0438028345720927
Ni 3.720713098305703 2.39237526028246 9.871692163797233 -0.18359682032047092 0.6279729209806862 0.17634836628817369
Ni 5.554344638190511 0.8604422938402748 4.131019712215908 -0.585363828060908 -0.4128492336965277 -0.06456785657905653
Ni 8.89071951631486 0.4372132858200842 1.2965815227006376 -0.055737402771620134 -0.00413227700081869 0.5702609109811986
Ni 4.901941652656569 0.7226006141176456 12.254320380580356 0.20381083337450062 1.0773418468698024 0.24733189658558696
Ni 8.969930046587592 7.994701309646571 12.867533864962342 0.5154876718950605 0.11203144937765869 0.5550746901590634
Ni 8.724526291195994 8.662498799468063 3.6555299204798963 -1.589582215472159 0.9222714161237987 -0.6534237569536231
Ni 6.682066989683071 2.3540107322617256 12.99607516654726 -0.2495283900162735 0.6576599065221578 -1.5580874872979877
Ni 0.37113396805491117 5.989576490247064 10.70555927322871 -0.20286698140399254 0.5449250033195713 1.8481238647306366
Ni 5.676957557376132 8.738853293361414 6.738208237253369 0.5956896354669483 -0.2759004522518991 0.06946735076320294
Ni 4.492451584229256 3.5089356597611774 13.802957882423124 -0.43619305062879077 0.21837690411413357 -0.09254865806269867
P 3.2490925335597254 1.4258270011240153 13.75156327367482 -1.5381149008308026 -0.4474871354853712 -1.764291503495013
P 1.4880698660871148 8.26600603758036 7.004487277564817 -0.6106825093313547 -0.24421931909853423 -0.5064250474721601
P 9.416398763087612 8.23236099262588 9.915301498296955 1.5350146646389242 -0.8002046939973251 -0.39334998732133547
P 8.986523149749111 5.582315066601039 13.115351673398543 2.184126938701387 1.917894348556555 -0.9714687037840559
P 4.599211160495887 6.060836938926045 0.5086797436805289 -0.7866889188990774 0.3774857665955692 1.6961631832582076
P 5.16544612385585 4.598040653783026 5.984844833910994 0.08831199427353177 -0.07430590980242686 0.8618450925169415
P 8.299669810642243 1.039391232913214 12.984604200761222 1.2220283632783213 -2.1945031397293886 -2.2004233618685656
P 1.6286992245970937 2.618545249368325 10.568219506784557 -0.842017516268053 0.3292639554747039 -0.8710545269303515
