# total energy = -340865.86409831746 ev
CRYSTAL
PRIMVEC
9.34613883689096 0.00000000000000 0.00000000000000
0.00000000000000 9.34613883689096 0.00000000000000
0.00000000000000 0.00000000000000 13.67901890997742
PRIMCOORD
 96 1
Ni -0.055317927144321835 5.061420233976782 2.4983631301250915 -1.0778653234734406 -0.37800847186825864 -0.6520605580575093
Ni 5.320953166137131 4.118553699527126 3.2886548810310656 -1.2248534914319422 1.7039086315315817 -0.17693509202957916
Ni 6.399254599932662 5.802269975288552 10.676925380259844 0.8040073555728668 -1.830535719335228 -1.307285372775613
Ni 5.862655378964882 7.329419731566014 2.01192370222193 -0.5850267564364634 -0.4976760976349364 1.0947351026455856
Ni 3.860235765428676 6.0113337571854455 1.2687467723146786 1.0675749972910258 -0.24743911158741258 0.8590220212458496
Ni 2.8029724903818556 0.6209406479691632 8.881034875740633 1.8203073567390005 0.2578327961169108 -0.4094422648975078
Ni 7.395450203160701 8.257472635799452 0.2123844650614504 -0.6543845782049955 -1.7587070674287002 0.2780452665090437
Ni 8.410721275960539 5.802512974900932 4.724691932646797 1.7245592179023976 0.39582313145217635 -0.9893275863423479
Ni 8.937955665712767 4.24273584759204 6.7283807518507395 -0.13784738199949806 0.5995766292261803 0.4068958443265702
Ni 1.4689139645567977 9.096148413371886 11.160917054375226 -0.7463331407898501 0.1571046875672133 0.35805414023351884
Ni 6.806101374028674 1.0537678190841289 13.240223614496127 -1.7417223599452456 1.821881900314972 -0.1803376899532249
Ni 0.34238178077338544 7.519800581726492 3.2726916757255133 -2.6763623249367265 -0.7538083661209727 -0.9375550817557465
Ni 1.08618957505893 6.225304262024619 7.160897631152975 0.2929682063674632 0.39732799813247704 -0.7187644871429621
Ni 5.547111036151036 3.2011647398215786 5.997990274624124 0.21398494569402504 0.5619883865597612 -0.6926821882336136
Ni 1.1956515542970014 1.809767651613873 9.853695031895814 -1.0106430599906722 1.5393297470745102 1.2523828072004626
Ni 0.41543587577973673 0.28043463728056944 4.581924052690421 -0.5676381286463709 0.042287962134933625 -0.8003656450552217
Ni 1.9168463654228367 4.141395663090809 11.285943158786212 -0.6131127160394021 -0.4752794751072911 -1.22222968065585
Ni 2.770831118575185 2.7423067025373955 1.9205072480447247 -0.3918528339505187 -0.4715408340004653 -2.197845316728744
Ni 3.423817807733855 5.253193658838973 7.869690115908513 1.1359833106620953 2.9008111462765522 1.6434529973486858
Ni 4.650732196777385 1.9380527546724255 7.902054860435794 -0.02105682067029922 0.5007033144970345 -0.31800586606238135
Ni 9.126457941946772 7.401431732080814 10.537523044934924 0.12581359076341558 0.06421792943880553 -0.6779896192184452
Ni 7.717920034927366 3.051710632069188 1.7172090992584839 1.0859295885388136 -0.635780332840247 -0.7001738686249682
Ni 7.448891425606337 4.8975450338435556 0.3951940080685161 -0.7563972098940716 0.7241465773904819 -0.7392793192668623
Ni 8.33737277757765 9.380252344799386 12.002163020155523 0.4550371799184873 -0.3166059003910612 -2.0525232236187554
P 4.904507907352125 8.25120137657227 0.3477838490793627 0.3160708538231976 0.26574228077197454 -0.8237665404776652
P 4.049962385863516 6.343065612639348 3.6082517096882887 1.5113445747154939 0.5406353748052818 -1.1131681125397925
P 5.233706959153917 5.196733633516468 6.74103448935846 -0.642336645901526 0.8663357812984434 -1.845415721770854
P 7.898739784954601 6.685209066869823 12.1092697723813 -1.396539162137124 0.2191142965007904 1.2785514951760302
P 2.5965536658043242 1.6143492325659874 7.054707735156985 1.1450577621595377 2.548796270258578 -0.5895536977725395
P 8.44986290583153 1.0273369381683788 2.9902887415846693 -0.1335461835209829 1.0448407889183038 -0.8102415094080369
P 4.212809510713598 8.37092541636391 8.359453965431806 0.17234155912162574 -0.6902504388636693 0.6555701138726645
P 1.9574366468291675 6.495772176742051 11.683852220216123 -3.133308034731836 0.8628323961308754 -3.100538296499983
Ni 3.7536804354002222 9.247686710107377 10.801815031042338 1.4437435877370683 -1.7614558338184312 0.8087181307849748
Ni 0.1441099855078271 5.291774520373703 12.735234904643358 0.6765256330784092 1.03246041297608 -0.0397723948019315
Ni 9.046959684142891 2.425855784246594 5.4097237283810795 -2.314292635785911 -1.4552690718781647 0.6271455399833844
Ni 4.2420629255885265 6.611038108260419 10.27618537334571 -1.132555515927469 0.5069066150942689 -0.6348735047552614
Ni 4.305196094112534 0.9617083505480118 12.956506613220643 0.4929010448437963 -2.175585476889279 0.004076741172534914
Ni 6.6281976193499945 2.360488888516482 3.5518122458714454 0.01389115615979543 -2.604721877781605 0.7466558142365916
Ni 3.213193220634369 5.405778723135486 12.71607064675165 1.392524384550776 -1.7395546628699654 1.9045143277052234
Ni 4.9103866287439235 8.92724499049019 4.048702526334718 -1.101396059605529 -0.5794739449390343 -1.6133759754576473
Ni 7.1910781830105215 8.797380389951169 3.834612390917141 1.9635198597051537 -0.7929426131182731 -0.17349444177914636
Ni 8.72029343599321 0.5329074960873972 9.344179052341635 -2.1262133542140544 -0.8351714398804971 0.5027164882723213
Ni 8.7732766976309 1.0106727724425009 0.7042577381429773 0.22968101627304316 0.4880308612356885 0.939841049576446
Ni 6.164115090399649 6.699751659056848 8.326419102742694 -1.855923306170397 2.6388758979554936 0.5027175167135859
Ni 6.038362790993207 6.637300758675292 4.526072461012757 -0.3173790311116598 -0.672798561935809 0.34775610074162044
Ni 1.168332790182172 8.579923775288242 8.74118018729113 -1.4497268019036968 -2.157975991337632 0.027889784431732616
Ni 4.08860867037081 1.1217890182725412 5.5201679868215 0.9264898250805205 1.1817813428328163 1.8720209830632082
Ni 3.008064163230237 3.369198971782071 4.028703658235877 1.1186450764939637 0.3341914746833083 2.396000494479364
Ni 1.8102723431165075 9.169739911367152 6.5465460111348746 -0.7532314105715802 -1.4145980765213637 -0.9346289092478871
Ni 2.8201880783050566 3.4604827107863607 9.138542499593187 -0.19577305067168863 -0.4792551719255875 -0.3405909504517489
Ni 4.502829548088649 2.0053356088847614 10.250044222737026 -0.723066971173058 1.585033419759212 0.6806915915306406
Ni 6.511258728961781 8.123140580848222 10.606246139157555 0.4035531531065824 0.49861326473722506 -0.48361319178396706
Ni 5.434751753842285 6.399198523099035 12.576790745846814 0.39740333145510265 2.115337330731499 1.184216177526554
Ni 0.8783847180769413 2.5949180914902312 3.5781711615173752 -0.12787201595434106 -0.6413413718677923 -3.0655327269590753
Ni 2.664406634491858 0.698823892964612 3.904211218358233 -1.4784797056666732 -0.6471476941369242 -1.6276345422591905
Ni 6.2081634432129205 0.5159395808460449 1.8350536305097578 0.8351884091613616 -0.25410032565767204 0.41039023063307384
P 5.99293120961716 0.7880178353024374 11.22825878926287 0.15766878760079944 0.04632896497352667 0.13895244213821878
P 1.5999748708798405 4.499436899654272 1.1502349267432546 0.4453047831220718 0.14427385435113219 -0.42473750049368136
P 1.8772093901881493 8.557315465198002 2.27389036896165 1.135350819284419 1.4872157999880904 -0.5405410153192626
P 7.9193573674511155 7.881916734866782 8.638095078650235 1.0822125446985427 0.4704838534908607 0.41593969969639333
P 8.183638138191805 2.910901702834148 12.83148050880966 -1.5422662039950148 0.5345038079862472 0.5187223767822744
P 7.279118811803437 4.163695550596106 4.441098300405293 -1.2500932398353375 -0.8874249978685749 0.2905616538084996
P 4.603552887419992 4.364656230034034 10.101722867023883 0.44718014576791376 -0.16444827241647805 -0.32805862231269306
P 1.1411916027071585 4.0470650827928365 5.059827651901802 -1.0451300380239483 1.8705037750877334 -0.8655348826637028
Ni 2.863339201780311 7.8520090902662165 12.860302132065668 1.6023086618998923 2.1758783255393492 1.0757235945400894
Ni 3.236455760450246 5.549354109496078 5.47867954146326 1.057859826885791 0.6498877187759067 -0.015016270903174136
Ni 7.887402918423199 6.833046292585996 6.676127423664083 -0.7145900440502982 -0.028098815118745155 0.7015553223535272
Ni 8.509491272253909 9.204273894741869 6.654172408685586 0.44979084391788343 0.03514132378782335 1.445824381525497
Ni 3.8368049951119203 0.2531280231463589 1.7092620773197773 -1.240754736043231 0.23728993896855263 -0.14384833677793937
Ni 5.678059788806826 3.0960113306337766 12.278725552074212 1.171963071190814 0.4506848164870625 -0.9988476100176411
Ni 6.403479054732491 4.582234344503152 8.295846013049765 -0.11979669514537432 -3.907586495781702 1.505398384434388
Ni 2.1567150212583135 5.475099035636235 3.2368529713550975 -0.7881439061780492 -1.1968582917705968 -0.29314098449990156
Ni 8.456451933782592 5.470865234697468 8.668435449483615 0.8280805944719867 1.7153970917871555 0.65723670294181
Ni 6.245491922130002 0.11454160575069884 7.920781719025218 0.06839365808304995 -1.216259579115344 0.2691266238631752
Ni 1.7186147585547105 0.9163805113141728 0.130166480826707 1.396289508020163 -0.17781929440674538 -0.18160498670142272
Ni 0.40123254843614914 8.365439232807494 13.482916673518568 0.8741763603887848 -1.0476993414130213 0.06775551027841879
Ni 3.440668896238486 2.9659971918717534 13.19632760374754 -1.1557499517660612 1.6361225251255438 0.12104650839207541
Ni 6.7970730038148774 2.1410508923987672 9.610372977722866 0.33968206548423435 0.44730047339586193 -0.43993374861814555
Ni 3.720856795451101 7.977415582531964 6.085863607530055 1.7357815689807785 -0.3612291955273908 1.2730300511371688
Ni 1.7058572789047814 6.82510207448897 1.0852633726902061 -1.2503266960023822 -1.0347571794300565 -0.2468205041668072
Ni 0.9155561818598698 3.099562863430094 13.098208098724232 0.2745079427797466 -0.6715675177421853 1.4810292115614043
Ni 5.331261957385389 2.5164292166916207 1.0028173426653835 -0.5726065283952395 1.346533262532642 0.8025665093612824
Ni 2.287607697080478 7.570811808048331 4.327617481424021 0.9508767385653171 0.9929494993656512 0.7043197724725418
Ni 8.156300681799099 4.20897759374915 10.699071991086562 0.4988552055447022 -1.2069760969308891 1.1037658453892862
Ni 0.4347253719332079 1.8574516524739002 7.678169971411533 0.8628745622227203 0.6705722437084517 -0.7471034432969714
Ni 2.402088552928082 3.8048318538061277 6.625460135255149 -0.3242533896339899 -2.8590803421966697 1.197942268863395
Ni 6.798344078710402 1.1235741308096374 5.672894177815973 -0.8032565934497714 0.9053034208108923 -0.6264418290481406
Ni 1.594984032687121 5.954920462557628 9.601289465289337 0.1701988017470101 0.41937572196113576 -0.5103583210882953
P 7.864317955247136 6.721004779001126 2.234837527410567 0.6375510515874246 0.15726949527985173 0.12055028548194721
P 7.6269727569248325 1.9397817903758958 7.483668408593433 -0.30304384543591034 1.0816867541020596 0.8048041404425494
P 0.5608169361830879 4.032578567439438 9.27452508268081 0.31501258776201235 -0.9450148804679015 -0.1349518056192579
P 0.17822432724424148 7.649067029373501 5.516966934235347 1.2607466057841257 -0.6500805515130029 0.05515761900875016
P 6.060335563635686 8.500967593542747 5.793064963048834 0.022407421160922703 -0.9074214955951597 0.6973957916591988
P 2.2438397284353373 1.835357380025232 11.68411204287859 0.8058048137929218 -0.6966766541049872 1.1576361130451807
P 4.357179318883892 1.8696577099265064 3.225293666716979 1.7599093152669172 -0.051985391928355634 -0.3174759617008403
P 5.150872129749287 4.674602235624213 0.01566319424565266 0.08091158804440259 -1.5931622195139339 1.3953181452458292
