# total energy = -381165.6482543547 ev
CRYSTAL
PRIMVEC
9.32446374293130 0.00000000000000 0.00000000000000

0.00000000000000 9.32446374293130 0.00000000000000

0.00000000000000 0.00000000000000 13.64729521902404

PRIMCOORD
 96 1
Ni 0.17497822617493364 3.872841459910436 7.665876698713733 1.3537300373913976 2.1689386609967225 -0.713523550458997
Ni 7.577712028221114 6.568842338672575 0.3963857551445089 -2.135283177725807 0.46035936346234907 1.8973206381702612
Ni 7.076540745790572 4.157414771819674 7.751895810076946 -0.31298501580902227 0.13356032458836997 0.10522393953752202
Ni 6.154258027453055 7.843729657090299 10.904870945118095 -1.2415551204573392 0.4072388294882857 -0.3912501673695133
Ni 2.012657546304703 4.672395585196105 3.2962996038210735 0.6835565717832615 -2.8535486137451627 -0.6484054778034253
Ni 3.7409748922961485 7.030440596569456 10.661485654879472 0.27194172471446715 -0.2467593119115686 -0.2995839119117679
Ni 3.0466380169722695 0.04102484355342813 1.6140245953749413 1.0531318252825024 -0.3074386320694963 -0.9630961634496445
Ni 6.604788146772778 3.1106318123008543 4.076774943645308 0.1693894184718373 -0.03188990673006121 0.20080572799958965
Ni 6.617506715449478 5.621803168841921 12.242675083290974 -0.19099928343212913 -1.233732539089127 -0.08495541909647304
Ni 5.765754241591841 1.003144468751257 4.717419691290175 -0.4122447673433094 -1.1310892157945875 0.5088899640728848
Ni 0.8195532353280331 6.136289785634873 6.464873634418858 -0.6056953405294084 -0.06080144755808883 -0.039964713318395684
Ni 3.178644451544145 3.7721092770553133 6.99048620146477 -0.9209907496391622 0.05229700963150348 0.5769372945601096
Ni 4.0339402216606866 3.7867113874275358 2.119193275453358 -0.11841755540966056 0.19244732873256534 -0.06213070789247364
Ni 5.9879935127358745 3.3293837339690193 12.669521064459072 0.856153441448803 -0.4648986460935993 0.763314248728879
Ni 5.344409694088885 2.7716502538897525 6.322409813651294 0.010168455892569586 -1.1716568528043045 0.9140603410679161
Ni 6.665257294770137 8.435441483399694 6.246175794640961 1.4192170633506138 1.6197772509983008 0.29204672299445833
Ni 8.363316755603305 3.6121947222126436 12.379120895096705 -0.6427058563154866 0.6664751908209425 0.1284404868633014
Ni 2.7428096872350367 0.6398232623806317 8.54685110979711 -1.1316376320988897 -0.5422939934546274 -0.6049396933103066
Ni 1.685881711059143 1.4743935467217333 4.140507653986395 -1.103050050269184 -1.1918351275243926 0.2703669240281795
Ni 6.952935653137837 3.023326857374213 10.171015127150822 -2.5507587933015876 0.5258294201407008 0.6006562354436042
Ni 4.747578737131757 6.854739724446982 12.845175314262349 -1.0070484006608786 0.2601154215035004 0.10389725030629848
Ni 4.501291673746368 2.1233855543954725 11.425093039618552 -0.5042686632507897 -0.7134603013212293 -0.9948156060401124
Ni 7.319153970423308 5.3351877993518935 2.966649036373881 -3.2230333644131264 -1.8982997142540792 -1.6397416099353694
Ni 8.989920725599072 1.890320580734101 10.984803978933448 -0.1386513659580322 -0.12013248121823826 0.26908831442607206
P 0.1691532336145712 0.432852800773325 9.415378294101508 0.7622932636635323 -1.3885898253830602 -0.8186204775003515
Ni 7.215130251832939 0.7039848980583231 9.814220113021268 -0.620102517093674 -1.4958313095712432 -0.5315259563048459
P 1.0538695520366284 9.552260490814914 0.6272035330206277 0.02452009662855132 -1.0881206826528615 0.35403679154400963
Ni 4.811824292984002 7.892850932595324 4.986980616418264 -1.606803207336136 1.9045408100677845 -1.0059860208346352
P 1.1064595280898444 6.324615981795654 2.4688233715688526 -1.458622818841746 0.6453926591190304 -1.4064595065746295
P 0.8101625677955521 5.788636475853294 11.071668819166879 1.3208587405846737 -0.05427881594822265 -0.2712567828323006
P 7.158530756328858 8.169116147223814 12.675402936248853 0.18999938141270503 0.6860723962265798 0.8763911086519166
Ni 2.3831184946370207 6.655559852377346 4.293521173141656 -0.2812455186138963 0.9788945639344818 -0.7865775901321937
Ni -0.009538926507524826 1.3805334937161173 2.4304336214963884 -1.3913781867614745 -0.3330997842810263 1.1456300897232399
Ni 2.310145240631264 5.919449379053749 12.770974960815352 0.9936537245215273 -0.7007827058535608 -2.127358266451775
Ni 6.928123254861665 1.065497158444139 12.150282700893653 -0.6567271102952431 -0.12735265311576133 0.47497685626520775
Ni 1.177623836110792 3.36152516082282 5.293840329349628 1.563259004196598 2.5099612996692513 -0.46378870085887225
Ni 8.178580478020624 0.20664876760485357 0.6142938128352239 -0.48554229048587993 -0.9960175967680137 -0.22125139744845118
Ni 9.163943194230486 8.743204736877079 4.412579657226387 -1.1214609486762042 0.6333102740331996 1.104833367421852
Ni 4.459359559861383 4.655956555447555 8.95195710352406 1.347906488731085 1.2718979944152546 -1.2558663948736888
Ni 2.750949944166678 3.882697418188495 10.624801349243201 2.601210007973604 0.7551383977863059 -3.1682269580962084
Ni 3.0137692819390094 6.348365391194154 1.4617756822544972 0.634878389851268 -0.10209644965213384 -0.19581161721910795
Ni 5.564159333387846 6.738892585708479 7.315277790805343 -0.772741712690366 -0.7465897368853465 0.8293044395767589
Ni 5.237868370261926 5.067864745545219 0.6269797458884864 0.8767693179269417 0.3122895324038944 0.44632936773184423
Ni 3.431356070514759 6.669788984196 6.2028459436264765 -0.7072503158557756 -1.4442938038135837 2.9093145557618736
Ni 2.035399913608567 8.7909459917339 5.371179297324909 -0.6026262146857815 -1.6063200970521303 0.3067706594681942
Ni 2.333549644867713 5.420777052932119 8.628788903337895 -1.1784450793707317 1.1145377391938096 0.10167118918925716
Ni 4.177742102989179 9.054091685740602 12.037242225770756 0.576222270770956 0.8107055935286489 0.3800632975147583
Ni 2.0778635219323873 8.199224840960664 12.62733719005043 -0.5002855102333256 0.6282470005776793 0.8941818569764343
Ni 8.178925483182677 6.5919856579215255 11.107929794144848 1.1007250016804333 0.023348702028269466 0.9633671577228441
Ni 6.697230881274832 6.812070977918698 4.707157186388726 0.6659578848648917 -0.46785618606002655 -1.8570183390067891
Ni 1.4840536912591678 8.256560969108044 7.605405685823606 1.139960293031972 -1.1308290201546654 0.6857322392783416
Ni 5.379171295281506 8.468580627884291 0.8401211376645907 -0.04736434821657649 -0.07251102268553318 -0.7079756240575742
Ni 1.0421020786715294 1.7850940063084728 6.770178026781839 -0.7996359659780486 -1.9086797719368227 1.672388192325797
Ni 8.429044901205986 2.164851445088496 8.475639247010582 0.9129701933275309 -1.1846149556268695 1.2626127124585869
Ni 1.2856850475435442 3.387987989198534 11.850710988899026 -2.171414119120409 -0.7397639722127647 3.087681495141972
Ni 1.6535817683200758 8.049240840106767 10.269344395674578 -0.3558846433860258 -0.18329137326491013 -1.0364232542785698
P 3.5412169034684804 0.2826683239468845 4.066948823651535 1.1004090131019113 -0.727365855658728 -0.7510943096239193
Ni 4.056374881657857 2.4757663673435375 8.645588789837023 1.3899656226846642 -1.1581835009082184 0.7695671716171263
P 4.832505953779397 1.6388770888456217 0.25088775384366174 -0.275968329375357 0.03222646413387353 -0.7901203131781296
Ni 5.7790789004180905 4.8872965032986695 5.797398674523011 -0.054915935311589295 0.5688869134518073 -0.33956636584197647
P 1.808628953038671 3.0198861302175395 8.74559646185184 0.8320089829921156 -0.3323837320506082 0.23421412825670632
P 7.888524381373925 6.4214598632298205 6.312542666016628 1.3702169793028274 -0.44141958913505275 1.792302129775326
P 3.274695753551978 4.417828397921485 5.081174485229324 0.4073175052450211 2.6084839159271977 -1.161466285424548
Ni 8.91279808518486 8.740976190019504 11.318821192796548 -0.04075789864365239 0.8934285237501776 0.6012720146507321
Ni 1.914359048511617 1.2647329772968108 10.647729273377466 0.7549273102167643 0.24824515242847564 0.18718119523761959
Ni 8.394301948941042 4.154999735685315 5.4768506486756685 -1.3708957505374069 1.7756758340725545 0.3366407075547493
Ni 1.6653585661490142 4.186413854359657 0.4238770718816892 -0.07948205468672763 -0.27913695691132573 1.6428163922059513
Ni 1.4046931795235433 8.417407970334637 2.765828991114926 -0.7473479552076097 -0.0031971667810590096 0.08242699624766449
Ni 2.1843116011209536 2.2696957164967158 2.151250782132606 0.13087506444672298 0.8781016635851199 -1.6848531575620274
Ni 7.0384689599350265 7.788015985650943 8.72043066639616 0.809675866712554 1.2621229173063617 -0.3568377513279145
Ni 8.740640509321292 8.978395688293793 7.192028892671265 -0.2761933009019695 0.5645754305606471 0.5387754387784076
Ni 4.829923077295933 4.872880882203232 11.10691995471106 -0.04546815963512815 -0.26333752798522386 1.1133473184301341
Ni 3.148405215313546 1.331365595891896 6.036826662308268 1.1871397789312523 0.36522006185433875 1.8562547213678868
Ni 4.720369951648905 5.603555193108562 3.7515189960055415 -0.36466676045403 0.10019100509930487 -0.7084785318359218
Ni 9.163812651736736 4.172147424685646 2.312629277798033 0.2111904136680234 -1.031070731717405 -1.0607973122475602
Ni 0.31526105485050354 2.2246865295447877 0.29510063158372013 -0.4137123530277714 0.7907672027335091 -0.7494464896078512
Ni 6.704774372520764 5.742816060547353 9.55770597769702 -0.9001622429295852 -1.4616070982810505 0.02867937021256351
Ni 9.027628857364888 5.961474737577126 4.105501751841185 2.357265282692695 0.7885398560648871 1.8950477829756844
Ni 8.137170534110638 7.473194113047267 2.640096988260463 0.5137704320936377 1.856315142292177 -0.9776694332781293
Ni 6.5697934339841755 2.5116375797330273 1.7615926276480958 0.8429701099893095 0.7499848786098245 -1.3769771808447964
Ni 4.762395310172282 0.08921087533537929 7.210398086434534 0.37798841726360066 -0.188465718376998 0.6498409246983712
Ni 4.783673736653388 0.33127768638713634 9.755523545599747 -0.016103333319765815 -0.3967392155085425 -0.04871314893498707
Ni 4.623330256474114 1.4830093513091749 2.496936630044109 -0.14686604055834063 -0.21732095204579346 -1.0206261393453133
Ni 9.122673117278085 6.5476664812937 9.070278954965493 1.0011034959313534 -0.2071077589582175 -1.5472081213813225
Ni 8.828644799035875 4.219618270091129 10.056828675422086 1.2926095159309934 0.9132679270736077 -0.0968251739508655
Ni 3.883639189036256 2.5394244819739114 4.305640178793493 0.18739176858652887 1.9311077619230355 -0.2779552778983987
Ni 7.83473154948545 2.0665809206869277 6.315981528280533 -1.1101534940831848 -1.255521095719128 -0.5587899342271215
Ni 2.4896971163193364 1.3226378977383837 13.150124444553057 0.9689395096042989 1.029205139263576 -0.6459174212742489
P 3.6684212391631568 7.442926903425151 8.534923255653977 -0.19052542911950412 0.3646934999269074 -0.8683193873873755
Ni 0.36283540180460166 6.326238438503678 0.3381936412166879 2.058450644846784 0.043074205481654845 0.6685392724388228
P 8.847442918135748 2.240053245951827 4.46419429436202 -0.5989212550303684 -0.6342610679822431 -1.4547250264492366
Ni 3.7284334884323944 3.5922683429882247 13.094088146664864 -0.977645264908413 0.10128243839127074 0.5055914958272711
P 7.440838223525165 4.262342963402447 0.51566056679031 -0.17608714220698707 0.4341510804980975 1.2317946986364654
P 6.30067075865653 1.948850240252902 8.16061876332713 -1.1907866316552203 -0.1151849074049758 0.3057270486950283
P 5.974230604109182 7.116496073341642 2.557284560011558 -0.47298810796995316 0.47074147802762156 -0.5518471843607011
Ni 6.456780932252796 0.22739103741520444 2.5641632169857527 2.1238145149645744 -1.080605348112423 0.7584368660319196
