# total energy = -340867.4298186236 ev
CRYSTAL
PRIMVEC
9.29190770465289 0.00000000000000 0.00000000000000

0.00000000000000 9.29190770465289 0.00000000000000

0.00000000000000 0.00000000000000 13.59964616618285

PRIMCOORD
 96 1
Ni 1.488368499337683 7.95867699228497 7.540092342182811 0.06375281687692891 -0.15999717862365992 0.5686007496699562
Ni 3.1363069313077716 0.7792519097023066 12.374100517678272 1.309262551106642 -1.3738039253231373 -0.30796750798977285
Ni 0.3364209553894099 6.000658305154107 3.693255522063434 -0.06938430413109341 -0.3525311535327606 -0.3406166614833618
Ni 1.1499479253899263 2.6884183915798734 10.40423278972211 -1.6451332132645862 0.004436695615114939 -1.3583989036219766
Ni 4.683075071162234 1.1483590091562954 3.01340937118572 -0.022701812472889934 0.8399161536543343 -0.6712715837683213
Ni 7.227794108630412 7.14838546458007 4.082491681382419 1.7645360154056513 -2.094048596556052 -0.8304717204119827
Ni 3.4328210010819915 0.23889494951255677 4.846451898419895 -2.680349077498616 -1.3469685502978481 0.794569864309051
Ni 8.48174635801466 9.187160122392132 7.981864019006621 -0.544910605141868 -0.5666865633663789 0.1111809284519053
Ni 8.072688700978828 4.104821065014221 4.07947274053852 1.8106837176063075 -0.671666762324211 1.3960038584589443
Ni 7.373398303840905 2.7318208929090506 10.498464814284214 0.20998688027822543 -0.19525703026721858 -0.3652326602598291
Ni 1.1158001642285629 0.8969580809370504 8.69113950026536 1.602068777974944 -0.06428015013530865 0.13119490967998698
Ni 2.8433330784049744 6.955652713012996 12.580625247991414 0.06578347415371251 0.29518012641711744 0.6702693677560521
Ni 1.0053379643139277 1.506069583694798 3.739888819734327 -1.2716822788600228 0.617391288810098 1.387288075852501
Ni 2.7435751562747988 4.73824112776496 10.470775858233942 1.485583663701306 -0.14472482584562174 -0.47528281754140084
Ni 0.5893355353891135 0.961833251998961 0.30774334034932416 2.5009999767109057 0.6722082366499778 -2.350292708029604
Ni 6.099449868873185 6.028766326246114 9.825635912176311 -0.5950306617267106 1.1761434278207488 0.3150758368997799
Ni 4.989735904252973 3.6801251271526527 9.84546391422862 -0.3266337169407084 -0.3832686918259335 -1.1173191585936886
Ni 1.7866387396859162 7.0286592325898205 10.449655351806792 -0.5250449765661926 0.02495924104849895 -0.19049329032998805
Ni 6.541400879517515 5.196397225610764 2.283054267894146 -1.393452038571368 1.4390603233287862 0.3475110746103499
Ni 6.8829992859325335 4.575298232601513 8.367631509144235 0.4935692745554144 -1.5474639461458704 -0.6811765015868592
Ni 4.094386252555932 8.839066672425606 7.639193326431597 0.12686285796353636 -1.7698065197759711 -1.64016661328793
Ni 4.99117614996182 1.6597019872436354 8.062359816269447 1.157621200646845 0.5592005394019788 0.2770314805325487
Ni 0.8829561050747218 0.542224633657351 5.986142486790493 -0.8826139496331766 0.6319786997059696 0.46252808897889375
Ni 9.007426749835874 2.631226699076964 7.889780283527648 -0.9527423310191464 -0.31149094776199904 0.9275799728209057
P 8.278773924053079 6.962733146755842 2.057259049996634 -0.3943537459955015 -1.1967482485552938 0.8234477236856659
P 4.572900920389369 3.8232855506120056 7.570025293966543 2.0592479439370988 1.1836248237994582 -0.6114091030847342
P 6.720242228925068 6.982153234055773 12.118767254078485 2.2596728915585023 -1.5523546985792682 -0.47909653486053616
P 0.7765665483483927 3.2514708365687057 2.6781647713236656 0.5272656383665952 -0.4084534186216772 -0.2897396721278365
P 2.1766944452727737 8.70990915401936 0.1432821474515199 -1.6169019863330345 0.05845480170278321 -0.14290679880027649
P 7.042160374621783 1.1553279400055532 8.982158335767245 -0.9213807859887293 -0.3718385956121209 -0.08408998577238422
P 0.18972124424941395 8.27030899604818 9.901222794548922 -0.06078936337323079 1.182260853572396 -1.8623623769275217
P 2.7117968316021837 0.914416646500611 6.973748703451569 -0.43989801028420367 0.9800502748054798 0.6590940678655229
Ni 7.525413915432714 6.878752884068387 8.017589546112255 -0.22700938297815096 0.2956043584387296 -0.3844755676498411
Ni 1.103237504884301 0.3378258918486203 11.27772415751276 -0.9571679708906677 0.3745541947710711 0.20029690668397118
Ni 7.3987280445010075 4.845488327581137 11.774737155392467 -0.5624972078753796 -0.3529646415257534 -0.037471000362264494
Ni 8.427797541333607 6.126517196291703 0.09087578746510137 -1.4729636609444503 -0.6717842617386818 0.5951993260940911
Ni 8.449326891703915 1.7693000397329628 1.751457718377303 -1.6890484265902976 2.518727733007972 0.6509387857482403
Ni 8.859666832016012 7.579697240794533 5.983504514166354 -0.1814484065189004 -0.5190823312248544 0.29554599439696844
Ni 2.705236744696082 4.8007106238977055 4.173813480421873 -0.037551218780896616 0.04800660978626571 0.7148636094266592
Ni 6.670707068448544 9.095569787217286 2.3333866740598257 0.08760751200733945 -0.2511679825022255 -0.5229423284008929
Ni 7.65906871721368 8.818615183359984 10.963817494720352 -1.1866672101702078 0.4442904829249445 -0.5843487565328322
Ni 0.9128937028123534 5.50167356443945 8.640956693815244 0.5929835493896949 0.43122490799023794 0.8474605416604953
Ni 4.0341839819261445 3.807898151296844 2.3401186612602083 1.0446680107858655 0.1110037794440927 -0.30175700830368674
Ni 6.626719176928029 0.48039534997195604 6.165888868017669 3.2598340781812443 -2.1142147870912815 1.9422344679638164
Ni 0.782385141012133 8.249792463627966 4.071013387678302 -0.3653303621799579 1.1631326173833776 0.38687877777469504
Ni 3.1449855731920473 9.189817608022649 9.762030015719747 0.20686376126821146 -0.4731840260308431 0.6922888094499368
Ni 5.018670905139093 1.5809344848314244 5.508087768393108 -0.24407045222549578 2.062773183481538 0.3465165719075645
Ni 4.48565919806446 2.267913104135659 13.535156918841913 1.3190473984075475 0.43865513901603814 0.3018531675619189
Ni 5.901597276108856 4.540630124603406 0.05411328344909673 -0.5571143462969115 1.0368361734462725 1.8903748029800478
Ni 5.235497573629 1.252772177093775 10.573017507318793 0.3375573058317477 -0.1939894764087046 0.6610367934141905
Ni 6.99195619678373 2.529777649727369 13.140005531018078 -0.24517628369516486 -0.9432493039270464 0.4266254615450137
Ni 3.2842155196524185 4.496911698409062 13.340436628196631 0.41749650266055194 0.44594704469176094 0.5193163016125315
Ni 9.019125261754828 8.945654146788053 1.9237380516879745 0.5274967805407949 -1.0107736720312657 0.9051717803290347
Ni 2.5132566376607284 2.2600149825064997 1.3303911997020283 -0.7287503947110804 0.24432190611466956 0.15292613070949146
Ni 3.9916084603910784 0.09516771967746426 0.9350112309463378 1.6075136031395993 0.41383756575172603 0.05447267712658361
Ni 4.666015128443251 7.725886826196363 2.555073939519395 -1.3642306798124053 -1.1420122904649945 -0.0407193320962331
P 5.295077286436254 3.5752938233642175 11.88822572967724 0.43449612254234204 -0.5696685288128381 0.4119177230211938
P 5.814021045103185 0.2644476959598353 13.043570395116829 -2.0647961274488376 1.4571894288293292 -0.6568600363286816
P 5.827011132206201 7.642863630012205 6.756820753166652 -0.19540229759583122 0.6545519570207954 0.18742930669268365
P 2.7621496799650203 7.378769026548733 3.933724520757143 0.6194882805484428 -0.4669066776625636 -0.6533167990621136
P 3.944247606339523 6.1239526297391755 1.0771616240279382 0.640571069360671 -0.4970199521081763 0.5459876402561307
P 6.193428224352377 2.7076991002628197 1.6885459274333234 -0.4371155624430601 0.992321121753033 0.28423442603889115
P 9.19525337408507 2.747217584132011 5.707608258607358 -3.288173548555885 -1.1788140326743763 -1.3133079248206092
P 8.830564576789511 4.232389667186834 9.580121407547741 -2.167939273197931 -0.8935470516059127 -1.0715406668069933
Ni 9.208029747308709 7.805314054062304 12.479620351834614 2.4560632640992153 -0.2037388424859846 -0.7180654041934085
Ni 3.280721762319991 7.061162326070759 6.024806115142175 0.08464482983458971 0.16092431842361965 -0.5425428762406397
Ni 1.7922231762731213 4.892226623810159 1.8739222755959202 0.5388209473043624 0.694156715896611 -1.3487372121624965
Ni 6.85130458843011 2.9952186032875976 6.146360065396489 0.9568838639913455 0.7007377115482384 0.7089413304049532
Ni 9.222552999198562 3.900993775535129 13.302848073577296 0.1306572920089621 -0.4786298796367628 0.5853748838045015
Ni 1.5758703950809638 7.541089363889645 1.8656264603129638 0.7001486718139878 -2.161208896452633 -0.18714237157988417
Ni 5.643328698835364 7.579706532702333 0.3073911770437417 0.10622564132915899 -0.8671757607012355 0.574740801129423
Ni 1.6910250084340994 3.3514982240250526 6.21498359206452 2.7599758852933243 0.8544868523796574 0.3348075110007524
Ni 2.4326214617809163 0.24244167071943903 2.697041282017355 0.7927214982464025 -1.0293941153459303 -1.0920220745897968
Ni 2.8759662585950982 2.998117678520889 8.342961493937862 -1.6777391722250654 -1.1226634536247375 1.106774807418939
Ni 0.6507606210852516 4.845869295800896 11.225555670365996 0.747298590026913 0.20445283783387366 1.8384382620117563
Ni 4.991575701997178 6.057311067004673 4.472923709235136 -0.17966406092496798 0.4257101488195959 -0.09142277198837159
Ni 5.608549087943668 8.520902457479691 4.472148764124698 -1.4727003799807346 1.0646151433317537 1.5386142090647243
Ni 5.654098019974416 8.428782483560303 9.24971789164897 1.1257600902721903 0.17459204571869932 -0.49873976301276046
Ni 7.855239474666387 0.005394881668105425 13.357464049238319 -1.1527291626618663 1.0116905274185803 0.7192887350775484
Ni 8.52607805012374 4.3525712026592345 1.8707537350364576 0.5562694817981129 0.47108034942427895 -1.209711493584181
Ni 2.0252456400567036 2.7820808221938975 12.532318477725921 -0.6475919807631944 -0.03846421751346924 0.08531460220810468
Ni 8.81264977855302 4.76856062291313 6.759785800945316 -0.6614306864184997 0.8441615591942494 -1.1363581775030107
Ni 3.516113662592321 5.8426494130319355 8.02966623867863 -0.13165128049111519 -0.566532811397334 0.7985815565716053
Ni 8.563282848950978 6.441057567196003 10.547722146717547 -1.157489560164987 1.1597637009111448 -1.2887140375313288
Ni 6.916022726250217 1.912934350490065 3.637116602714153 0.534141282440506 -0.8360098766213925 0.3752746178768634
Ni 4.963941568202921 7.9480005902239075 11.499031383943349 -0.2092895971008847 3.284307637842576 0.16167353788481834
Ni 4.747291445961195 5.715777703944248 11.68982119758965 0.05842060603073809 -1.6825581908802636 0.4599718982159433
Ni 5.802211030290643 3.8154060127984444 4.0528170446355 -2.4866727614549564 -0.40534264090683736 0.13727788264927326
P 1.3255463989756242 5.568296543358355 13.269636936722073 -0.599520064956632 0.12788538569077976 0.4201136285684249
P 7.845482971477425 9.292000718088367 4.241131494044144 0.7497758479228119 -0.37641721612173884 0.6779952756454001
P 3.139819272455797 1.9849187602089986 10.575058010271455 -0.1618126345658439 0.40397764223851074 -0.7556431053368663
P 8.839103840056802 2.1523496468393666 12.21637224117163 1.764591551233935 -1.7302012466795234 -1.2710474734895014
P 3.8204979782723023 6.8761976094236585 9.980019101875309 0.9297181022098312 -0.3099968797149758 -0.636406139349704
P 3.6380420767309345 2.5770362927931356 4.413764919851177 -1.6787953814037215 2.2647266519323255 -1.4658658735574046
P 1.429234798104781 5.885280686013795 6.647248718019163 0.722515212434646 0.4268506901819423 -1.34848395850111
P 6.780054239427298 5.180350100841873 5.41849333501349 0.28538833713767625 0.5261382096303713 0.5478064386324243
