# total energy = -340875.41946038924 ev
CRYSTAL
PRIMVEC
9.18283136545551 0.00000000000000 0.00000000000000

0.00000000000000 9.18283136545551 0.00000000000000

0.00000000000000 0.00000000000000 13.44000191816241

PRIMCOORD
 96 1
Ni 8.118586931164065 7.912882330641495 9.187759572415064 -0.009708742647331667 -0.4554840376479188 0.8568769498783889
Ni 1.1303146858766604 5.8202436718902675 5.491248543822673 -0.7393752214147782 0.12546263518190004 -0.08325283458306952
Ni 7.605927833892783 1.6009072336638177 3.2209771993650667 1.0756315490469153 0.7833783664686057 -0.17905830902016903
Ni 5.78628556230889 3.592020511254493 11.86039778408742 -1.0777136283869244 0.8800022230419425 -0.3953973567686674
Ni -0.046983037280196156 6.76830670799364 11.047708044752213 -0.9596915086434697 -0.36766800917419906 0.06691013155898799
Ni 2.9998105477572823 0.3576079116383408 5.64884612853266 -2.7265281471578398 0.08501661135171165 -0.9440957110877418
Ni 5.9270950951160435 3.892326638252823 5.793742939483318 0.881176702966018 1.837302091524784 1.8569710307086214
Ni 4.542351706651159 1.9706447469641495 6.086291410728714 0.7529421614659356 -0.30776104840592156 0.4243124971411209
Ni 8.235769039430147 8.523292665471939 12.298555653980474 1.2933638775985143 0.677756934382349 0.592841624495192
Ni 4.762620277372773 7.090321047823332 2.596527233994069 -0.3433068067210152 -0.12268507243676292 0.06831266833346944
Ni 1.7946925193576608 4.7676249203478545 1.4442352783334411 -0.10303644496789996 0.35504286421102077 0.05993318602052259
Ni 4.930197762973253 1.5680235153266309 -0.09712313190870976 0.13328341677789948 0.38883075929474326 2.460652169021478
Ni 3.122924764944287 1.4720629298411236 3.3612238246229142 1.0423833285167468 -0.15516864688676502 0.012588892408604125
Ni 2.9956048110919844 9.21625665231336 1.385893078924482 0.6460048387817326 -1.1072933989265703 0.7128650909393917
Ni 1.5553512083438559 8.132471371858236 3.916269033902236 0.7740208365131056 0.344515996537768 -0.15656115635891746
Ni 3.389465621815324 6.704669688145356 0.5646265752980371 0.2016531636015495 -0.22721224301757645 -0.28166435131886974
Ni 3.579201278973367 9.493119011393555 9.801994556418208 -0.9876640825969958 -1.4243345870828372 0.08058171550880962
Ni 3.743748430295358 4.928416293730748 10.773115681531541 -0.9235587674766547 -0.9620183570044335 0.1594618749454802
Ni 1.4238806148131373 7.639463533241401 12.778457755984398 0.820120973305278 2.2145261198185344 1.3238857003364557
Ni 3.582433635537089 6.830410195040385 9.03840082381011 0.9750085986165143 -0.2291202586735667 -0.1531593297662201
Ni 7.687801956398886 2.9537219182307983 13.073412128990292 0.4075386201168917 -0.26523757322141417 1.292996981177399
Ni 1.1834557297239934 8.924068148048923 10.938427762688073 0.5686871387361755 -0.18334099555592295 -1.643971074635685
Ni 2.997432194490225 3.2908052839726163 8.727318644460848 -0.7646329675403025 0.03751085246126443 1.1452577939854856
Ni 1.3315472476306704 2.217396602713534 5.00036561233324 -0.07374103843789236 -0.6259816015822703 0.15284951183528514
P 2.905071278814318 2.2478468707967822 1.1251603627538838 0.4107941509397119 0.07678805279433226 1.563100881352179
P 8.554009235658448 5.293571574288757 9.147950162826856 0.3332897888046454 0.3889197194641238 -1.110601380253881
P 4.593545990295341 5.102192190355411 3.9293187552451503 0.9522983015031922 2.1758780684290335 -0.23574419174798755
P 0.8078283485260151 3.739588607785795 3.539344118663195 0.66835749544532 1.0470326543633002 0.010943129275065024
P 2.142850379462687 7.5230435999605145 6.610491490185469 0.037888290405341196 -0.5308731532121954 0.3165801893594483
P 0.0835766194007461 0.8230231792248544 0.23246796190032168 1.3369893275979492 0.5510984791201348 -0.026895538839263357
P 6.946775031334389 7.63220909663532 1.9109535896597052 -0.5426863437970396 -0.251886862946121 0.23910668046231723
P 4.786192604926963 0.23760942905949253 4.54917179534399 -1.0105510144974985 0.014843492770735727 -0.3814095271300077
Ni 4.035514524327035 2.1285894426914918 11.318725531807384 -0.9876872225254473 0.33370296508266395 -2.3859662501718137
Ni 3.5655555918890163 7.4716472940311 4.889997164778186 0.853108226864576 -0.4115451701731235 -0.9626855582747872
Ni 5.415262452647986 8.220801024660638 0.41546984897831496 -0.14718562868128843 -0.10530955727279281 -0.3058602318387829
Ni 0.21566889060011235 1.7108991851418471 11.52646780256146 -0.5633222748798362 0.7534077882484443 0.2679793976326094
Ni 8.644597864922996 7.416972717382228 4.7596285109851 -0.7162512338028051 -0.2978628154556031 0.11343835702751431
Ni 1.4063505901536317 7.809676491381054 8.752948844475068 0.7766739578652366 -0.38435678268378964 -0.22690859573422856
Ni 4.326371518075165 4.090152369651319 1.9057248856046385 -0.542835210670078 -0.608625883912642 -0.5132266437750258
Ni 5.40580413656664 0.6583116552253331 2.5176751812184235 -0.2864771993264808 -0.29330270688874643 -0.4998499653578037
Ni 1.0426002827611036 3.0367806259548566 0.04740728407918471 -1.5676460775207002 -0.6941939968924495 -0.32730631752770084
Ni 8.154675457571534 2.5895492006055107 5.583971263045769 -0.9874491383727123 -1.7881539119349077 0.05444825164655139
Ni 5.708938575558227 3.049131533847489 3.832940350942457 0.3050559907699327 -1.2929311609364702 -3.0585483252214423
Ni 7.8550764085715175 4.3150399044398435 4.071675595100564 0.677899116387168 -1.2506951350853945 -0.01959463430247593
Ni 3.3450390847264355 5.464519158920164 6.066292122773796 1.0057201687677582 -0.402574591243397 -0.2550395496424898
Ni 4.98110737885188 1.7254447896785978 8.622849247634587 0.43737832918614356 0.5550284103021602 -1.0863458501406258
Ni 4.763556926149761 4.750893801998132 7.8762437526483255 0.0011544253194173666 1.5780631590889662 -0.4434903556211523
Ni 6.960264610289242 3.763849647676006 8.151400859984534 -0.015851365209959795 -0.857823115841742 1.1964877958050555
Ni 5.924698376186694 8.953508304706007 9.389843382616396 -0.7308913523134832 -1.88182999873383 1.054172607842191
Ni 1.892783521669258 5.2296315210126245 7.9995967234451495 -0.49172707914035313 0.6709872197586831 -0.5987358784924399
Ni 0.0764369681840014 3.101436940060451 9.556540234709884 -0.17030678807978414 -0.05325783088287602 -0.10669461054577753
Ni 6.198603863637575 0.24405577652464336 11.767164499452551 -0.5976714417836675 1.593327027226572 -0.43940281581534
Ni 0.981176325219232 1.7303116901864752 2.369606620389613 -0.15659612336191095 -0.2878769078874849 -0.3557296058654002
Ni 6.47036975143122 5.1473717195983495 1.5814579972946021 0.7880950552179846 0.08029555172695849 -0.674876013290128
Ni 8.737757686908688 3.770360274959186 1.8374367617804301 -1.6933473110759676 -0.4053338991560891 -0.45477955538172643
Ni 4.252174242407902 8.66896909878697 7.370255063922178 0.4722211478969416 -0.6028033636935941 0.5591396042570563
P 7.676020384037364 5.7825114187074975 5.647233623383258 0.01307148847197749 -1.2245868680341168 1.5086698560968084
P 2.2242745432425908 3.543975938693711 6.583598650888545 -0.08522024272208548 -0.16143468240113487 0.28160984393185046
P 6.572565479265498 1.8327369887994271 6.988814032325074 0.30307726977700705 0.1803402610563862 -0.4705597010341186
P 7.308688772497529 2.267819528541373 11.001810418113585 0.6599273624000956 -0.6426017266374546 -0.7400619630691577
P 5.626522666014453 6.900658853314464 8.015415068378866 -1.0027158347237959 -0.5483556262676749 0.1362882650424943
P 4.887846545723573 5.282965404314043 -0.19081188496846455 -0.1096961163762627 -0.9869876253552614 0.5770028576907225
P 0.7695983858950808 0.6337990057616955 8.988014629306857 -0.03946309109162881 0.9496382381725258 0.11147377710197577
P 1.9675776813610721 7.25442742325027 2.0328804667794107 -1.0932595465413237 0.03974411266715736 -1.1714285388435828
Ni 6.64907682838179 6.233406793684472 3.7210126586586534 -0.026848230541095697 0.5503207204138457 -0.8243931183180705
Ni 4.672545886652453 6.841998927947821 11.729640696536817 -0.6227841776908951 1.8534658457688402 0.06653372205617575
Ni -0.16118439855598216 8.92818205640275 6.646053840368219 0.8059745066015668 2.0415407564653227 1.0798083061324242
Ni 7.316852309387158 0.609076069464793 0.8813819077298779 -1.298973767586124 -0.12796508988877964 0.06449175192548248
Ni 1.679264331840644 5.501149472365301 12.576347315572741 -0.12764010244919308 -1.4122678857262903 -0.2455753189057964
Ni 8.87245145417198 8.731008306015687 2.4250599011197456 -0.15467499507979812 0.4080479556531424 0.9519249773241735
Ni 3.5407803134545763 3.4769688198145006 4.588470639520428 -2.134040049347325 -0.3604807473971405 0.6841759505348152
Ni 6.8619991341858535 5.889904628970943 12.448169685291314 0.014690512132639215 0.5549651611643927 2.3145266061735885
Ni 2.685647528558222 1.2684061006643215 7.712974851421988 -0.6264685685210177 -0.3227827186257344 0.6593030985525354
Ni 7.9178043281362545 4.51886202457729 11.087154732510118 1.488212873794037 -1.3083485239328048 -0.6566744026804368
Ni 0.4837625642180966 2.1189566528183534 7.438073026791663 0.4692777489979015 0.07542305412600558 -0.8000650830956673
Ni 1.3140631371268998 5.148005334947488 10.268887341536264 0.354441483181596 -1.5047013583673634 -0.9932544322005797
Ni 6.816645131151124 -0.13390312550154254 4.664272155789061 0.7389291350162952 -0.23722051918319795 0.34676648313484154
Ni 5.688662884385786 6.966701774923245 5.649020602324453 0.1102293631719134 -0.4040835716887557 1.6425633956548809
Ni 6.762879654785799 8.51962871584431 7.239967219043185 0.4308592971207031 0.6110861725276766 -1.0005057144463543
Ni 2.1562940442618053 0.9708640058412201 12.83982477997316 0.26168148043903966 -0.1051169816460125 -0.9414693292084881
Ni 5.980566720884667 5.638212410064505 10.012922351297155 0.579161298794622 0.1569769037400974 -1.3428005349630874
Ni -0.1363889178930188 6.035939192700706 2.905298094743647 0.5990690934621425 0.2137653734840512 -0.6140359991846198
Ni 8.853195057256851 7.18697034564486 0.7583696199686043 -0.7116530729091615 -2.015552559931677 -0.44428148406388
Ni 8.973480962450598 4.313386994833394 6.953990900049654 -0.08139855498315014 1.3622414172965183 0.4861948364682143
Ni 2.3558920620716606 5.729572397145398 3.470840198307034 1.3191173324135346 -0.8251742194584691 0.8645228964594208
Ni 7.783661530741777 1.0245560195573695 8.727493118252639 -0.06821008131733412 1.841503016980009 0.33857314869077176
Ni 3.165303530687408 3.6139766605268235 12.914282848044996 2.5480087413602766 1.246048894562635 1.0269718790576832
Ni 8.99170888227727 6.828922576394581 7.331239050945067 -0.5444112969079462 -2.595061986094337 -0.5650945362889107
P 2.3778114800194023 6.981513681563258 10.81580115383497 -0.08937925919578155 0.21795935696074076 0.622277927478438
P 4.974651848555583 3.576510709447314 9.618337015196323 0.9615208485427247 0.1646948412096454 1.1703833854085197
P 3.9802430636536124 0.038869087678761294 11.947368377880075 0.0717214369047023 -0.9268073563209394 0.5065086083249019
P 1.9969443753689813 3.2264244548014305 11.169555031240943 -0.7897608729561818 -0.44519653967898165 -0.7713962544060651
P 8.884646253935117 4.931327251204327 13.390004925310834 -0.30794848182637935 0.5335393871904488 -0.2769849435653294
P 6.793026889441198 7.485981693451471 11.067760593127783 0.4576517347231989 0.5565237639007642 -1.3769067326181772
P 6.4360443286039635 2.5733047723065763 1.5386118254461016 -0.3851682228414915 0.7230237766399484 0.6130795488086216
P 9.22644959488646 0.25799990562126945 4.62399258524613 -0.5982095736753246 3.1597034940062287 -1.1540054582711288
