# total energy = -340854.33981915045 ev
CRYSTAL
PRIMVEC
9.49443550090098 0.00000000000000 0.00000000000000
0.00000000000000 9.49443550090098 0.00000000000000
0.00000000000000 0.00000000000000 13.89606606781666
PRIMCOORD
 96 1
Ni 7.140147845271037 0.5150171118813176 0.7621126456231412 -0.07592776167656601 0.36026657450380534 -0.33040578238863094
Ni 5.465728179037006 2.020396897987442 1.6490457872038171 0.7565969846097034 0.4437685489832035 -0.3461640736641522
Ni 0.6591103625791447 7.470886507952981 13.344601026819818 -0.228373096094897 -0.4517104295380994 0.37920737727236625
Ni 2.1050967576052297 8.822001654547408 0.8453911882378145 -1.1702594582361459 1.0691958207239005 0.1361147155791075
Ni 2.5640862558120125 4.206481190907068 13.560309855492202 -0.20795005235385478 -0.5713618573548611 -0.13855752069264526
Ni 7.8111291006290315 1.7878876655942126 5.007002626138751 -0.5023529342853155 -0.5935016266766939 -0.4048682723735801
Ni 7.040475260777423 6.796145456113803 5.774371391287103 -1.120059183232671 -1.1136756483038304 -0.040989812148800375
Ni 5.954985937804432 5.130194826397995 4.260353567709813 0.9859918371008954 -0.630433980926669 1.4769694396697337
Ni 0.961843288694047 2.0777527831966176 8.552181189296206 -0.3520449579249615 0.12721175666252285 0.33990626567989846
Ni 4.199977502549464 0.650750512069845 3.5860046360592026 -2.3321142373483643 -0.03336417728274254 0.1283741524017402
Ni 2.3419259581775975 4.038258781680753 10.232854840232651 -1.8167006132243488 1.4537678047422897 0.9739685873877743
Ni 3.93837731960485 2.938375894401007 7.456309701039947 0.34998807539593274 0.12084056302885639 0.20275462419584434
Ni 2.8448557041493308 6.625350054851122 13.305413693495476 0.48957840822846654 0.7880107230342944 -0.6882467781700792
Ni 9.259932494685337 3.095413858539356 3.7141263472604433 -1.4655822808787144 1.4351396481181413 0.4561597235587047
Ni 1.5718038067172673 1.7914860566709014 13.335429402070263 0.4020058632241206 -0.08228172891905185 1.5338844076892229
Ni 1.6983836215838009 6.39488212610298 1.7565873598883543 0.8110807174798806 0.03300293728858187 -1.1762308453282324
Ni 8.980929011361908 8.099949830319996 2.2148106571455624 1.2611045033441763 -0.8566704902945375 -1.4540912495199796
Ni 3.8906298031809228 0.7204358712953483 6.18907124650038 3.6884426315945573 0.7795888175191864 0.9876540552946667
Ni 2.358939986698512 7.852031129015248 10.649876084939994 0.4599328174478918 0.27672911880078144 1.3501284360830683
Ni 3.3180393835161395 1.6089745219289744 1.0196919351087113 -1.7598527509973692 -0.4121735477857418 0.3279892025273384
Ni 2.1707887572348086 6.504182068252959 6.570268086958218 -0.6023289951603369 0.551534795326605 -0.17887061848939517
Ni 1.7302849250605148 2.1893788620584416 3.4569657623830055 2.0067794417247375 1.8721855336655306 0.24949470856486064
Ni 4.023922183987349 6.412817114873072 8.294881036216058 -0.3399191211957049 0.37483110258154156 -0.09646419106702096
Ni 6.636543994374647 5.986289091840958 8.644214550939415 0.6834460143473262 2.381714673984311 -1.8697180459616445
P 4.136459728662793 4.525674619949822 9.285782044937035 1.194159404782195 -0.07568582086908901 -0.7263790662654265
P 6.702425882715397 5.918470338646265 12.642683102637857 0.31778989339683333 -0.7087819220089535 -0.30421575425682446
P 1.958787505648038 0.35008737290670566 2.760925843255341 1.2441231382948315 -1.8607500381350794 0.10407697041727236
P 5.730793830960489 7.763913272596383 4.1630251593556045 -3.1799807561980264 0.10477399648429697 2.31768906306197
P 9.494530502901448 4.946714859229097 0.9093181722970597 0.9509003927144011 0.6253545095212327 0.1453200362274594
P 1.434333874265082 5.885448691773642 11.584427618621 0.27715592192555494 -0.5472168846775414 -0.13624352784748792
P 9.455831183564813 0.29031800217854775 0.8100434046533482 -0.2362897798388124 0.33661242541997516 -0.5601294789741514
P 8.931415529924092 3.4762166799215133 9.52001451738414 -0.07841736086763915 -0.7292777279694601 0.9516411275351676
Ni 5.996134821515171 2.253266918931897 13.001895577559882 -0.8569430272296339 -1.2424542352328407 0.0745265104536652
Ni 9.109531141002412 5.329217184576233 8.444277878616889 -0.9711696844863984 -2.4155987283262657 -1.291827643459646
Ni 2.520991012811773 0.027870915582111376 8.953485345379931 -0.11486146262728604 0.5772198587975349 0.3542489075548157
Ni 4.626676425421633 8.278900951727469 9.591481982163982 -0.5466165320893812 1.493685466872834 -0.19677192424984818
Ni 6.200550019090662 9.462050038855661 2.940393461957198 1.0523520096936843 -0.12886446177459743 -0.26594488370108393
Ni 6.4717016042071736 2.3279026768576254 6.750486715512756 -1.6580270385081186 0.5921510261860705 0.23460930681259595
Ni 4.571077010790788 9.255916348444073 0.4047363945381398 1.4165284607748572 0.23845953379662155 -0.2816077870493215
Ni 8.328756232845393 7.4593697576204665 11.97222499067914 -0.5097088604297545 -1.6599461099077024 -0.7134875550147389
Ni 1.6743532051851213 1.8078639580093931 11.119326552245182 -0.6109257356904124 -0.6860004053380637 -1.2116984421072228
Ni 1.6203108779858781 4.099421935548905 7.346628082580513 0.2534318388357377 0.6588595832572137 0.2954164107976396
Ni 4.468109857158358 5.05370765353835 6.264388704899214 -0.3732701858523249 -0.9913567009572345 0.3920662355129054
Ni 6.722867402472946 8.82892309806959 12.827347025920906 -1.4705113427492158 0.11745776259955257 1.857826436730381
Ni 1.1157670779691926 9.206488316926283 6.917142542871911 -1.6746633615132192 -0.30096793674348815 0.02144865679207919
Ni 5.150057185586474 4.894742318981617 0.23345772650552835 -0.5651786113622848 -1.838513338224066 -0.9369310750185025
Ni 4.117537318594611 5.3649542400186 11.904342624766203 0.1838081650003286 -1.6479655405070586 -1.0773439037523318
Ni 5.744465818164795 6.993772132264935 0.3830406598433067 -0.7821342096488595 2.3565705706185156 0.485672388305841
Ni 8.434296378514189 0.7386613897935329 2.613044312769654 0.7179275930639636 1.5134567359624902 2.07207877715318
Ni 9.18979709921436 8.90302716760404 10.25650547920899 0.783113028622361 0.4639653356460525 -0.11169360642226571
Ni 7.445640803802808 4.008085465475694 13.702451999682747 1.0903104912153287 0.7490986193501292 1.1080631872130593
Ni 9.481969364657491 2.897986565534953 1.3809789442002776 -0.10594539108457883 -0.9475093647549812 -0.8086957621874717
Ni 3.68367009687574 6.421931773009277 4.621094646756763 -0.03661379456829178 0.8244113731505158 -0.8398233368302117
Ni 8.75273025271226 1.767123335027673 12.996781874568049 -0.2778305793950764 0.14214189560979393 0.9479713919930641
Ni 2.682681250373809 8.760145406883483 5.087822109943761 -0.9665936350799417 -0.8468707305952964 -2.298146879263984
Ni 3.530961595352089 2.181650391513785 9.758859386625586 -0.028038651304771064 -0.953775657379667 -1.0747609735165038
P 6.553942405015299 4.73964121969721 6.846466914017652 -1.0662210543662927 0.007455684947096837 0.061266303009649324
P 0.6459539232256677 -0.007382873090325262 12.474748374808966 0.21206150341906704 -0.4948152311473736 -1.8692079390944452
P 4.33849182291309 8.257899260271966 11.834474022934419 0.7346325645234703 -1.94723243539904 -0.3063795946773627
P 8.668400676081253 8.814776389087356 8.115344108134623 -0.37873660828353484 1.89974878799578 0.8544382585299092
P 3.3251886934917243 3.2271491519141797 4.721660657636437 0.13851792570396143 0.02422621953721634 1.4080898430892008
P 7.4141097833128775 2.5869393622014325 2.5039456526535155 -0.907476002982179 1.0279949210055586 0.1497104519856712
P 8.265551775332153 4.922779387186003 4.633656734444275 -0.21996378898527924 -0.2519105170952049 0.7714970416499874
P 1.0741054947382933 7.463775175719631 4.539052279651813 -1.082083475319846 -1.3346789342972174 0.18695956614511672
Ni 8.298706344302595 8.378649491705552 4.425091519086142 0.6877086462784221 -0.32836046982382805 0.35877122090520147
Ni -0.0674066946914522 5.876837238722041 3.0976137192582707 -0.6508732226176275 -0.09324182747498136 0.22837181054331634
Ni 4.72449759498133 5.8528068223233625 2.562795962019606 -2.3281673368854743 1.1431083517426506 -1.6143846192278197
Ni 6.325088530312109 3.9124480160944612 9.219595385214856 -0.5966663975579207 -1.7945950395745607 -0.16701577603333817
Ni 6.388387932180934 9.217748717498718 5.533024738275978 -0.7420237147812189 1.1761370000628453 0.3890043087581301
Ni 2.6816368624623688 4.297979066384775 2.9605710364062197 -0.30327730160295513 1.163968997241744 0.09961199266738328
Ni 0.24637870385715338 3.7721392474102706 11.99198575940714 0.49917530788828224 0.693059111957058 -0.42820823265110125
Ni 3.7932453776569184 0.7313402305343382 12.090633894303986 -0.5877305285208717 1.178335807486377 0.10892658520008983
Ni 8.863663237778308 7.143176570214212 7.025267073899744 1.3016901380760226 -0.5411362257011003 -1.0429052624584878
Ni 6.769627497598785 8.792654354235944 10.723524421567634 -0.2653758985714913 0.22245981593425557 -3.2563597464793985
Ni 7.252087240506293 3.550918898896152 11.494214340274365 0.3978766715470954 -0.0507098676500417 -1.7387015708410507
Ni 5.6912020346813526 1.654519329303319 10.335601722960122 0.2547904097461612 -0.26044400848751276 0.8241941149333871
Ni 6.8859343331909715 6.994408259447358 2.8042404077169834 1.8760151918242658 0.4266979666541619 -0.9039564198646948
Ni 5.334572046231253 2.6056718835584434 3.965270308324431 0.8643071809041888 0.8685019357118268 0.8528827411173311
Ni 5.743411935817797 6.537536020370131 10.611078023473553 0.2344720099037833 -0.4550088977837131 1.74534221608602
Ni 1.3712718332852203 6.36869647283251 9.143750036198966 1.4209129629957982 0.28349317699749244 0.44987723298410265
Ni 2.0704230789454203 1.889886386799671 6.174897953098584 -1.751002756805907 1.6113897982655538 -0.5824194007206034
Ni 8.428447806210125 3.8192411422162165 6.674183734702946 1.3705717915390847 -0.6993068926389828 -1.0165550545997333
Ni 7.908893303575378 6.357360116775606 0.8283363336439985 1.9972856433016895 0.9135067825572913 -2.3065158200539697
Ni 7.467572949943049 1.5506786875995027 8.75689830992246 1.643667941572969 -0.35951144150533565 0.29701872228775295
Ni 6.423412904956409 8.733712898288491 7.8908121004976834 0.45832022154513324 -0.1392190655360441 0.20768368606634557
Ni 1.1337495389170784 4.8124255626890236 4.99688630505112 0.15253403747739536 -0.1238271564610061 0.0709832731870971
Ni 6.739682047847132 4.962333205722905 2.0426518549366737 0.5660982949630767 -4.204315968963812 0.37383094345180135
Ni 0.3395551955416108 0.721586596885044 4.493278656380507 1.2777613951745672 -1.1496204418295557 0.9402966490566258
P 8.429178877748132 6.687804451955237 9.773631778911128 -0.3798439824151007 2.333624246234988 1.6008729578946301
P 3.670529798062713 7.463822647897424 1.1503097334182941 0.9633208778659409 -1.4727199203647605 1.5855381273097724
P 3.8913323914122553 3.6095090607279383 1.3639117468402355 0.18254318224497593 0.3452647017783344 0.034582365960559795
P 4.1122489179885005 2.837032289249089 11.802623989409721 -0.11704175810805649 1.1871996856349103 0.5548463761983412
P 9.226701970230426 1.465940850239481 6.682298628774836 0.04449859663300723 0.3805492360122414 -0.03155026400245534
P 3.134568910782799 8.478540448217013 7.165686927479969 0.903268906879367 -1.8261674150642035 1.4324852412144295
P 5.200947360180279 1.0484990020368952 8.186172597401374 -0.04815033445298159 0.49602853472918446 0.2331905720881984
P 7.625978112801828 1.2293395161205183 11.34406743746441 -1.1167589152148445 -0.3912272845513778 -0.9010649572495127
