# total energy = -340867.9077536554 ev
CRYSTAL
PRIMVEC
9.29226638108317 0.00000000000000 0.00000000000000
0.00000000000000 9.29226638108317 0.00000000000000
0.00000000000000 0.00000000000000 13.60017112539685
PRIMCOORD
 96 1
Ni 6.862283116585431 8.855437129177421 1.5301008550930837 0.2123535807381891 0.19822639730818764 -0.28375491529931135
Ni 4.813226828241198 0.14805275421092656 11.109409267849315 -1.033526392346749 0.5344012209701119 0.8407419919897391
Ni 2.147991050633819 0.9851661029343332 10.397358676588395 -0.016623467489293952 -0.7332179435641308 -0.40751933684318203
Ni 1.634091539629477 5.7699585954371875 11.663207913099834 -0.8251305107047273 0.2504303330052525 0.1696105333437079
Ni 7.6608233375037935 4.047832122217823 4.539478513213609 1.3501356351719198 -0.8855884588804683 1.725633681913499
Ni 5.042485629331519 6.239385318584109 9.79567326473854 -1.3015651824623842 -1.0587422294907445 -1.2799352628974345
Ni 0.37604409013957796 0.4055944270943174 8.705320562558818 -0.6120061132387847 -0.29109721459699545 -0.014727278907845606
Ni 7.666584542784111 2.351984178889973 2.565114392875379 0.5610183093370079 -0.10685119072829985 1.117961163053062
Ni 6.2897401111874025 6.2930667426234566 1.8273186478247014 0.32450612907474435 3.0254975654140606 -0.13522845631941227
Ni 7.991237752596597 6.041915361467929 6.128658670003035 -0.25393191840060786 0.5984841674929499 -0.9962713646500326
Ni 9.026071020407217 7.2838360823062285 11.82023513837484 0.08507266140062768 2.1938734765651895 1.1499677978666454
Ni 1.7553184494472596 4.661772175234908 2.009805754305424 -0.5915856406009038 -0.17379834617281034 0.9205865722222082
Ni 0.07625605647161207 7.574563226830907 7.458891233975342 0.2732732990416971 0.14660173115336042 -0.997001557947838
Ni 9.291105047834996 2.630399070194618 7.231809610944985 -2.1581369423955286 1.3142294081936141 1.27495195075023
Ni 5.050542024457382 0.7361259247460434 6.38072441019015 -0.015804828242740522 0.06974914366967987 0.6573567734594421
Ni 7.1023581159762195 6.15214022765362 8.953632227047146 0.7826008648726329 0.6087770647785258 -0.6212019208054399
Ni 2.873689193822487 8.608002654654355 12.157641984069967 -0.1225014956710471 -0.12597737003478948 -0.42032394480701807
Ni 7.235692849149251 0.030283496787992754 7.295444910946069 1.4038840325379693 0.5615335584105297 1.2848175306904002
Ni 4.409487137556479 6.762177528706619 11.87520725824231 -0.6130474100191056 -0.018357933681897417 0.7868524410601352
Ni 2.659809093923982 3.224853240191016 10.939991734314994 -0.3116986928974309 0.2524992997191393 0.910191087920497
Ni 8.581668371163353 4.812111756251459 2.213346349179075 0.3668138887040199 -1.7601165461817172 -0.9281566712599822
Ni 8.896202302668959 7.229160385742697 2.0799828099796422 -0.9380101670152943 -0.11772207200453275 0.7306818074058383
Ni 6.759677908996288 8.864236905629777 12.24215329017228 -0.2650496255803242 -0.3849211398276919 1.6704246408415233
Ni 5.273974574401318 4.238258541265487 11.671408338357704 -0.4467029490211791 0.6187375184253473 -0.24282475274385276
P 0.6471747736712538 5.037988172306238 6.494761893354091 0.22688751268830604 -0.3592766997867103 0.7838763891509468
P 5.204096729711012 2.346464572540765 2.9180393237610365 1.2246061513078264 0.3190813585147472 -0.3920736917120732
P 2.082480571236658 8.682498755835494 6.836819518473084 -1.028847498813841 1.0846154977130804 1.2654388690534724
P 3.0023127478388716 5.382145849672574 4.291112024352453 -2.5909081118269635 0.2741662431696117 -1.6622739867099305
P 6.163365285683659 7.915700917558367 6.225234125807664 -0.8699096146926308 -0.7066070258448217 -1.4554043119044482
P 3.4017687036296764 8.351563973814148 9.878348418964416 -0.4131767922392755 -0.49989470255281004 -0.859222824402746
P 8.243439159875797 3.557061062733983 0.24051359437341943 -1.0134167660810676 0.2042548628904547 -0.16643393538793919
P 4.962330537802452 5.819058932052024 13.778742005792328 -2.4432715116511856 0.801324152313749 -0.8410672365396419
Ni 4.4941211015776625 7.338409563937367 7.649403141875551 -0.2538799821167499 0.5746240730459007 -1.0505686925410165
Ni 8.970902833714886 1.1356636524827624 5.513237429692913 0.8646856472895302 1.1507596976403214 -0.04434664443617523
Ni 4.776094930982891 3.573963695645108 9.263851759179119 -0.5410740050045971 2.4608293180292913 0.13696215118106736
Ni 6.8307172870092385 6.601300517387037 11.482991836571546 -0.3753710342454116 -0.6245399840397373 -1.2992941270400205
Ni 3.4408612691366063 7.275166397586009 0.48850560489135453 1.1544947392027214 0.4760600620270576 0.9639934784529334
Ni 1.790536139789847 3.8233495461502174 8.264388574883016 0.3652784258961 0.32570297759632294 1.1406992280805257
Ni 3.115120864134125 2.344067167762826 1.5429669274013544 0.7154513636093291 0.2681994840632155 0.57203934303786
Ni 6.396842775801826 2.163323290492729 8.208913743393506 0.9022358376291623 -0.18565138885665447 -0.2608998650780087
Ni 6.272010466550554 8.004888092204318 3.7576866735811247 0.21912123847932585 -1.7964603749180739 0.2827573272727324
Ni 4.785768180493877 5.726703094501899 5.029655796862913 3.6709383041622066 0.22559013403312117 1.4640424471954205
Ni 6.7944960318758865 5.329514451756897 13.403281469994047 3.7295502002681444 -1.9214198452113103 -0.9304706641051395
Ni 9.157705268795898 5.201820124398629 8.588290969555745 0.922645768744082 0.003531924412658433 -0.5358073572890192
Ni 2.744136413147988 0.13624507106624956 0.9836904910012453 -0.6982560827769652 0.20244737736807067 0.1586020980483462
Ni 1.2213941039605227 1.5997380300789372 3.531855789632593 0.507872578551964 -0.7541678063429205 -0.6187195207032183
Ni 1.6823927413183342 3.0927450862066976 5.575975096742257 -1.0105924092583949 1.9228756038212302 -0.7662445350017966
Ni 4.906772075913711 1.9662436085729569 12.472390566933596 -1.2344935856248676 0.25874399507727047 1.0296985339602265
Ni 1.2455075357386267 7.699869441677818 0.06496037721555684 -0.38820520989560237 0.4999942042451518 -0.036137369152505504
Ni 3.9956095840317176 5.482260729817966 2.0995671910260905 -0.6798207588899131 -1.2592944467186313 0.5697821715725672
Ni 5.770636930897612 8.458740976561218 9.443442466166495 1.356537682043522 -0.24564139625704148 -1.6503582091089515
Ni 2.864025236578083 5.046118905564751 13.528783751665818 -0.3474041167188404 -0.9652756875994667 -0.48443620190589465
Ni 4.650398440939572 0.3278218727166604 2.3198087766260564 0.7971314543886401 0.00854506135653367 0.39226086802221477
Ni 8.598989156070632 1.1086231567315934 13.236775203579597 -0.3747056327472708 0.12216313849502186 1.5173141620353674
Ni 2.9401753612106702 1.2031998459946158 5.237901995533263 0.783902871513508 -0.8346477061665432 -0.02392000115070719
Ni 9.429048745232281 5.678652784010732 0.14774425096043214 -0.34532306582009564 -1.059131237399047 -0.4409994708784986
P 4.840406707991083 9.149509489671315 -0.050561080921394955 -0.06331135846413612 0.2575733718079371 -0.11031061003181002
P 8.302751697463325 8.009692194026776 0.14148776787133868 -0.2520159323248176 0.09551108312513228 0.0912520507384622
P 2.7220672800177383 9.25838697720274 3.415248065532303 0.9135394355674394 -0.7222089940481369 -0.8823504115591451
P 1.06155782649803 0.41725622165367027 12.236890150380711 0.17498233917858252 -0.7708452669986015 0.2768147365360523
P 2.2296607816156135 2.9227523613709994 13.356157598481023 0.12170496791168073 1.0324694118371445 -1.481454729134597
P 5.824940936797898 1.8988375067932393 10.319537802424515 0.5442883981768368 1.0186132226803426 1.0292683884013434
P 7.204192065439126 2.106909940078521 6.183222859367593 -0.5556002236452302 1.3219866835415297 0.6248022365621885
P 3.8220765056285986 2.7704799889055693 6.910532281581434 -0.2063865645214768 -0.5783642568146233 0.2478607725058634
Ni 6.598447791546621 0.8087514926643972 4.579001310663247 -0.17177180266108483 1.1670311811068352 -1.3532273867233662
Ni 1.8625419135272376 7.361166324794623 2.6606695578093973 -0.21258318025049197 -0.07913804108374758 -0.7168819254082686
Ni 8.471164736980228 0.5506625052793762 11.143327899323857 0.723362905146922 -0.30647549682527864 -3.8682421896561254
Ni 7.847003190723869 3.416915098156963 9.878157927499503 0.21572352565168654 0.4879989795564886 0.1564464851579241
Ni 0.39953679851006074 0.21169084189198467 1.4820514738285755 -0.5317774101940197 -1.3973032939966579 1.552334129753978
Ni 0.5437472004896786 2.4444236468393292 1.1195508622310348 0.937870041893004 1.5800002282106786 0.7535157745812184
Ni 2.9511495280430173 7.217786651447359 5.557097857182636 0.028800469171460077 0.0707449319240459 0.15666605736789793
Ni 4.972366185710103 3.7770275972431464 0.7055673768672484 0.08567609931258148 -1.3774623480113308 0.09447492855113405
Ni 8.255017324035919 8.325471289254256 5.320958132688967 -1.8236335928987562 -2.14877401312339 -0.13833100650413596
Ni 6.029036279986444 4.5273781236716255 3.101070027836757 -2.200974863496661 -2.4417630454264594 -0.3396365569582796
Ni 3.380582335824637 3.393387079173472 3.659153337207845 -0.3513990968108464 -0.21583048354319603 0.20880185883118876
Ni 4.034107444477454 7.296492149389765 3.33459862542112 0.8727825653650516 1.9103864702152837 0.36941301688976375
Ni 7.119706777683241 2.5430889333980606 12.102901241640366 0.144359472086403 0.7369671261939179 -1.124677912951605
Ni 0.7034087833404454 7.3176041790621555 9.682750853564338 -0.15593303585661533 0.38614935580783816 0.7239887116563789
Ni 6.557190127926281 1.890920495666093 0.6567811188628545 -1.105066823588897 -0.2256312716837017 0.31894586137814745
Ni 1.1060956602215186 8.608708866914522 4.864549875022247 1.3749678637242513 -0.30844264785397846 -0.8149561412748868
Ni 7.410164446477067 4.10809247099663 7.2400379130026 -1.5188318842314745 0.06477045950816586 0.11510237499349854
Ni 4.281058721138299 1.4377831158359407 8.77854362321834 -1.7241691815528308 -2.097158602939943 0.049499392281708306
Ni 2.5144129987286084 6.254225068314218 8.666029142547051 0.24369661382584484 0.43769071822023975 0.5582787989186578
Ni 0.2949179567527812 3.3220131795636 12.017424469040272 0.2957167156468778 0.1351883471100962 -0.31708309713779587
Ni 1.9512923516438743 1.6721340790127364 7.449059086705818 2.3409256649924073 -2.6608865978986307 0.5092108377474134
Ni 5.247705336776384 3.247507786115878 5.179611607269662 0.6030759006286904 -0.9975533166862497 0.5468597584484388
Ni 3.119246630496159 4.969262568671996 6.725570644510149 0.8447896796965515 -0.27700756927314873 -0.9884598390254138
Ni 0.7730320199264271 5.716379386330233 4.250774295123648 -0.09560055751514504 -0.16529082292243147 0.6308142470842234
P 7.519264948406438 5.974295537556844 3.5421098058049 0.21779249236557333 2.663873705551412 2.5803359927380725
P 8.644744276716253 0.2348982776784259 3.4986573088180903 -0.7011046079693538 -0.17815482336929317 -0.9459021681688613
P 5.327024124313146 5.3227589739523955 7.427462000717891 0.6363979118195879 -0.25776620454503346 0.5539444332093622
P 0.5140946486025465 2.40670633678641 9.631287493557913 0.5627046959004953 0.4337705572302271 -0.3355035086265125
P 0.3213033477099783 3.4366983337082475 3.698703082230568 -0.27983501141961487 1.335337908037455 -0.7945472386012316
P 7.9349173248482 8.408060954627585 9.364751835850619 0.7706318654362148 -0.38579300090968394 -0.296714817894089
P 3.245482072001186 5.221426806884872 10.468147163403653 1.266837806283528 -0.5195196758725892 -0.5748135633488874
P 8.823044287875504 5.5612728725575495 10.726169246469292 -0.6576516789920416 -1.712845271899579 -0.7371589304897498
