# total energy = -381169.8687323731 ev
CRYSTAL
PRIMVEC
9.19777829172883 0.00000000000000 0.00000000000000

0.00000000000000 9.19777829172883 0.00000000000000

0.00000000000000 0.00000000000000 13.46187825562641

PRIMCOORD
 96 1
Ni 0.44909900061054725 0.21552418036177734 8.020560162160688 1.3198606383374625 1.876826889092284 -0.3706813420792261
Ni 8.388484170504915 6.549268831028379 4.346638234123593 0.4364450187385967 1.3999762128431308 1.417739450363823
Ni 3.4128172375994037 8.350929641761685 1.2903195246810923 -2.4640905052790663 -0.36094200330427517 -1.032814453881389
Ni 0.6265710524238013 4.395664231945579 1.1254006006730704 1.0747144365492847 -0.6551708215517168 -0.3098410708634019
Ni 3.466927767258093 7.051642283251385 8.820546126395627 -1.0404768555226531 0.5007130846890474 1.5737712165818316
Ni 8.967751049201938 3.2122504842869146 7.662581711477507 0.4812050965631068 -4.011933432030911 0.5112677202764421
Ni 7.800617369110141 2.0059802575866317 12.702736107504386 -0.8712854119942349 0.13768026029401448 -2.273683346904981
Ni 4.691722319427117 0.2576270104676161 10.774093529083004 1.0843499027565195 0.6927220403326135 -1.7715183602607558
Ni 5.404007467701559 5.754433622633805 8.331919673599423 0.8020119224093929 -1.98044800291906 1.4992447061281664
Ni 5.385970624481996 8.66050846332418 2.1319980981102984 2.273327249117143 1.466718451365687 -1.0579112489490168
Ni 1.0751099083367088 4.6553543040828265 9.445445942504795 -0.3538758404861131 1.4061838843157395 0.3127273912722614
Ni 1.7527286302498395 2.2577602403976047 6.868923818703588 1.1014711358178386 0.3772335413754471 0.31106748707133525
Ni 7.668969568497388 8.286232469295388 2.911063715632899 -0.062190871706447735 -1.277832871842451 -0.12399016440143161
Ni 3.6223518247411 1.4044271621017448 1.779943016643538 0.7993233198336362 1.020199850441172 1.6881842788177892
Ni 8.606913009249526 5.163522356626243 7.291989427652406 -0.07879299903950301 4.457189621303233 0.7586800923909773
Ni 7.1603692203745135 0.4259215191067344 10.496293951277728 -1.1357154017126891 -0.11016148604845545 0.10535969378443791
Ni 9.142830758882907 7.741733192520828 10.742753939127867 0.67689947147806 -0.03668424279491101 0.27808846104215335
Ni 6.562329676195018 8.847333735876838 12.576921537880848 -0.5389019370539428 0.09259879457434375 1.2645107008122478
Ni 6.951266928812276 7.158198544698931 10.923923497812243 0.05658278149105095 -0.5252830607189276 -0.7790632840330196
Ni 5.576806128367511 8.003943455908539 8.883533431878488 0.27356691902271596 0.9896813701373407 0.16101662102710979
Ni 4.650847392722508 6.520801707232077 2.2456026170586867 0.700801217796322 -1.1924046268746176 0.07716960450346709
Ni 4.413765459613146 8.321432366797309 4.044109509617597 -1.2493391352781322 -0.6974536414803277 0.7603495096736003
Ni 7.909436284016133 8.207232751593793 8.647250785702212 -0.817823692630669 -1.4273885434178126 0.21984269002638268
Ni 4.060883497878441 6.632646691194284 6.728933633185103 -0.12063050390057935 0.1487948821499373 -2.3909840151013793
P 5.87384837812569 2.483041423965559 11.825506281442719 -0.0994376718730481 -0.2963885449029218 0.1931708371621512
Ni 7.765941744970541 8.68465263132589 5.2361452546419 0.6980599076057591 -0.16470435429134214 0.7837915427466244
P 3.689808330693306 0.045898753204621896 7.84676722166198 -0.1281869760915986 0.30205988425608626 0.7991726531883849
Ni 8.20774782717783 6.817761176985679 12.975338940577862 -2.0097706631425774 0.7375505095012136 1.3163330848001782
P 4.543398946781184 2.456478240274535 3.966502335548558 -0.8382932733389304 0.7907546043280187 -0.2750471031126683
P 3.69323910199412 4.872679409433075 9.896149955426313 -0.6575542341822289 -0.1411147398968602 -1.0729362616029392
P 3.772744697501465 8.083173118067293 12.009489440504892 -0.8763849380043293 -0.8869861105589433 0.5783899678462361
Ni 2.055951787016456 2.4005189571802865 3.567155037466791 -0.7957433157918617 -1.3772574310893764 0.04927879163046997
Ni 1.3134335415147294 2.4062399752744055 9.429184270494503 1.1209991785484372 -0.8470170263651736 -0.09903760822115201
Ni 0.19836112607941903 1.0026314154401474 10.890107865942419 -0.2619751004200585 0.37135240000432174 0.046050514501159406
Ni 4.093783950808771 0.8031987481903667 12.975850337050584 -0.6976184491929663 0.9077647378671915 -0.06550579501229363
Ni 7.914899764318234 4.538183806492815 5.108985050055066 -0.643590315802969 -0.9124616291222285 1.7533530022056385
Ni 2.829862049809549 3.7684585328200186 5.205035609143926 0.7567576785572838 0.7028964097624539 -0.08268770610821888
Ni 2.943647764990178 4.113945480812485 2.4772413049781767 0.93796594404092 0.746494863178695 -1.0032477959678658
Ni 2.291920788953167 6.434370184675099 2.3382343619585035 -0.8868562698492984 -0.2006146950347061 -1.1801582054070965
Ni 3.3766975622688458 6.1146830047758876 4.384978253132479 -0.07684076040913863 0.32927423988734905 0.6709882481999476
Ni 1.1448658588605058 7.028749013096621 8.712231249739729 -1.172437182613755 0.09166265591331955 -0.28590924263815276
Ni 5.149983226988712 8.802503764509092 6.426687280472498 2.4425215208590387 -1.52888438337147 0.3050282228557908
Ni -0.0849129693618991 5.169096210267781 11.755235255334885 1.114564221556371 0.9348507954507062 -0.4517500245267833
Ni 6.839578307080939 4.60738789031943 11.866928475955367 -0.006422872807208293 0.24288543077845912 0.3360280136714148
Ni 7.194428593368925 0.8860891261070941 1.7461807318877756 0.7332739936130469 -0.33390145424671525 0.8490463980903764
Ni 2.1414083450750794 6.830711648812882 11.159856628413635 0.31852471468032884 0.16322031354664793 -0.5603418520952738
Ni 1.1168678217568089 6.877684702521351 13.727750316404403 1.5623948564240897 -0.7465187744380949 -1.2406583196746828
Ni 1.3511444324888284 1.3472169811605503 1.0719854230528303 0.6820321647189351 0.05443205369663529 0.09850101899139166
Ni 3.9865470537680348 2.876733927956868 10.864732115428163 -0.09232728608051195 -1.720277045587276 0.13863465378748382
Ni 1.47046721019785 8.894159625132726 12.176040050380916 1.7292630511359701 0.16371962178056965 1.2982394605232608
Ni 7.366187905088517 4.137896495470182 0.7131460603220465 1.9198740979907452 0.7971934179748271 -0.43110123792818017
Ni 2.585099971831072 4.955082305100625 7.801791005619481 0.2694878638573359 0.33852815438544925 -0.4901155116788592
Ni 5.980790946261264 0.9671371890330624 4.628180387913588 -0.9676076781667529 -0.08051075306155811 -0.9947937516632417
Ni 7.071665846580803 5.039637480887184 3.0254895961822594 -0.00931279276049364 2.532616318064606 -0.9766229942914857
Ni 0.7166025854020629 3.13904536690573 12.444483648113296 -2.3102979128042214 -1.2184558154357144 0.4872795848919608
Ni 6.6268244975390145 3.5325631131095983 7.32620976176683 0.40266766517783553 0.1668810502276868 0.11709549416412736
P 9.247630244677758 7.552350937604558 6.774380775475864 -0.8774720004209211 -0.4398075074529264 -0.43370473698929823
Ni 8.69991174550297 0.11319521781464485 13.701499857175117 0.47967914683688356 -1.178041673284726 -1.1869348620092977
P 8.104447579243656 1.5998799506870152 9.055576954947128 0.2973650498835782 0.10167581717494747 -1.5348611697801953
Ni 1.1436057632352739 0.6102955837460772 5.3783033565024825 -0.7936517233701557 0.04073784403899436 0.027926551206939
P 2.308384812085761 1.9541967658343926 11.716074794502855 -0.8870817555965432 -1.6828361271319987 -0.2810979372924385
P 5.413425992666798 4.993611798342211 6.233670983355286 -0.18095141227782383 -1.2770026626316717 0.038318950184856586
P 0.6032491658008925 3.3241966438102706 5.272613525769511 -0.08953326827514257 -0.513241041952729 0.5220771521871201
Ni 5.967849672212346 6.56584322750041 4.993872095467714 -1.367923041062328 0.6086654789013259 -4.294275526143095
Ni 5.0299798136865 4.737150146383477 3.7021508293757797 -1.0344543034776572 -2.825998472041036 1.2021982159262714
Ni 1.4653440476923447 7.507852086255121 4.219571846875279 -0.6802578464273317 0.9418915043475714 0.3676132446768637
Ni 5.122288716568465 6.8333882022942145 13.29021200332199 0.11154653932144014 -0.08426559211830004 -0.06865411083328822
Ni 6.822838350599753 6.791510717756391 6.831149463059313 2.4994884251623857 1.3346172278213466 2.8016753219146393
Ni 2.1585162126877195 8.107390868295294 6.561992117731909 0.6542624508048345 -0.5700274548141537 0.6470530775405888
Ni 8.653288207369382 3.322982537076471 3.177326520133584 1.8486478555549066 -0.5702830224683855 -0.7729049777411076
Ni 5.830076151260876 2.1106969633769044 0.6679408196002167 -2.072203732766818 -0.3068382794813361 -2.3753967021860833
Ni 1.4854687865829126 5.593159778160668 5.770097439055485 -0.6002913959050178 1.669284870810125 3.053304046103367
Ni 2.4849729574056956 0.020906550044909135 9.62741018923311 -0.7362551877285578 0.018488288612174608 0.2247884640674322
Ni 9.207343975783475 0.9460742767572851 3.3887043420438676 -0.9889113247405356 0.08146463233439519 -0.665696146563073
Ni 4.508576158189004 2.9816161937562953 6.566125599293801 0.27354892130058694 -0.7359520546658422 -0.879887037620317
Ni 8.465055674738908 3.415539779972168 10.263604877077935 -1.0934356671078715 -0.7616913684134753 -0.03496777432443655
Ni 0.9860018322983983 4.962008232150258 3.8131036288442086 0.48338127827881916 -0.5520081354185977 -2.3847668305470737
Ni 3.619334953463172 0.7946521726066759 5.480020666793571 -1.720619516528359 2.04520560691142 -0.5831534506731505
Ni 7.8001758757523945 2.1354849758586596 5.10094803138844 1.6052723725139064 0.26465110459032487 0.4649989191168895
Ni 4.831362989370721 6.392501897915563 10.875581814694762 -0.8204734715486903 0.6024236117566723 -0.2191184102658484
Ni 5.911154566855189 3.775310877643361 9.850769956917043 0.046702032042229245 -0.0837814533930299 -0.8104852499877268
Ni 8.840959675524386 6.164369403078835 2.1654908879622705 0.12138486556810062 1.1832795246448977 -1.2270569268411642
Ni 0.7554576799949858 8.387978292699165 1.9299624596054765 0.5775049941381216 -0.4688907979721279 0.9966703998606643
Ni 5.567617547859432 1.300023180773208 8.497123728734323 -1.6733623833136086 0.5771674082930447 1.1188731333443698
Ni 2.285316784143556 4.5329318750913 11.646705150667085 0.3215845845525752 0.7309507447965089 -0.6477907270375617
Ni 7.124065589478228 1.0015736709372154 7.006853701885928 1.534969927443918 0.018229378523833124 -0.03942221055136436
Ni 6.579271983798504 2.951760205438753 2.630559071233606 -2.472030328951433 -1.7970535284173825 1.8856259754411526
Ni 5.203275154379916 4.211294766195379 1.1518092616888833 -1.9913307112698349 1.3325732008081246 0.8729905676107997
P 2.164347604121275 9.438760077468435 3.3775180040919897 0.6588909507157813 -0.5560496524778229 -0.6215567330416972
Ni 2.690902015459136 3.0980416713051118 0.09625750910030251 1.8714054609663964 0.30673363558267175 1.2899782489557332
P 8.683180986800071 2.348082423169716 1.086105852278059 0.7715330370942455 1.051113252190577 1.2936901505896818
Ni 3.499018815699223 3.023410898289541 8.585609115182647 0.41723399302778463 -0.7842705392655719 0.25944230669587576
P 6.736765541395943 6.824328390682144 1.3608342919135146 0.7781217460553567 0.2070637930941595 0.261748329121233
P 3.307005996193053 5.528812121269255 0.5679526916269643 -0.2957892207560261 -0.6428431532242993 0.16160540365104425
P 8.08355942475532 5.545128979949268 9.776823498605978 0.1278553037837927 0.2905570258228093 -0.24757203762085106
Ni 4.503636951249225 4.560552803285256 12.389127739274633 0.3904850070687146 0.21424745532679232 0.3797259687799976
