# total energy = -340887.3618050537 ev
CRYSTAL
PRIMVEC
9.09909221535553 0.00000000000000 0.00000000000000
0.00000000000000 9.09909221535553 0.00000000000000
0.00000000000000 0.00000000000000 13.31744120751254
PRIMCOORD
 96 1
Ni 6.507015484357245 1.9211549936804817 11.331437789662964 0.49465813674421905 0.2700324235068962 0.4501731669579666
Ni 4.922799868502479 0.5800452790138436 5.787679484748434 -0.8312057703645297 -1.7378441079367621 0.08140858228547916
Ni 2.825522849512936 1.8518745069733524 4.706583604077802 0.1601211057960339 -1.8454350050445638 0.04182953444127634
Ni 3.6302829449063365 4.147084074864943 5.182948369060512 -0.6560303413385347 0.9539486926224217 -1.3769437565036995
Ni 3.492877556179733 3.2999222106174284 2.8113646623161546 -0.13940624184618575 -0.9098074793288331 0.0770420777866673
Ni 5.401102740087318 4.596797599295357 2.832739339400961 -1.49405364884553 0.4245958327094945 -0.7936244696766461
Ni 5.063617416739876 4.714194084650673 11.251186527696733 0.5006773463551055 -0.8484802411742614 0.4093782444287918
Ni 5.730626357909579 7.822070858908676 12.243669080826686 -0.9265512744460751 1.4046347946610647 0.9702392022523291
Ni 1.826151373807992 6.5247769119974235 0.20756029817769903 1.0648640261177662 1.3784470805221034 -1.4734195175349463
Ni 2.833630140510578 2.1118901607877643 13.186224006085524 -0.004924690995127002 -0.5429087442204907 0.21473699336870114
Ni 8.099966228559639 8.913998298730368 6.748200567218096 -0.16174809987649563 1.3320309551514091 1.2674121907297593
Ni 8.676275420386466 2.9015184661373046 1.2861703069060686 0.07766248497948561 -1.3819136989144654 0.3721499562049526
Ni 7.210393496365981 1.0236751505138146 4.706770135464392 -0.6793564176589848 -0.19117026179235466 -0.20955956293281972
Ni 0.8368389443408644 7.763217931666527 2.2754845561916017 0.3539719997443452 -1.0149136623415682 0.9119720910803196
Ni 7.7273948063492215 4.197702323821045 3.590621822571291 2.0417942672370257 -1.003997786760013 0.017006818970641678
Ni 7.538306574899148 3.880562570249954 12.461808893306248 -0.6045681689035007 0.026671595753915357 0.855941582548313
Ni 8.399189869926063 7.35544212239676 9.19119121847671 -0.06187951111361602 -0.08189812032738798 -0.2905598540362867
Ni 7.18982044928891 0.8967928617184945 0.7440109173724556 -0.3505339205970737 0.20597493090535493 -0.6029357755064004
Ni 2.1134006100645415 6.455132461609143 9.049001527161373 0.9199682219119188 0.8712136782160351 -0.1923789373884751
Ni 0.10620551206912077 5.1599495040485674 1.102409593838846 -0.25634104206273267 -0.2490085129570615 0.8718608248817308
Ni 6.511273859426714 2.06635830427575 6.9347374132633 1.4429786845465857 -0.6781341152161096 0.8812643775838177
Ni 3.83435738092781 4.401649372554116 0.5956666002088528 -0.3967973224399876 0.7450198212950653 -0.3302592295084377
Ni 6.224452280495517 5.468809083873469 4.707368855719886 -0.6217035430322068 2.380934601285177 2.2185177574764308
Ni 5.320757757473193 2.6588638799138047 9.113111909777748 1.2916890609992528 0.30399901026032805 0.10095179452472937
P 0.08311929577370064 5.650581645332403 12.280251980328396 0.3301810679723346 1.1875717242623482 -0.24792890673963752
P 4.050078654746122 6.190685549976716 12.553539569775987 -0.22308305134055129 0.3540347346614806 0.18576400317511876
P 2.554379006147326 8.616276007548691 1.2038671996873496 -0.44878245725802707 0.20161048328907213 -1.1661737182025464
P 6.437352835784907 8.009757830186317 5.78344476731824 0.5658149593947029 -0.8341252580041699 -1.0918315558455454
P 4.6089994817059505 1.1225913799586797 12.172899982663651 -0.49678366772765403 0.1668620240642933 1.1680714494458915
P 4.366899940096205 6.087165179965287 7.952044109266172 -0.7384743068670637 0.555471925597482 0.4686239174639865
P 4.7314186658611534 1.2969754786902448 3.51933316625341 -0.25041336372438805 -0.24301784259126533 -0.14424274400288062
P 0.30021817212516955 5.900096946945603 3.3650771689987087 0.17536929020435607 -0.5181893870969398 0.3259289775641999
Ni 0.8005663238773365 0.24648530396761614 4.438437001626473 0.07697034400846743 0.14091367962964763 0.4895758371253053
Ni 1.9976419612744047 6.753391599220516 4.625733621856079 1.0435210416656158 0.1954454921289408 -0.5539531749601105
Ni 6.243842445608847 5.623848512951849 9.142090698071007 -0.808034217344073 0.3565487593325859 -0.43580044317606237
Ni 8.719459711155054 2.6856971023066762 10.068957878763024 -0.13476334375753565 -0.31435669934556826 0.37058261171783274
Ni 2.6560704586609694 5.380948251243572 6.798007177165231 -0.6374746898235344 1.2803288987914274 0.5101983984716633
Ni 0.7325433316885845 0.3170533121968179 8.860440133139766 -0.4078085859488267 -1.1799774568548582 1.6487055039968768
Ni 1.417374664415059 1.413698631235432 11.201406305116482 0.11505378114375023 -1.2032963340864566 0.08157210444653692
Ni 4.226555544644306 7.111459068737058 1.3646244981966138 0.15499612586464273 0.33917298705829974 -0.1306197539028073
Ni 5.899914965105027 7.669333500113577 8.074337725951379 -0.20689872827120495 1.5592951344528436 -0.6867689080729721
Ni 5.2714588768612645 2.6961064635876 5.056512845683804 1.5647898390188277 1.1135843741416047 -1.4378598752627816
Ni 0.9892259880928541 7.750633887390725 6.7392243129317055 0.8081751137973113 -0.761092815597528 0.3861316151960253
Ni 5.261577262918009 4.297683147033278 7.069763389424378 -0.06675689381057534 0.6764652121541188 0.21029566976789588
Ni 1.1946288915505294 7.4632572638457715 11.146019222028096 -1.0955087475868166 -0.8320285233761413 0.2986973955417565
Ni 4.7983970822850015 0.2781592433197987 10.24501439060948 0.5906806122881311 -0.955332974564458 -0.3133539691126668
Ni 8.485967910604536 7.510845515156291 4.787393550294598 -0.7360150466932938 -1.40552902434056 0.5249542166245992
Ni 7.609870933705501 6.159866925275238 6.8289177026962 0.017063640350506094 0.3197179636574816 0.014102243729337004
Ni 2.3313511614299043 5.632583641299477 2.275751159588045 0.13560023783653422 -0.7441039943490153 1.7090549516192115
Ni 2.553560087864736 5.028522218784872 11.456954304744762 -0.22864023371335462 0.40253422492376484 -0.3432530706649443
Ni 1.1592152253745185 3.459028933832672 3.911399393135489 -0.10062860685735574 0.26031108245407425 -1.1689420249763032
Ni 1.6347519729826085 1.4839982162497847 2.1179528858065404 0.6822018575275799 -0.15660512222297546 0.6718917338508236
Ni 1.2435274121131923 3.9043384977211555 8.085311230938087 -0.5606658110935957 -2.1950636402185486 -0.20447109266631883
Ni 3.753457353699929 2.4550897139292807 7.061959098191294 -0.2491128997454097 0.031786548382977516 -0.39912159969779004
Ni 4.287910722194368 7.244533289657963 5.7231569132631535 1.054060764854675 -0.7442942559829504 0.21187561266050609
Ni 0.3535515901426595 0.13370751772610773 0.6045691518498109 1.1026055065325977 1.0655849634441907 -1.5269239172109896
P 0.49368670647789725 5.822217818271277 7.827166350444792 -1.5400301155756446 1.5321998208979482 -0.7346197090076638
P 8.481227283657542 1.8167975072024063 8.058676368751442 0.16550808113956014 -0.21792130463395373 -0.8776838593214111
P 1.7842136586473458 3.358129102325533 10.191690981593222 0.45576017412744085 -0.4285820710507522 0.1847553594049463
P 4.161851901227653 5.938194845270105 4.001731539160403 -1.4193942123584264 0.411170303332208 -1.1689332832255546
P 7.008994193400969 4.03234452438203 10.345401033326196 -0.5495861562406664 -0.6031836298511483 -0.23457459691991858
P 6.434532117255984 7.799559705229474 10.275271601332781 1.262589058309503 -0.0713447702915739 -1.520428282184317
P 2.706916184917791 8.701834769895308 5.566051080385039 -1.2079263766593005 1.0935991892689294 0.7945007016340124
P 6.783373107455346 4.2125338438279565 1.3869045349382843 1.760757522199826 -0.19881826525591564 -1.4710960116080922
Ni 5.382012845010939 2.7283172493694807 13.35073468005666 0.5753771491618414 1.30706374368311 0.3000757639465219
Ni 1.6145155923106025 1.1759939510755884 7.006106141591034 0.5057187654337548 0.3234951713117267 -1.6947763302130103
Ni 7.123196897454184 0.7066282076814167 9.458512533281029 0.0003769237234445122 -0.8095015459182188 -1.646920644182312
Ni 3.0780863469557764 1.3821429800796239 9.076515361637998 -1.1667540161860486 0.45924581868319614 -0.276852017531891
Ni 6.428799689277854 2.443652155249105 2.627065283000828 0.20065634690591894 -1.4373610812494924 -0.0725462467988428
Ni 4.244326071376513 6.767395101852808 10.239460304835113 0.3117192617227212 0.5921168305140254 -0.42180798555171223
Ni 8.22435081659306 7.299036850910355 0.4107057169030341 -0.42065973087988195 -0.531656054124807 -0.7085507798347539
Ni 7.629379387015206 4.056630001006844 8.110907886724247 1.5109740787499526 -1.2208561973470908 0.32006351992235843
Ni 3.3012688762376876 8.311492820952683 11.959048572257254 -0.2009754208082345 0.5202395847577492 2.2607918356542935
Ni 0.39736553807964003 5.12368962231388 10.018697224123654 -1.0545934974296933 0.0809853787051315 1.1164346991062062
Ni 8.854863299635326 2.330150081282105 5.818909388409613 -0.38469719674234387 1.0001174778690003 0.23613499942850302
Ni 3.7729567079176043 2.783457747063886 10.870254859730274 -0.2634079762118431 -0.29028705999087423 1.4195790746757229
Ni 0.7485823012077146 3.552094447103032 12.361714331443657 1.0289045773040215 -0.687418368731513 0.21525172822159055
Ni 3.392387183813889 8.38087339767213 7.746635746353279 -0.08255323741288363 -0.189781351864628 0.35945770544926486
Ni 5.698097103906691 8.229528199957434 3.408079477926722 -1.2671692214810177 0.035099671916610516 0.5513990410796891
Ni 2.927751148456277 8.708094945211108 3.355262888336467 1.539003474083343 0.19708251351173156 -0.29546449042675565
Ni 3.534542298579516 4.184945396796696 8.821912757671507 -0.14185341783509764 0.5322828890755285 1.098459088464392
Ni 7.1824501847455995 6.077683926071298 11.307919366496176 1.7607860614449162 -0.07399274943738225 0.23058553036518353
Ni 7.913434841969654 8.77244372403864 2.9749162919874563 0.3624782374431435 1.4255502046574933 -2.241790611961442
Ni 4.785685650720796 0.9484984521720358 1.3599766819883132 -1.0240978999439976 -1.608450256021256 0.27938661102828655
Ni 6.09989480971355 5.835857357222418 0.08671707676188019 -0.21150588802591316 -0.6090642570016414 1.3744127625517297
Ni 8.196771468653829 8.617531682248664 11.529720653608118 -0.29267484349676043 0.3886273850346856 0.09672284404504633
Ni 0.49690323551007093 5.161769322454323 5.455316950213194 -1.0282587161899066 -0.520483068227123 1.2443190563557216
Ni 7.408053072507165 6.442284543664505 2.6780438560012696 -0.5196207202268277 -0.15138578280556508 -0.9389090246804799
P 8.922505949777277 1.8191086765777162 3.2742927980999643 -1.9066396015783422 -0.07077090006597489 0.5806494533043742
P 1.8716559330439195 3.4968174630281945 1.3711904030045816 -0.1686301717083096 1.158686665796882 -0.9621708234218979
P 5.123371154092872 0.767758637658368 8.057931153114286 -0.38369035274438434 0.3969595590494647 -0.022971521194508824
P 8.53514850302009 1.5323143949226057 12.382956161784843 0.3408930550732 0.9123081342634998 -0.12472267169208197
P 6.305197623158909 8.089575065462773 1.1247114684013855 0.09537815709169381 -0.9088464009671444 1.5300526926479583
P 1.777553123282279 3.2410146888231077 6.053309278344603 0.6141185315960972 0.3763747929195776 -0.16066463700432976
P 7.078183689187811 4.0070581476340505 6.0076973498227355 1.2402112048349352 -0.023846210489978287 -1.516623563726246
P 2.6024768066114565 8.557887134000012 9.966533039431862 -0.6870162481970877 -0.02187160326211072 -0.9979104429153524
