# total energy = -340871.77723121695 ev
CRYSTAL
PRIMVEC
9.25986122619219 0.00000000000000 0.00000000000000

0.00000000000000 9.25986122619219 0.00000000000000

0.00000000000000 0.00000000000000 13.55274290564974

PRIMCOORD
 96 1
Ni 1.2401269321625255 2.4797538318118026 13.51490376970027 0.5545550702101675 -0.13834000536520047 0.08730386472399158
Ni 5.091821822545914 1.0452901893614674 8.192443802390857 -0.03333203849322647 1.2431772294417947 -2.4686362156682193
Ni 4.694962684531194 2.501014473486211 5.579203513209017 -0.10003879579215674 1.053472753561689 1.4825803580986079
Ni 4.90482818231377 6.638487205052352 3.1266449682149715 -0.4226199399300463 -0.042957220287816344 -0.4676013897367431
Ni 2.4589747029279296 4.217366815349588 12.190326901966925 0.8247481876646441 0.15898390686779715 0.7023227966471711
Ni 7.6961856086314615 1.8605839423514372 2.026934573661649 0.7982794519501543 0.3891416056669427 0.9792450052953651
Ni 8.383258061418672 0.2410943802072025 4.346892830017471 0.8963557246993015 1.5723643089319759 0.93143559912157
Ni 2.096701147079548 2.2951029365028393 7.275749011630948 0.636374257670504 0.9116609875978041 0.09576433678651894
Ni 0.12790646491663965 1.0502349553258117 6.594615833917764 1.9048858521120289 -0.7369126188068986 -0.9614763684580345
Ni 8.809563558546904 8.761560437275069 2.270505040795566 -0.8863824155366734 -0.8065123813829078 -1.5434283426239161
Ni 1.4723549951209274 9.395610923935248 0.85685756667453 0.45186135329366695 -0.5293857700333916 -1.4324731570295717
Ni 0.0780124799558174 2.4455479039610775 11.408374205776987 0.2073234745134494 -0.009796931485763773 0.5226019143423387
Ni 2.6339397832580467 2.366589066174631 10.81426242713331 -0.3852196449047172 -0.7006855181540642 -1.5902077648713
Ni 2.4475572938754273 4.252896903374285 8.943631535210125 0.372586529521739 0.7414832688967166 -0.001866106674461302
Ni 7.724993037311377 3.572260054229807 9.918927358564323 -0.3877580950558548 -0.08257869133418036 0.7449308611256849
Ni 7.714760890512499 7.8528346831985205 0.2745854467612098 0.6131641381026279 1.6772851154067823 -2.8299286603333775
Ni 7.200838585229541 5.72609454587865 4.184192436053972 -0.7136482489623194 -0.9574222529933188 -0.04479015973149705
Ni 2.7325943461496616 6.161159871850082 10.830132903512128 0.6054747398781701 0.2618899969054199 -0.7334169469488143
Ni 5.2794636530730115 2.4677252719097744 1.909446378757151 -0.7342163029216581 -0.5694528132576064 0.6423919246194937
Ni 8.552917241191544 3.2310434231059926 6.879386202184932 -0.519871145674737 0.4220342426299054 -0.047433510891615085
Ni 2.8657048531486256 -0.013609218235574117 6.972913579843482 -0.1404655363486355 0.023507339093320805 -0.47348921597608784
Ni 4.139046907996736 0.40257988036073566 10.20125775336407 -0.14699870948146296 -0.19635720530993278 0.08181095993022039
Ni 5.374682807401384 5.0427352974953745 1.1020901789219297 -0.19260750845951347 0.794935989399218 -0.7733595487800229
Ni 1.5171634642247873 9.443299209920966 3.1558644607252484 0.926140926381534 -0.5561419550813133 0.9078128174963075
P 5.35497782243486 6.500191175693775 12.52802015584461 -0.4311755428095413 -0.02004483446601709 0.24075321492680476
P 1.193003497719553 8.565019879984423 5.474088345049007 0.001630079404255257 0.7694581568430877 0.032901635824027206
P 6.909921520993961 7.442817282196285 7.661772259886352 1.2057309116698784 0.4558941286021439 0.3963427514010723
P 7.179133470210023 2.2935843192403813 11.740226339111024 -0.5133924799289288 -0.7660136499379131 0.2738286573245349
P 3.9468307059595538 1.7890978126796455 3.7616316268582883 0.7066257948978991 -0.1628477606985776 -0.42845582988553305
P 5.839935281394842 7.364914068604474 5.0160604148858505 -1.005585957182739 0.3700591351141949 0.509549966254387
P 6.568686370147433 0.28934566576339055 1.1249212930823922 -0.023682431218604375 0.1961574305943009 0.001898245463977376
P 4.094803290435619 4.0493466310368085 10.499052116629084 -1.5391569689420719 1.966883633971064 0.5566433201977639
Ni 4.3347911172107265 9.29782678801114 2.600459828537667 -0.7284670591427067 -0.4953988715649855 1.4879105120622698
Ni 0.6109332427838032 2.778338061250523 9.145052039435617 -0.09539949724793248 -0.5647849754682919 -0.46681566061065416
Ni 5.178123730388026 6.989537808936715 10.217562517240506 -1.6541361880941448 0.5028213892813017 0.7231322771933546
Ni 5.34655134860049 2.565268651438616 9.812904723991382 0.799666819215984 -0.20428443057680945 1.3866131612726635
Ni 5.368293503065433 4.011909011572682 3.6620325581083155 -0.09605487144374426 0.6745947346042833 0.3051241250037068
Ni 8.517674208868897 2.994111350578514 4.026465513625021 -0.5051307541407688 0.7866071578185485 1.0800008817592044
Ni 1.5559530234469552 4.305002143227028 3.6421368199978477 -0.8079640262277699 0.24831148689003685 0.6587711373084655
Ni 6.395814018483874 1.6614321041582738 4.232576137627556 0.3514083527822271 0.24989091556201481 -0.7477107378636672
Ni 0.7102258101228778 6.407629601574704 0.563360705065043 -0.17250842371679323 0.7319092520550362 -0.2804147951824848
Ni 1.9045312443491476 6.7641805631048 4.398840652227154 -2.2364118641480326 -1.2987642226784792 -0.7844818839454295
Ni 1.4819389516248527 9.258426077939445 11.378489855221316 -0.46500688953668945 -0.36066792370728207 -0.9264178341920045
Ni 3.308576242243545 6.321642529018712 13.305202171463703 -0.11419966067357107 -0.1475862065538168 0.8208617081260443
Ni 4.71023219590798 2.0980530868375897 12.241298734789636 0.8697239810443859 1.8752842271955124 -1.3624795014492534
Ni 6.619402630796708 5.646487517797252 8.988233509405735 0.9154939881906492 1.1372279817024737 2.0449137867026135
Ni 8.03564286609755 7.538304972503994 5.425258318158041 -0.6666474547327487 0.6939885657498629 0.7679430057501418
Ni 4.415148194061997 0.7736308587888958 0.46079570272259923 0.022330545176400252 -0.9055391909707824 -0.6471744336098015
Ni 8.524507986549956 7.4232419352887495 9.708710912036338 0.5272142163033694 -1.0904853262302963 -0.7165165716490498
Ni 7.054467956768141 5.460327265087187 6.713866180438394 0.31941097394002405 0.5847405926546123 -1.0422745708530243
Ni 3.0269468189484843 5.105915331530431 1.9212638138202522 -0.40292143305985445 1.0828882306093286 -0.07940363604030841
Ni 2.624420645783616 4.581446044162477 6.223487072654209 0.5875680348010783 -0.38998981259985094 0.039662351586628466
Ni 7.1554560047215805 6.949729664965338 11.505533301059534 0.20645264187272186 -0.21132771057683605 0.38978849522232223
Ni 4.564731994414085 5.3157437898675814 8.077652079113356 -0.8122796228839881 0.03979784872322823 1.0065426646690536
Ni 4.8740113637195055 8.060024081049082 8.054666325268242 -0.49508493986899255 -1.3259613519185616 -1.2167241774565882
Ni 0.3593502176181503 5.451650774996194 10.754576138788043 -0.7319303351009587 -0.6702742528520585 0.7024670355345192
P 2.262600823141701 0.8408963436544177 8.979085692371699 -0.5820545611820169 0.8995498061565669 0.5858795913550618
P 7.046050742795129 4.077505869421772 2.0339683643480084 0.8433472908230701 -0.007959364056392743 0.30659788133575583
P 0.45277758877404944 4.536294960188428 12.834962336143661 0.18201070678027362 -0.5723571313885949 0.4582343466995463
P 3.5164693895571975 5.3097341398472455 4.073127806972442 -0.8354596605448774 -0.8023050281697796 0.15241036741533753
P 6.866872425547826 3.7365855538613637 5.307634003291603 -0.839439985348864 -0.5859862921362553 0.8981051032902403
P 8.549213296648963 4.918430918646394 8.41813718119001 1.0675474864872003 -0.7657413701131328 -0.5872715866065822
P 9.08489627611958 6.1134715858643665 3.2055084294294462 1.7483617196386343 0.20981050260136125 0.05074329199113841
P 1.0034078364462455 3.495616181782473 5.600847513143582 -1.4046422508602325 -0.9144010122367864 0.41533626178443955
Ni 0.30678383666985665 4.139232105223866 1.5250361983500411 -1.030211211930587 0.03082187047686305 0.47655037139991474
Ni 7.716770280426849 5.122046010013367 13.277432773241845 0.11565824749696856 0.7414135920010457 0.26686996661851453
Ni 0.20161773927238613 7.611661594169789 7.392817734815998 0.5277598043941943 0.2559263231228173 -0.556595497678964
Ni 6.485634673641436 8.45629058793699 3.280739247033787 0.8449897115224995 0.5263678091426741 -0.6832549813824427
Ni 3.6492002422405476 8.275121400498053 12.024237398746964 0.61209275941532 -0.35710977404237854 0.5194461423221763
Ni 5.864964686641326 4.3335780753730315 11.8146033974983 0.07522379363100593 1.207551766928701 -1.3056928314775125
Ni 6.645395061624262 8.853686797910386 9.398217574907088 0.11199853925719422 0.3900322358020122 0.926728680564204
Ni 6.318558995187014 3.571408146985014 7.8655373610072985 -0.7167369151899721 -1.6283012293089119 -0.8632054631995779
Ni 7.40688902013326 0.32587489282844895 7.1851625659392075 -0.9188765315096368 -0.6302581174704371 -0.519879373204853
Ni 0.07245378518354063 0.2301251484443522 8.978624551276148 0.3435155802977116 1.340464430630743 0.09359124039460011
Ni 6.524942785099565 3.0842468410221953 0.0888067003390308 0.6699366670069816 -1.1633118232737192 -0.03392570621316738
Ni 7.423714188217929 6.5098769906726215 1.8369796297677115 -0.3994005643907896 -1.961634469756983 2.1462561317975424
Ni 4.745234471835359 5.451771153193827 5.797117682482619 1.6399413846510014 0.5971839606242876 -1.0334695709668846
Ni 2.855852360665364 2.0433736055277545 1.8369388863777432 -1.0345586902660053 0.38169851912533614 0.5065312340327212
Ni 5.2076904676991695 7.851473483579123 0.905156077523636 0.0679192895497927 -1.9229753626238881 -0.7240997833129466
Ni 2.752623426263662 7.992084478276811 9.118461421564437 -0.612852777509796 -0.5151297743350096 0.6459922403762423
Ni 3.495616181782473 8.202237031761436 4.813825968847125 1.3940511056079474 1.01664092944532 0.3174109127908598
Ni 8.462744711302436 1.1012104920930672 -0.017031662992917924 -0.24119055957453944 -0.5843965790516322 -0.9616889986894727
Ni 5.366237813844302 0.20012412363559082 5.757706786563433 -0.11572381062758134 -1.3219398894639944 0.30745328735751565
Ni 6.096387141661717 -0.00746622621170539 11.74515999324174 -0.7741774166956279 0.6663618051715298 0.8151605439762091
Ni 2.0487350652531386 1.6773312861072978 4.899181518858607 0.08897636733040805 -0.09457391602284358 0.2984958210539117
Ni 2.8736405543311037 6.736734334044282 7.020172208262258 -0.8222480469506097 0.8390540627643549 0.27379471876280587
Ni 0.019562383101635626 5.556602043610194 5.7743634251714155 1.3517346042279237 -0.7908031981777671 -0.25394837346084004
Ni 8.36156220626051 0.06788219163186143 11.2316460478446 -0.9677843129539331 2.1688944380223485 -0.4016363956998438
P 2.912800508007529 7.738567994059931 1.7238278279364387 -0.009879463897241049 -0.30160171367274513 -0.35722033147831384
P 9.197477670491294 7.698139439377672 12.029265503463517 1.15860310494414 -2.0897995914717105 1.2445304010355793
P 0.8194560606696941 2.3150486778646315 2.8606045215134936 0.9866634092466234 -1.3273294359106818 -1.6227761857256247
P 4.117767746599615 3.2120607073252705 7.527274625656191 -0.5678345609278931 0.1998881012813267 0.9340784360610559
P 2.8572598595915437 1.0891263730229004 12.51312566885276 -0.6630882766265805 -0.593729426416784 1.1984315497949878
P 1.218227360054522 6.383998435393044 8.965464436316362 0.9292535038685867 -0.10418238564688509 -0.5286342365793476
P 7.3381252897002645 1.663598911715683 8.865879257358424 0.45361767386314134 0.11784188541184867 -0.6491978917977335
P 3.777078927573118 3.5898167513616355 0.589951322936224 0.17824558331088655 -0.2296128820392691 -1.2930052087075152
