# total energy = -381169.7651405395 ev
CRYSTAL
PRIMVEC
9.21426740918031 0.00000000000000 0.00000000000000

0.00000000000000 9.21426740918031 0.00000000000000

0.00000000000000 0.00000000000000 13.48601174575325

PRIMCOORD
 96 1
Ni 4.767895048257337 0.8629069322544171 4.5030604161152965 2.1174839447608567 -1.8179841079224626 -0.8681432668208274
Ni 0.5558147481682871 7.189496676312985 3.4729182153834284 0.2818245310458179 0.2793431593848609 0.2736504798754577
Ni 5.221218578172795 6.378125141896227 13.07603696414194 0.051221774289453716 0.8389126520904843 -0.4316252287524502
Ni 0.34873238011119095 5.298867209958592 4.790851474177728 0.7187272061471235 -1.657755530014287 1.1879514761992702
Ni 0.14027432192408187 7.9689684168241515 8.983167170590436 -0.6883177406173308 1.0904477881241412 -0.7332994475343435
Ni 5.911615995262426 5.998266966345091 6.87302436796461 0.40977445142594593 0.25774692127132387 0.14952738944058763
Ni 4.335239120228142 0.6980056377215901 10.32128981079044 0.06875644073910739 0.5862362033635323 -1.4990631862449795
Ni 2.4655721123183527 2.8708432374915636 -0.06432756533596475 -0.7500393859968437 -1.64150615803496 0.7492372018105226
Ni 2.6841253219216856 8.971360929709085 3.1924626356364914 1.0141508160336146 -0.45610881571611134 -1.4397388374530493
Ni 8.066003867320912 6.658312586460422 10.808323738165056 -0.7290149612263768 0.06607786546567976 -1.0381942301360636
Ni 4.820895514619257 4.291692492268052 5.353460823162302 -0.7443523629143955 0.2989269950540594 0.18185078416364167
Ni 6.062895838226611 3.024481932922483 3.7768112058115513 0.06840625648854025 -0.636840141563329 -0.2689864987408851
Ni 0.20350631086045828 2.343547568502132 5.0467353669206085 -0.871919446033808 -0.358388383644486 -0.26914513580593646
Ni 4.802402479850763 2.1528859464644343 12.130478974304111 0.6784159081225865 0.010335577598053168 0.7538618450667275
Ni 0.21609760732839345 5.642319814821977 8.55582234631837 1.4882663527397917 -0.809307941850174 -0.2756176309041576
Ni 1.1713268922798297 6.637055271457476 10.528597006973271 0.5917640751602969 1.0897168234953878 -1.06104439526136
Ni 5.611138733777342 4.162066177807085 13.49599102449382 0.9209393275759364 0.13215521671072725 -0.44628617319873465
Ni 7.1976052316673815 8.010884119445912 12.4786603412219 0.23131418100109194 -1.1920127907528375 -0.6542704212246345
Ni 0.513324996684504 0.3237626367533735 3.8067907463809427 -1.2878118374320338 -0.29970706775319356 1.0612423702047789
Ni 1.9602893282626186 4.844391896612111 6.769991350785829 -0.6175440123378784 1.2973532012635656 -0.12023121157963165
Ni 3.0209344399549343 4.90194421109343 9.713219109070046 -1.1457097939212397 -0.5366717621718435 0.6175836073265621
Ni 8.60546236934194 4.35557500848627 10.749929239638972 1.6061216078880791 -0.38067033497113795 1.5237797151550532
Ni 7.519616236178857 2.522414928206163 9.792017681433373 0.1722585124895162 -0.7594107999094147 -0.05907469467496923
Ni 0.5575617732764616 7.240322575557135 12.682596036945442 0.016554047703939232 1.3886340483574342 0.14798318488191933
P 4.288320070382019 2.3381480077775003 1.0383207845188704 -1.4503083854387797 0.13456099793874243 -0.13242132588792033
Ni 5.239416756382948 8.128835957050038 8.261867864759852 0.44709015715726874 0.15936005926029329 1.4459639924271548
P 8.178758858084267 3.8855460116872647 3.755395405408496 0.47425360494593805 -1.0474388886627832 -1.9259316170387346
Ni 6.299849939923956 2.3085609950014008 1.1543597402007546 0.5826022061553707 0.48132028198473226 0.9061809383198393
P 8.398288780037106 8.390659366590015 5.470964847368446 -0.3015628900150097 -0.056574553960934824 -0.5692293843928906
P 3.391716562069615 2.273334850547016 8.678396981901248 0.5508040878081676 1.246793228927827 -0.15163286581936467
P 1.830911799022752 7.437600041622624 7.931231384490138 0.38786016785135785 -0.49378961809633676 -0.6526886785598114
Ni 1.1658628316830602 3.1638477280761745 9.249165564711182 -0.04292456727766801 -0.007622035321632035 -0.2692968308924524
Ni 0.9747589248078492 8.714623795800504 1.4812358779248675 -1.589897689830049 -0.2765537695651818 -0.7140025469779445
Ni 5.095646541389026 7.820508139699108 10.910237221848885 1.386534228405612 -1.202635046353374 -0.1298551078226409
Ni 1.4300266651548739 3.6411375676243445 3.626010504754671 0.21214634982338948 0.41945876859324527 -1.0607296922344183
Ni 7.1542705318586 0.34734286858000574 0.567194368466787 1.1117928294588206 0.5233670746431374 1.029075555664247
Ni 3.8362496808395123 4.958860741120825 1.0331515804804425 0.3477375887988592 0.14953253164691022 0.6098137335731562
Ni 6.938776459048063 1.1171193568821987 4.901450326358208 2.9474555856079685 -1.0357467970368357 0.3499374246636554
Ni 2.8522304172462447 7.484887662166674 0.46434932234394866 0.590420416648209 -1.1226917357595116 1.5261132483842361
Ni 2.888166060294138 0.46634144696624474 0.7670195794816981 1.3501510617908876 2.0726529044890953 -1.1341938228618402
Ni 6.079739519121881 4.913342259926827 11.046864536716976 0.09061493137509555 0.25000121588763397 1.1778447267825713
Ni 8.912914831285294 6.368090804645161 1.2331619982710622 -0.2767838832981169 -0.17328181154770803 -0.2540249923350464
Ni 5.618491719200988 8.615395349651076 6.122420005941841 0.29756431037857783 -0.8701320151160821 -1.350206083398539
Ni 8.059249809281399 4.089881606618059 1.2662476683972348 -1.008212853282625 0.5576946442804137 0.5172900152111221
Ni 0.23816024930631072 2.0663731893934916 11.605427900865054 -0.5463519655740848 0.23934193640157486 -0.34408070877256225
Ni 8.928827871168297 2.008369375807211 0.6834185309243795 1.2099539486122906 -0.7610102831860507 -1.4783987159170924
Ni 1.8354912899444964 5.220112866079014 13.53132497587735 -1.228909663779187 1.2241919465885434 -1.0724721774823271
Ni 7.937022551581318 1.8302299432315867 7.0936148521007345 -1.4290962701375387 2.277196502264562 0.2743922431374887
Ni 3.581668685513804 4.287113001346308 12.114255413608102 1.2454115180889518 -0.14249156563972878 -1.4760034762120384
Ni 3.7925371960653567 3.7939746217872723 3.204020091296741 -0.3922387565350277 -1.0264715423824968 -0.13240461371737197
Ni 2.2216059530929453 5.90436436678071 2.3404571032000137 -1.071424195833787 0.3393395945431511 -0.6792016372486755
Ni 5.684456659862494 4.998058234845374 2.5903526435283237 0.9392018733305503 0.9915433630467441 -0.861628091410129
Ni 9.281255172526208 3.5757439115446257 6.947345727774868 0.1389141327011156 1.5476714341709863 0.8451480914772348
Ni 1.6042408197975744 1.7803623278020477 2.2497361901854878 0.20177477678107833 0.45802017380621124 0.0560814163746002
Ni 7.62842752047439 6.0390400998032785 4.026909460023721 -1.634865769900307 0.9490386569153137 -1.0736870237260348
Ni 2.0803051617751365 0.6131090631610576 8.601499312912479 0.4331213536820025 -0.5788216560670161 -0.41286646008770833
P 9.305857266612842 1.2315974156583616 8.899944828425237 -2.027290674304212 0.2761429072800083 0.14880722344511146
Ni 7.875895101330105 1.7241000107634732 2.74269028439556 0.5632297151660299 -0.1774138314382106 0.7263075895975427
P 1.0075432883884665 3.8410134571102206 1.2579658848148123 -0.8989250280883744 -1.2903965674400744 2.592971679224212
Ni 5.4805449212343165 2.2345704273925318 6.203147124482072 -0.7198983436370892 -1.1516878658815455 -0.372434577324907
P 1.4568493976965198 4.830699495184119 11.375572470809788 0.5499944474226787 -2.305347767887797 0.1944327345937103
P 1.0609215397157614 0.4299275834377903 12.76707244091034 0.5041377940998801 -0.39390843092796674 1.317646404294963
P 3.135200570579789 1.768826064956929 4.137022720309682 -4.36052899795469 2.520009685044189 -0.654657115140092
Ni 1.2142008787162015 7.202249222461264 5.915787294136216 1.1031580366019582 0.857223020363898 -0.6731191785000213
Ni 3.016391806102983 6.453433349750186 11.974985446835872 1.0336055823241166 0.662731150397478 -1.7306774149849937
Ni 6.310086991058881 7.5171468125027445 1.401573928701645 1.1760668089465423 -2.3952031953890494 -0.41990151255761876
Ni 4.966278226416609 6.354195689333309 4.387781637497887 -0.30371207514752857 0.8927142712919722 0.7701793512798284
Ni 5.062641035389654 3.30041238592562 9.666544237311298 -0.684555188251105 -0.42269835857646554 0.4100642147522229
Ni 7.325655906394711 3.0729950510371404 12.455896493491176 0.35741959197331347 -1.0963425563420217 -0.6936111278057862
Ni 0.5345638831525543 0.4621563266912823 6.6925279257757415 1.2572313935420154 -0.611245066703044 -0.5097507694112834
Ni 2.423315481801009 2.548463662282162 6.314932774309878 0.263217714577908 -0.556185663835055 -0.3487308059500639
Ni 2.574309682474301 5.5618976885342795 4.476655089889053 1.4999607583585843 0.7432365041423975 1.8001049136491964
Ni 3.1772452729458256 7.61123369741609 9.543471109859475 -0.7282582855660104 0.8568527815086727 0.4865601902274329
Ni 3.207394356036264 8.765486552114446 11.979948251283462 -2.3219614651850784 0.2536485828322341 -0.1701268108584941
Ni 1.4891546193698317 9.221638862136494 10.675864036463775 -2.105039805460233 -0.5487325499911195 0.2585573329877612
Ni 5.061452394888838 9.161469695699893 1.9787215488659537 -1.8724704118958009 1.9992664211771438 0.7214983411343574
Ni 3.64869326693185 6.775425925726764 6.996556365935352 -0.297176588021856 0.1342828045766913 -0.8321493652247217
Ni 7.233504017645482 4.252338355996884 5.560444598557702 -0.1540039371547025 -0.18177853616480955 1.3699593547660665
Ni 6.349938697772251 8.172281228068197 3.815570100405567 1.1536395902912777 0.739676811815597 -0.06579658677983506
Ni 3.1632672292269395 8.635021739315693 5.307594964085506 -0.4369818650786732 -1.1451955732889827 1.4617773053103278
Ni 5.935656019034722 1.090932408794477 8.573449239946735 -0.3834543254741783 1.6634122140794319 -0.6145851868198706
Ni 5.040849292874713 8.908455125840375 12.972518355068638 1.7994413119232686 0.5682274254909375 1.7169932326296817
Ni 7.6683252985250006 -0.07156168670952925 9.965245909459117 -1.0065303233738796 0.5925842570687472 1.3157345319842308
Ni 2.5374249698792446 2.179957464227181 11.056695238657438 0.7864513489669746 0.37377977849889177 -0.46654518055808686
Ni 6.130390347284514 3.667785229084475 7.587755743958132 1.5630839120713145 0.026914822112973 1.1749365519968409
Ni 8.41227603802344 6.3137819123056005 6.490021362933411 -1.9185319821405538 0.42627219197065297 0.9883138003658528
Ni 4.823401795365162 6.133016413507245 9.215585088423042 2.0063973757949705 -2.060312380645871 -0.21263923029940798
Ni 4.006566200351633 4.36184992461848 7.54477671487285 -0.35809399233251876 -0.6267053671221723 0.8041824476981505
P 7.4353425460978215 5.81960232052492 12.846990546768621 -0.09602478953675721 -0.8057919582771155 0.5021248774349094
Ni 3.9344737718370895 0.6405325659403249 7.1561907851948 -0.014865347147606657 0.5769056699912258 0.3709502794698966
P 6.6491536046169335 0.8050662112019696 11.76260763927631 -0.25308576835022867 1.1866607824123048 -0.13025877101896277
Ni 7.555045094517101 8.959926023805897 7.502146906523856 -0.25825934213136814 -2.740151651478546 -0.20823415925317687
P 8.20847487060464 8.170972802090555 2.292082199097079 -0.8232356076748597 0.6362274476799945 0.26318891822250157
P 4.216568569763058 6.956624495095183 2.4406171117884528 0.16375201768040185 -0.09815469139556644 -0.5920396974191868
P 7.155247244208108 7.050176952496534 8.625424158341671 0.20389156601376499 -0.4535371983341931 0.030399952448096033
Ni 7.350737142388652 4.863041573927223 9.015979176973397 -1.535891925037555 1.0586730668157058 -1.0752661952876967
