# total energy = -340875.1821602509 ev
CRYSTAL
PRIMVEC
9.23921835888317 0.00000000000000 0.00000000000000
0.00000000000000 9.23921835888317 0.00000000000000
0.00000000000000 0.00000000000000 13.52252998272660
PRIMCOORD
 96 1
Ni 0.04540336585018437 4.957976963213439 4.893438252645434 0.9163061996792993 0.7139734935122221 2.2682061258404933
Ni 1.4950533247351416 6.585539154706822 11.476421839610984 1.9752176077580563 -0.4843277013524885 1.0765530324199202
Ni 8.681012310368683 1.5033870995096454 9.96483308614643 -0.8754097185752535 0.3143304740933232 0.5234071838524533
Ni 7.967365860970187 3.7813625313586154 11.616420940526307 -1.0813085448270343 0.7674928055866008 -0.389955874038122
Ni 5.228381160913441 6.7915275234402595 0.7521573585061311 0.28446222577898106 0.7245864931413779 -1.44678186034276
Ni 8.36157558192778 5.95608046112349 7.884013330476103 -0.5832087293911181 -0.7719909505672705 0.17052610317944178
Ni 2.901354719887265 2.6948859118098425 2.2483101502015455 1.2776883758447866 0.3937245970519348 0.08649808099324457
Ni 1.346662241970946 8.24594676673608 5.066540548283119 -0.19862260430534182 -0.360611873658366 -0.3561337832823544
Ni 2.7552272455706888 6.446378050878024 2.0015777533327594 -0.28098917962871606 -1.3906443939192437 0.023843382276500874
Ni 8.50599380088595 6.857966741182451 11.825438848892295 -0.40786540732869114 0.4519053191577249 1.13373359539597
Ni 3.764713460245915 6.728164965343201 7.244762913493637 0.17764548783304246 -0.9080586149585265 -0.9408805465845538
Ni 0.5198215113642094 5.45442787225824 0.4219800389617263 0.8072546588655711 0.2284990801498 0.10734921341064094
Ni 6.390388388867501 4.933603905724371 4.706394900735854 2.201816642671666 1.4031417550553063 0.3508609649191893
Ni 5.679070222443699 3.058079577425964 7.285424712587418 -0.4461051675361801 -1.3714125422728252 -1.571874770890067
Ni 8.665767600415322 9.026189500585378 2.9447069793073606 0.3527155016294248 -0.8742231544663202 -0.26595491100341295
Ni 6.356665242607036 7.451752813474919 11.416571108334091 -0.82674747748286 0.2692047853992783 0.3254695214292782
Ni 3.142840164766649 7.956648367912066 9.277401994336822 -1.2978926187068036 0.6832382692118942 -0.33623447325526606
Ni 5.264109217513226 0.06250977826148557 10.050917653448519 -0.022157252823329584 -0.9930142911653157 0.607917802102024
Ni 7.259955883825338 0.9478236727184208 0.3943640159007599 -0.6903882499931142 0.8651885550678777 -0.5336419742065841
Ni 1.062195954241239 7.844844589035935 0.47048501034605805 1.1465446311177092 0.12005251990992227 -0.1537134024974772
Ni 1.1340955499121792 3.0044274376082893 0.7485143347881856 -0.23320188494210803 -0.40543854305475335 -0.889836692633861
Ni 7.3246304109002 2.355095185776667 5.377964102819446 1.4482047088322156 1.0915752168603652 -0.03468521008701123
Ni 9.147084670124604 5.291401867938818 10.043980848458833 0.46016987315936225 -0.5984548569169112 0.3388587982519906
Ni 2.5793864456722906 6.110717255359487 4.61818716110208 -0.2780226408012244 0.25542778621984397 -0.2236101274886149
P 6.736027539991873 0.38318825762222364 8.405523770918782 0.0006376335839989018 0.8791110786862407 -0.4297748058072728
P 3.741384434408196 4.642670165287178 3.460212851872046 -0.40950448559401087 -0.8073922128846999 -0.976663360611118
P 7.6073320079625795 4.031477405993416 6.701103295371448 0.9861805560729339 0.43574156491366894 0.22413051876845919
P 0.8009542891841149 4.480004490475744 11.905911515087919 0.16680623112569337 0.1658639218170821 0.6976076505596889
P 3.2986780573626073 9.20835916491896 11.268418397398257 -0.47922149047417467 0.07332169151228662 0.34867629856304466
P 2.674873765289249 8.293112975409963 3.1387139299392723 0.7885264863284485 0.5670457464780105 1.1553550303204876
P 4.274043839396766 1.7688852723701107 5.974631887254006 0.6480902605558516 -0.10083480933089087 -0.22553716930799866
P 5.5395672675432195 7.067604601086542 5.560505183722799 0.23313452203928234 -1.2489670966506943 0.13667804428174526
Ni 5.685556153587493 2.340866789820197 9.383689036053466 0.37969768664522346 -1.083444617333431 0.7227440406160004
Ni 2.1894175258471753 5.581208423761278 9.09166968748323 0.4213657558079711 0.18210300938376378 -0.4165752763978632
Ni 6.54982033732519 1.4930391751776675 11.51124260498809 0.617211311588808 0.43163679871667604 0.35664517570113413
Ni 5.979021439798759 5.313964038669792 7.20238354374511 -0.11666483438461198 1.3381455526895794 0.49586989766413314
Ni 4.089730676451561 2.2880554188544946 11.45463761104854 -0.4438544238287904 -0.7319737867443845 1.1214545209183007
Ni 7.730213609404818 6.842518768429712 5.752402820850255 -0.8828142385694409 -1.9365579864043296 -1.8251387166893727
Ni 6.8448285729681 5.900294061912344 9.799925977010945 -1.1171597501976889 -0.7395122612132747 0.14686758322023738
Ni 3.1901080048402197 1.38249192997042 9.39269542590955 -1.1192402868758013 0.18622962995762765 0.28111413524235457
Ni 7.69380185066167 3.671840839366412 9.033820170858398 0.12729583173589692 0.020457753633719607 -0.8888200784438886
Ni 0.809257574538712 1.1739165801539875 5.849819289217675 -0.22996897982710715 0.35162226856524603 -0.3336345737385738
Ni 7.823123187156935 4.108597159921113 0.6029171915936239 0.3938539235409475 -1.133875263180157 0.083707662732301
Ni 7.491278188735814 6.862226020751239 3.0483432893357514 -0.14422217517759034 -0.18597997584066678 0.12435448971938581
Ni 4.390707447021665 4.6135481496671815 5.5926345648517755 -2.3489845307411414 -0.25319632578616397 0.6431393443084795
Ni 1.5146219887843646 0.8583205946995183 3.4253782276677094 -0.7231549029011738 0.8308465872528982 -0.35593529411830316
Ni 8.478516366097287 1.6769458125241166 7.507748942938151 -2.0224893962608266 0.3494828536247401 0.3229441839042632
Ni 5.648211233810836 4.967271616675913 2.378504592812321 1.5258044588945658 0.7366585938145636 1.6044732736513787
Ni 1.7819495268392331 0.8822215281409416 12.968484429429822 1.681443874770162 -0.35014594113003567 0.3942910110783661
Ni 6.764706073140498 0.6755660878568172 3.95962677817869 -1.1496739207753102 -0.24158625235106138 -1.366473453099995
Ni 8.24732341024096 4.478055015445344 3.050303851427935 -1.8202255956584719 0.31582685613319156 -1.4260981067411633
Ni 8.575722180290805 2.2680617507702086 2.441100295802635 0.628418493158537 -0.900223949405456 -0.20929088265246537
Ni 5.862034459538485 2.8315524267371806 13.418582180998252 -0.0032244204745686404 0.39465662194790097 -0.08840455398733807
Ni 8.340593317501066 8.302065777800754 7.2277248712966715 0.5867038870285701 2.1209971001204377 0.9439707554741034
Ni 5.866090476307895 7.4710997362884575 8.159575783671233 0.627782402236435 0.5189044108860934 0.18013045903842526
Ni 3.2810588683437842 4.668087254427598 11.452473786156977 -0.30313923336319404 0.006791054779904434 0.498343041794974
P 2.8652478553431844 6.253980572048461 13.27913743317214 0.8170672740806186 0.49897013385601163 0.007851120613302608
P 2.295243530577958 4.943674653511741 6.52947557895107 0.09017450140356728 0.3692320112272093 0.015719210507469702
P 7.2896969270616205 6.089226833934324 0.252395113675098 -0.31757289229002084 -0.37641721612173884 -0.7504877863881719
P 5.821825382134229 3.552765795803436 11.206025957207322 -0.007118356212336127 0.3432016486017186 -1.1998430854305338
P 3.752185080429699 2.5552536078552133 0.2048584123532585 -1.568237688358112 -1.1998204597227142 -0.022829339189689716
P 2.553378046570043 8.517450431396355 6.9490386384438265 -0.9991684836921696 0.7866367255049033 0.7405622997443438
P 0.44169283481414456 6.322147523585366 2.7079270682335803 -0.6761849619095386 0.0076014664963417475 0.009325648276300067
P 7.845491334306684 9.088480309376624 11.58587331354522 0.97614322644159 -0.4197135649165287 0.7567692485215096
Ni 3.911469201396932 3.828251563487891 9.220350746160454 0.004149503391999305 -1.8137564429943605 2.485429118855842
Ni 4.293464675955532 4.582273396217408 0.7470138857600487 -2.954330972571564 0.1441098179694421 -1.2828426663522166
Ni 5.1893269857783775 9.024341656954668 12.716465351933573 -0.8339709918144929 0.5362112775956572 0.32218468003041933
Ni 1.042978380481851 0.4536095783885956 8.219345209828374 1.2291788582801735 -1.9666290947580969 0.3208569623579313
Ni 6.153199180429518 0.3952639157489159 6.217726803935739 0.854497908123251 -0.14091573651217668 0.3740538580958848
Ni 4.4643717333599335 0.20611217425669548 7.789801946886151 -1.0844805147971128 0.7683795790669282 -0.6993675706735891
Ni 3.7511133311238867 1.208147883412897 3.8663079030623706 0.6433154648750276 -1.3169560630961576 0.15626496527473732
Ni 5.0185215597736645 1.3736222805430103 1.8299906894722566 -0.02476563698045412 0.2730100180779814 -0.48785782599293404
Ni 5.681832748671611 5.216296263568595 12.462295384451176 0.6365056410420458 0.671226846573315 -0.4019575264846884
Ni 1.1381238490271277 6.773159957750998 7.125562216563772 0.7664078000525382 0.10410319566951748 -0.4198513760459737
Ni 0.9313409075324844 9.026688418365671 10.834886563979145 0.5070192294127333 0.2673728743968621 0.6098466436936206
Ni 5.373566234978354 2.914151037029934 4.056596992309293 -0.48870011938857116 -0.1420238819746909 -0.6480475802433743
Ni 1.351937835536624 4.322217122849385 2.6758919271297708 0.3053534674056935 0.40977008055057174 1.0553522299725888
Ni 2.5061286849327784 2.8222670124928615 5.078290985930807 -0.6013920851683643 1.0611996898923013 -0.7635201940920979
Ni 9.040223872960624 2.048399339169514 12.54687950272513 -0.8475973243486757 -1.2043821109514676 0.09724452087647123
Ni 7.987913882143685 7.995508519465905 0.718088665486724 -0.7453792615170131 -0.5387630974832334 -0.10137294122254799
Ni 3.1030376129611477 3.0691481607739197 7.424423206176713 -1.3523550114207419 -1.0728966666142556 -1.3899702506703546
Ni 1.5855237488947214 2.68379885002558 11.085391333620025 0.5058583763354126 -0.4450013929490401 -0.5930511694028368
Ni 3.474186245407478 8.552864354578919 1.1102223341252166 -0.021391064081266384 0.7240110802538821 -0.6077673925670887
Ni 4.046084609894182 8.628219417839286 5.3291071172234625 -0.35111653257342107 -0.543825085387173 -0.14803846359988695
Ni 4.003658120133072 6.9985506846068954 11.208162064444423 0.5758882844703049 -0.17738683485501708 1.0163534801118883
Ni 4.929871261590335 7.5392666878253625 2.837959824526669 -0.25033391663670435 0.5980488797277442 2.0183221522570145
Ni 0.5661367880461494 3.6960568301468713 7.172241518440962 0.18790213256404414 0.479758079703935 0.24127077799317156
Ni 7.985474728551148 8.220511199159352 9.52359297302181 -0.5073537299340165 -0.29835775281415067 0.9039098828974755
P 1.1008897998683138 2.462907622410463 8.916769439992864 0.7669163642578405 0.22360627083387297 -0.19323074386580913
P 0.06968865076679534 0.6101699778441619 0.996163262097804 1.9472481191283237 0.8711108340895836 -0.7270061583264641
P 8.312838706167796 8.797823745484038 5.138953844483397 0.15906695349990668 1.2511633329710645 -0.7740090094385639
P 6.349375499483885 8.933030463943116 1.9423765390920606 0.14158679443727226 -1.311586057033496 0.568714135319369
P 6.565545486622536 3.0487756847453378 2.0970336596079955 -0.06122619380033327 -0.8254668109982235 0.25547792273148906
P 0.2679234676257725 2.7788981224800886 4.40046128962637 0.18595889279474426 -0.035212029124758716 -0.4197369619552965
P 4.595457760522527 5.6475644885400875 9.12490869871245 1.0368767968762207 3.6665052080915177 0.15869414354152026
P 0.6617913375116867 7.275810382176832 9.651787124902341 1.030043061783839 -0.5420348262559698 -2.293485726342889
