# total energy = -340891.5129940451 ev
CRYSTAL
PRIMVEC
9.07991722696147 0.00000000000000 0.00000000000000

0.00000000000000 9.07991722696147 0.00000000000000

0.00000000000000 0.00000000000000 13.28937667375705

PRIMCOORD
 96 1
Ni 6.56964703824404 2.0054904123416106 11.13316171399388 -1.011222072422594 0.9048236529609965 1.6547869343042663
Ni 4.629423071401891 0.2826923290054431 5.776373708030868 0.03916998533124222 -0.4477301047341128 0.04027170303585322
Ni 2.7871441723953967 1.5624267681301873 4.803763839362589 0.6421612966659264 -0.21239497549908584 -1.4142682039857706
Ni 3.518240952963791 4.64733774822026 4.513245529642624 -0.2608322450648669 -1.0424833444297208 1.5916532390685751
Ni 3.6657442093826487 2.7981944317405336 2.6404127089464136 -0.3965916341870847 0.04078129568242009 -0.3748935803883608
Ni 5.091363863664703 4.643696701385913 2.5126891443578323 0.396384146161969 0.14566944914707816 -0.5336604861493455
Ni 5.146615160390387 4.922876918382565 11.301763974225635 0.9255891676431222 0.14479116030718292 0.29631295446998
Ni 5.83542676612698 7.977379255459603 12.125240741321027 -0.7102078558222027 0.14510097823811785 -0.03835263163626943
Ni 2.0046822997025657 6.596841390535483 0.4327751899271382 0.30633665725456916 2.1450443708776286 -1.2815967097602572
Ni 2.758242795652939 1.702702410384107 0.3493734256190969 1.1089571597822385 0.19410928981602052 -0.6867198000025916
Ni 7.5256079705645424 8.728034177876333 6.980616806792915 0.4682855602879612 0.03160220028631332 0.14640401332025754
Ni 8.870143963423365 2.7426707374960704 1.4101220514469843 -0.48630179435972376 -0.16205946046932734 -1.3304006186368378
Ni 6.928412730310638 0.7104563125787761 4.6280783356508515 -0.136085662113385 0.021962363203704108 -0.29614531854386417
Ni 0.7383825062040046 7.827251902943174 2.517313546234971 1.160336542695479 -0.766793465526731 0.04971176540283051
Ni 8.013145049675293 3.9762047414524284 3.4079680814199254 0.039369502936558005 0.2842907331981233 1.117579868454243
Ni 7.709276537559966 3.972926891309787 12.446205829706658 1.2255623445735087 -0.29282833835548927 0.38550400891435543
Ni 8.47517664111103 7.248234657109125 9.0960731894739 -0.008671045411436679 -0.38236854860916725 0.3185519683738385
Ni 6.915319489574659 1.049820037374472 0.13430650462574156 -0.8232458920875048 -0.8516812646100623 0.7851696540410736
Ni 2.055439037368396 6.172654894375448 9.13700454863737 -0.7838205962123468 0.7895263883478725 -0.20196503841501345
Ni 0.15453292838681557 5.226273274798675 1.318618276938725 -0.2481111979537727 -0.5621791624143285 -0.10234173289372052
Ni 6.3359208872143205 1.8470004559986646 6.698988644094169 1.0952832618395718 0.7181458797223568 0.5794263795305505
Ni 3.538770645962439 4.484789068847506 0.31306192837411984 -0.2689628445918013 0.30870670014864254 -0.32103796802048584
Ni 6.053698897924635 5.730562801314337 4.644503906033228 0.07115193755447746 0.20359074694389453 -0.10227128466710128
Ni 5.706655379082829 3.0952711657209693 9.024111212962849 -0.17432362254866107 -0.8137148126686179 -0.2542993290423556
P 0.43210781600612946 5.870003091177334 12.41116188891573 -0.3837566872059455 -1.0145688774076398 -0.542937026355265
P 4.002908778210068 6.517864269924143 12.652417107364505 0.9371154231151667 -0.9551969632072258 -0.8368159174624556
P 2.439228981493497 8.824272221260973 1.3874640258349427 0.5457870942095503 -1.2550187021614128 -0.2376493791905004
P 6.172881892307763 7.669588219073858 5.6215257065139985 0.2965438395338635 0.4654640316787661 -0.30597850258420206
P 4.777598241700403 1.181978233568776 12.446444631531454 0.07223565753695947 0.5438271422697021 0.18911620747680333
P 3.980218064895773 6.008789626995262 8.15263437109167 1.0061896522050089 0.8615345032550582 -1.3990711845303583
P 4.696523660194464 1.1312578155721162 3.603906340652886 0.6323962468593626 -0.6588945502602072 0.02254214696657408
P 0.3162526113107517 5.823150717947336 3.6619942035407904 -0.4655015697849209 -0.08881953003756961 -1.6136508263855887
Ni 0.5841337792284486 0.45641929455716007 4.588848552988021 0.7429989342102946 -1.565410503321962 0.366762209530478
Ni 1.5825841845198374 6.66336994453862 5.089565132049032 1.410411549243842 -0.04056069503118175 -0.7003841848635615
Ni 6.24457691925041 5.6841825837835565 8.957916799916081 -0.06660391317247884 -0.045569975320315065 0.4881100512130562
Ni 8.855107620386763 2.3123916168326772 10.446008101154924 1.034006160196645 1.1062742136334367 -0.9587031765882714
Ni 2.265339485422242 5.121037033377035 6.875923544425374 0.15706072170315533 -0.3339690742598571 0.36176501342620276
Ni 0.6929429681047413 0.21246552468901536 9.077374915793177 0.20247385973063195 0.30425714901772116 0.4649395266338638
Ni 1.871870349463192 1.2101441370105301 11.354935061899576 -0.8525852644815705 0.9239853134911119 -0.47739986388440353
Ni 4.474719440569974 6.911233526792974 1.4991215847659354 -0.10189153273017935 0.1829206201890527 -0.7611452661020182
Ni 5.3734224144431195 8.038169301733795 7.751679751316572 0.32999954808914783 -0.6164104129540674 1.161220230852013
Ni 5.263646214375162 2.9649017132333144 4.7154561957413375 0.7215513058594799 0.13597921844250774 -0.19731982633351822
Ni 0.6554111299756341 7.810127178929264 7.062307006691294 -0.1435853129245398 -0.7004744305845226 0.24410516211817315
Ni 5.337129985024457 4.568923582481063 6.847244625656585 0.5593193243680302 0.7268727180723933 -0.07740948842841507
Ni 0.9791056414994296 7.503634570716366 11.02930562000072 0.17133522934429848 -0.2098395560670838 0.411256178177795
Ni 5.063025441794388 0.31174352438322916 10.345115692166079 -1.3580721164101774 0.24631219707182095 -1.0719774972340959
Ni 8.432419310580011 7.571879229087811 4.7863022504171235 -1.5550013921734962 -0.6120953305184813 -0.22782853644533665
Ni 7.521222370512199 6.263998862339357 6.938224488937061 -0.8439407014326948 -0.27617221785604695 -1.1134789589119922
Ni 2.502298087008141 5.528943237831374 2.3033679950272563 -0.6601554192505018 -0.8105587835381396 1.9300063013287407
Ni 2.59381457340061 5.386188778156565 11.405753543002996 -0.6829721600347012 -0.11632647720858676 -0.3079736786373599
Ni 1.4260736501466857 3.690768461441151 3.757186240453318 -0.3259528888235999 -0.39683100389140047 -0.5333092734575138
Ni 1.602251285375685 1.3610614423314185 2.5138450178291847 -0.19943507290430815 0.23919204108727193 0.1405274999348225
Ni 1.1133431387537471 2.9928496986600455 8.314339526147938 -0.30910727802117083 0.7724956581178308 -0.43425058219043927
Ni 4.022657598321549 2.695609526168342 6.781542344127078 -1.0554231924198405 -0.671114746475483 0.9112485826507339
Ni 3.9336199293499696 6.79751664262001 6.054254588862944 0.37286626554568686 0.3285229635436213 -0.5180346066866304
Ni 0.7475005591492687 0.20568555044660472 -0.04792743543744519 1.0318924562877518 0.5677630842600093 0.8103332977908948
P 0.23851943936850256 5.565453585265059 7.7974752221737065 1.1671993312535833 -0.14079078089853816 0.9582516908731497
P 8.511795947552228 1.4012037566821582 7.733261139088461 0.9160164363530224 1.846461646536865 -1.2007463139710934
P 1.9269309679257312 3.4286130893681896 10.304396803067256 -0.15922764744748708 -0.48555617444295085 -0.1804204794750183
P 4.132352079133874 6.320466867982255 3.56615113655838 0.2784548432426366 1.7558426013967114 0.27163062123195153
P 7.080519504796863 4.054509948184113 10.399282846767024 -0.25946853194812086 0.6404558839390454 -0.954449286407924
P 6.518127587525629 7.786619273058632 9.747571783088137 -0.26500745948847904 -0.23499985738279527 1.16165011930058
P 2.2829454450526616 8.543947934685448 5.8558974396632255 1.271798492722913 -0.20998096674095448 -1.73660894997808
P 6.96156350834605 4.186141509175445 1.5576216758989248 0.5831891890070924 0.7545634991194424 -1.3914573767388423
Ni 5.531394815500385 3.380480447799931 0.0984644391047937 -0.006484322172763026 -1.573602037993819 -0.25174930892699227
Ni 1.6392973479296362 1.152513901954175 6.848427738879816 -0.8873337237063492 1.3722728333905914 1.0383644371653407
Ni 7.350165808636247 0.8002966462390249 9.382885076955011 -1.2129130312406142 -1.0824136049657553 -1.8384387762323886
Ni 2.868354952660725 1.4856833071728353 9.20727856852372 1.3039524517476382 0.8292519890722686 -0.9129637655696278
Ni 6.321547378140079 2.2940229441496762 2.4754524035407357 0.32032885776860315 -0.7913181901409727 -0.13211870704583698
Ni 4.300793624829549 6.8270899332421235 10.168473165171697 -0.18866035088630734 1.505725942977136 -0.08029940838170041
Ni 8.523082284746973 7.537266584368287 13.513435700498029 -1.227276756161454 -1.1912172914347356 0.5872049950347048
Ni 7.803644117982323 3.694754545132618 7.777647406781779 0.1854089338285452 0.37881528404027015 -0.08515802202558237
Ni 3.1014909090664244 8.514156726048313 12.204630998169183 1.0229259911230835 -0.27941412183211234 0.4867360536836649
Ni 9.148561467367436 4.855985167687722 10.02109339562802 -0.04020871100840172 -0.060738712640953464 0.12664045754008513
Ni 8.714641299869697 2.31205565989285 5.550826746498354 -0.44779001143777075 0.7731008958019976 0.5570374703123891
Ni 3.842339520807109 2.983978619465141 11.239490269465826 0.2257433717815338 -1.182202489530635 0.7080566138071548
Ni 1.1991120374999786 3.624448745535744 12.401898557293785 -0.6163404789480805 -0.23041249512242898 0.6319650728592148
Ni 2.9868751130814917 8.423121475272353 7.935764178523997 0.974838134476921 -0.6585315104938336 -0.6083512900950168
Ni 5.7271124327431355 8.066099127325941 3.3004963643608374 -0.48239140356172405 -0.1435169215804496 0.8345548893424207
Ni 3.264911260499271 8.408103292070335 3.7810273792885902 -0.5673691912557003 -0.37050265040951674 -0.6685611268156938
Ni 3.5676992624567743 4.133441669208991 8.951219452921034 -0.2577497494848013 -0.8760905466923622 0.507880548971764
Ni 7.609787883784563 6.485340006181922 11.41013914305534 0.35319784058248205 -0.5896210606753651 -1.3009015807364563
Ni 7.8317827816721985 9.010356046256236 2.4235170926103216 -0.7007209993776901 0.09796931485763773 -0.8433490905952831
Ni 4.732652651101859 0.3148461321221226 1.3965139794005124 -0.4202889778040245 0.7658046192509005 -0.43598479127272655
Ni 6.4213719888553085 5.7453721464186245 0.03433298326691189 -0.9832685246324615 1.0064583324853633 1.4824042375320599
Ni 8.2851067324243 -0.05945439044044546 11.363333985395265 -0.5404600255696821 0.1430060433823021 0.17816613622320285
Ni 0.0962897989132076 4.753536460874921 5.684623867763978 0.6738439724811879 0.1112529193404213 0.08664077721869595
Ni 7.52001474151228 6.533173010479525 2.5454740017263497 -0.20229593939187093 -0.7809142211988293 -0.17493605932167935
P 8.619819723582708 1.7011497445270665 3.2619838951641253 -1.0790030366223093 1.0478818897374726 1.0520851291855429
P 1.8887317558756154 3.4723964505532763 1.3463065767308862 0.1656330367531986 0.3198254357696234 0.8336686300827256
P 4.865991236544207 1.119117966151863 8.09840002510276 -0.6054947944828282 0.01802189049871735 0.4508959040566041
P 8.619474686725587 1.8414435466155719 12.471774876802717 0.8411268861329837 0.5049222376743885 0.45645565753256867
P 6.42892648004278 7.907364013216094 0.911160620398641 0.8540983586919871 0.07977207512332067 1.6761062646073326
P 2.1662594279250076 3.255359187507419 5.83672065434118 -1.593854617595268 0.4173568917588941 0.46995754867374545
P 7.1873628915792995 4.042597096696176 5.542427823002667 -1.7563403669687367 -0.8792720297441372 0.8618150106099545
P 2.5864870801454534 8.511886746725153 9.960932587622207 -0.02821605742289979 -0.18914603227347426 2.1642911349223826
