# total energy = -381165.398638208 ev
CRYSTAL
PRIMVEC
9.23643346337249 0.00000000000000 0.00000000000000
0.00000000000000 9.23643346337249 0.00000000000000
0.00000000000000 0.00000000000000 13.51845400665318
PRIMCOORD
 96 1
Ni 6.585891212000269 5.593962895916682 13.425298512226705 0.8114748675945057 1.444358338502932 -0.6299696396957409
Ni 5.4862014248361906 4.481065008671596 11.516276388917099 -0.9866035025429654 0.9134584458178591 1.2871940013423766
Ni 6.106889764307265 3.5172339236694223 9.691379703046517 -1.135019146976613 -0.1807776057041209 -0.8291452882910751
Ni 2.553957024684633 0.9852873203085923 12.351432869829399 0.4042396376506458 0.9211599282271749 -0.3372963388608772
Ni 2.669283134902428 6.143392149985683 3.3547391942252744 -1.687034481484062 -3.024006839801147 0.30307135623973613
Ni 4.541748377575241 6.915234725698485 12.891102908132254 0.15263405339036937 -0.5571796523172081 1.1835600319997939
Ni 3.363539668181346 3.6248753211128135 11.30275221099215 1.170446120325655 -1.3130515858354292 1.3705769337454072
Ni 8.845122876205997 6.673600385685051 6.992555682487387 -1.3120324005422952 -1.4088169510632125 1.5102040333531475
Ni 5.459591259568093 8.544449252473825 8.893209596934483 0.9576613655873184 -0.02743984137850758 0.6472279125555562
Ni 6.42499253828619 6.418628635519887 8.808651894401896 1.210590810865341 -0.7374574355667751 -0.4936417796645627
Ni 2.119281221948796 4.102906943275395 4.950822633594621 0.3897938945389609 0.8806920500201155 0.5435862299034896
Ni 7.352967787963562 8.658122041073089 7.043114996496773 -1.3796611554348626 -0.9097568285965557 0.20401189364171318
Ni 1.367684908737788 7.9584991398591605 10.934009766031318 -0.17777764253553255 0.24715320491587756 -0.3840667622471966
Ni -0.04680378009824071 8.12338795289841 12.776344838582277 -0.6121657787451006 -0.29908254679531715 2.1618305891970317
Ni 5.100709631143262 4.340717399768873 7.539850396746094 -0.6608845841070425 -0.44895934915552355 -0.8590119939435207
Ni 3.538376120232656 2.529332692645498 0.9813285848577395 1.0249988144917124 0.2631413528140178 0.007699939747418997
Ni 8.878069234939527 0.936509714345099 7.590815190191533 -0.14563885301945884 2.064566527936535 2.9700625243742076
Ni 3.282416071669822 6.823350684016072 10.968225210744661 0.3150267288293994 -0.5687863833182011 -0.8774455180583599
Ni 7.512989000483449 5.184687285644319 10.93415847261265 1.80016379191159 0.035889514807757546 -0.4786645895294401
Ni 4.058054821601711 5.45685727521566 5.333732844089898 0.5217886744124239 0.20803901252323526 -0.8938108467902607
Ni 7.28189343123395 1.7500547878661146 9.266697721490853 0.5846624311185092 -1.3985528501330429 -1.3211377052776732
Ni 2.9094119362353004 2.334453179632102 3.7138979156587975 0.7103919468085508 0.22094260795878076 -0.25686091912194475
Ni 6.72925913469774 8.245595206165401 12.511478097076706 -0.7472661941270808 -0.46618291212266166 1.5418609981367961
Ni 6.692073252931214 2.801050096969308 12.981461090980135 1.3503786044206614 1.271021248237256 -0.44967128762088365
P 3.84907127444587 0.5983999014952165 4.754251005941476 0.8156541957831759 0.16849775989550336 0.7206511626427137
Ni 5.735326512517943 6.810613642049842 10.865795932794775 -0.610725189643832 0.4100863262394099 0.48654990581478785
P 1.6733277337591768 0.9984861839559757 8.341494325543769 1.1435631798918822 2.5816889072215408 -0.5571236022682922
Ni 4.650147162575726 1.6316898909863256 7.960044395204301 1.1942113410660529 0.12252823514392445 0.6757609869982426
P 0.860075455184013 7.516535790994712 3.456263301680099 0.1426895405831478 0.505668886032426 0.49672993167158325
P 1.3654496918010022 3.793514126203035 2.9328687830644777 0.3183318819432324 -0.31767702196805286 -0.6188881850705986
P 8.88059078131863 5.352799614018025 9.152831891428868 -0.6018170885209249 -0.1967958355092482 -0.4299501550428724
Ni 5.143234171543929 2.762063110646281 5.67073428490501 -0.7803429220763916 -0.5018392278736906 0.5278626485206458
Ni 4.90239416482208 8.339345007439677 3.1550179427066594 -0.903608806717289 0.13750593949967932 0.6803959146670928
Ni 7.153876461218041 2.187944869502784 6.6079829139399555 0.29335901404797865 -0.2821860281502947 0.4854854691060156
Ni 1.7657844343262223 5.551807812860938 8.665991482519955 -1.5487155591647845 2.3450723401709292 0.5890839572249725
Ni 7.045486912651181 2.813353026555253 4.330068715444822 -0.12144991447808118 0.21600197612405378 -1.2826650031237716
Ni 7.345744896870313 4.338953240946864 7.8529784275756285 1.9259678695933091 -0.3356971126945574 1.9750849388349339
Ni 9.121652462447432 0.7625488762012581 10.598792804192184 0.0896898484576649 -1.6872044314030235 -0.5617405322150132
Ni 8.800612502576366 4.7723174701082245 2.3002192620515127 2.039107464433482 -2.0750931384994713 -1.515281704986371
Ni 4.777628419441496 1.7895405416047878 12.565592514387616 -0.9865477096043654 0.7395809096676812 0.16596625172290128
Ni 5.656077912031904 6.717334898890343 1.7907218814651797 0.13246066376628798 -1.2033259017728115 -0.5090205761134782
Ni 0.07736621531365498 3.135168846850657 9.063379802719412 0.2533755316765056 0.30591088257106025 -1.3276811628231457
Ni 3.3599374590683446 -0.027749941177185954 9.412710035134612 -1.2497255720832736 0.9365340966903999 0.7909150411652831
Ni 0.19931207750911265 8.699196461394932 6.133200669125975 2.2683411087564616 -1.5905715759686219 -2.269850860532768
Ni 7.138211469793295 5.392691770836113 3.2845247494659717 -2.640373822657259 0.5101991698026117 1.457589235370909
Ni 1.086490923516696 3.0646394397048073 12.971917084117404 -0.1850968019047651 -0.7522808737328528 -1.5941762626007447
Ni 7.518752535064252 7.7938135283596175 4.773136741770591 -0.09608083958567325 -0.3529900954470502 -0.40875320925028313
Ni 8.122381181633495 7.5808213690113595 10.927926650847157 0.2153913391232484 -1.3816486181785366 -2.0438478073319444
Ni 8.793269537846017 5.562762223137913 13.03027564267812 1.956138479639418 -0.6811831864550785 -0.7726134146426178
Ni 2.7820230437057605 3.505559071569847 8.830416626591326 0.2451377171477456 -0.8678861565046988 -2.018103608488305
Ni 5.005685202029 8.934494607942932 0.6140011615279635 0.49459103095170953 0.3597461832239611 -0.01762825460472448
Ni 4.938951969102237 3.422070948050814 3.5705078255206315 0.5407369333801526 0.7771030749828552 0.280375200193801
Ni 1.0331689922106466 1.8677361886577954 6.0192535584481055 1.7357784836569845 0.17997027931147713 0.30048276957695347
Ni 8.63141951146876 2.7221524809609465 1.050984225382846 -0.08874393960462781 1.8014064060694395 -1.989076110907703
Ni 2.2750167292675725 4.537564273143985 0.6072382448291433 0.1035699488738668 1.7095347194691075 0.5784812420084617
Ni 6.523942451690263 1.0279411707799824 11.358976229742572 1.3979974918502052 0.37510646773011525 -0.5844325744958903
P 3.098103038721231 0.291810342027462 1.328564917770589 -0.4435448630081716 0.1039198760141178 -0.0507800587663448
Ni 2.2923350423108504 8.122288817297264 13.138207064137276 0.5879750404315099 -0.7599077941504913 0.6270349825474492
P 1.6946269496940025 6.075107196210242 12.415361921508197 0.11361139227026884 0.19757925064249196 0.6814613798171296
Ni 2.643088609147369 8.966896017092703 6.552962402490621 -0.3003148765405215 1.7473679882667972 0.3717514352149533
P 5.010100217300833 4.334916919453578 0.07894010360302806 -2.405563969798083 -1.863205184543791 1.1960465945025789
P 3.012924647849174 5.03724609571907 7.105502487403877 -0.019863828803462564 -0.380334548898274 -0.45326183318561936
P 0.4734965332536482 0.9331753618071665 12.741454210571087 -1.1873241270279165 1.0965258759974212 0.4689044248188828
Ni 6.1203749573969635 0.5137747729971819 4.447503503458767 0.7006148128171288 0.890584626543479 1.037421356525781
Ni 7.069233783496123 8.480782515509924 2.19830352981107 -0.5430036179271422 0.9333520994179925 0.9194745701049519
Ni 1.473793058199748 4.638139798865719 10.81623692454677 -1.9219700612878254 0.5201763356199816 0.04952561753395342
Ni 4.078448867041475 5.038058901877901 9.494902287016329 1.5750410844331906 2.734037825271324 1.0261720088642068
Ni 3.285297838960223 7.224544414868237 1.599814034909709 0.648358940836206 1.0799610296602047 -1.091674718552707
Ni 7.240874429513845 4.822046428734894 5.797375949954443 -0.43377595654686585 0.07279332981264237 -2.2609196194814096
Ni 8.689405841754466 1.6726257648038225 2.9100908141065966 -0.5794739449390343 -0.8508459131929604 2.469130124585502
Ni 6.558791515750148 3.6762391284907694 1.618577849814999 -0.44184947758361964 0.1931898633255447 0.8529159083481117
Ni 5.865467862267162 6.658000049295667 6.541363289146757 0.06331341534666515 -0.10770556830879516 0.5736766215309669
Ni 5.125841967031667 8.810670978791903 6.629936993018658 -1.6615409651986481 1.1183612267049579 -1.327372116223159
Ni 1.4058129067338683 1.6988757091606201 1.5776438232842267 0.8327345483042303 0.15692445323560716 0.11392789506942315
Ni 3.0522164364817628 2.6424512952273767 6.686538781904264 -0.14615564475487733 0.42412274972781794 -0.281376901985438
Ni 1.7011109260974058 0.472159097665026 3.719616191714847 -1.7450550238629043 -1.4417774651496331 -0.19206140614805634
Ni 0.5141645504960759 4.313312901209191 6.864319808994612 0.4860325998587371 0.5706566037577205 0.9723462212930026
Ni -0.05952789105739774 9.005190270893998 1.6323262812629558 2.0464811311897337 -1.4775862473181263 0.36857817969329426
Ni 8.598648644974068 2.8360561804007873 11.147208821492734 -0.9019378467727692 1.1401279289580881 1.7658938149851264
Ni 0.9793298206217047 8.386977295633908 8.665518577118453 -0.851262946125721 -2.485171237208765 -0.3213285026777111
Ni 4.167229467026534 4.834718815665762 2.165210311782931 0.015660075134760126 0.4976627278984978 -1.6017594742646415
Ni 4.64572291087027 8.971431106001635 11.478519695552665 -1.2813403707750772 -0.9796453260575773 -0.2957066883445488
Ni 9.092123584154441 5.928331029505854 4.6498479021263375 -0.3431373710226865 0.13187342380425032 -0.9868313022830553
Ni 1.9371295144680065 2.2127539302143804 10.22811625003068 -1.6467036430754995 -3.125132955120211 1.6639056087760826
Ni 3.294931439229097 7.3700090079981475 8.008629883348435 0.9426607784134282 -1.8173894117612572 0.03366731034545815
Ni 5.481047494874511 1.5944947727861765 2.370068867682704 0.296114979526561 -0.9944134855056875 -0.8276339938528714
Ni 7.525005600627078 0.8119351631405124 0.4657711801713029 -0.6913488141341707 -0.07554620996743118 -0.9501018080725057
Ni 1.643180014413439 6.468514613518151 5.818045241116175 1.511728954638106 -0.10668766856724206 1.6823920976160445
P 7.733647399738865 8.640120231941703 9.1672425751676 0.0012498132467010732 1.080275989797462 -0.4213793826547259
Ni 2.911176095057309 7.8748262876676645 4.536658179005561 1.0194560302966122 0.9658595851273948 0.6938106454111018
P 8.624399821915219 1.1120758446526315 5.084898704067271 -2.5918599342172715 0.3016852745254869 -1.3311480383258236
Ni 9.151957201164763 3.520512857605616 4.893815365272962 -1.0011461762438307 -0.2952842560951495 -2.2827277164954367
P 5.755360337046407 6.443299149727138 4.425536493372992 -0.5214312910730052 1.0994985854725 -0.5794860291238924
P 8.045764964730035 6.865524239939061 1.1462081614633668 -1.8191842988781506 0.18676647629770418 -0.4740977960943641
P 4.499999697598913 1.8955470902968936 10.17917977740887 0.11064845298720298 -0.4066922129561964 0.8272190178026398
Ni 0.7943582299557883 6.488788585320814 1.499994049458343 2.4740746130749716 0.8378878103703956 -0.2963546063411928
