# total energy = -340891.14363597234 ev
CRYSTAL
PRIMVEC
9.07001345563769 0.00000000000000 0.00000000000000
0.00000000000000 9.07001345563769 0.00000000000000
0.00000000000000 0.00000000000000 13.27488150333465
PRIMCOORD
 96 1
Ni 6.480216059527343 1.8308637969618287 11.611963323782515 0.486522137900646 0.24158188147568715 -1.18769513721409
Ni 4.577508687913233 0.27810474510645344 6.034043969602463 0.16904026266253466 -0.6378230743018886 -0.26965678533503235
Ni 2.6769236993907337 1.5520878708776868 4.898789416912788 -1.4694175954644049 -0.7075022839655816 -0.5913233880784525
Ni 3.4520016784224987 4.550688658845339 5.083376883795557 0.3469148357872477 -0.9813605089764711 -1.0164126154845978
Ni 5.230177768635798 4.4402703180024075 2.8582940325872053 -0.5402718208182761 0.5506014848790581 -0.6397529443347498
Ni 7.3321170504647775 6.022098762202254 2.644462122104973 -0.4119709448566324 -0.42702835341038714 -0.1246823053724498
Ni 5.195348917901705 4.54163678565976 11.584643536986638 0.016781590333713035 0.856353473274751 0.1092096636581474
Ni 5.7432049259463565 8.04960044560032 12.429337495425816 -0.251542849343141 -0.10127112553736108 0.8078403561657119
Ni 1.8118711892958932 6.456561465070437 0.4347175702394403 0.3795650177221011 0.4697544315240038 0.018693462644445224
Ni 2.8088107615064772 1.9519575433552883 0.3671341807928381 0.2737116721306963 -1.4000991115742403 0.861850234723264
Ni 0.3360058954492418 0.35634721407980224 4.71402961977899 0.9211342171955619 -0.8411083741902223 0.10836994136567141
Ni 8.684646490651962 2.502516415337117 1.4611129173573274 -0.46982925062599734 -2.5069284263801985 -0.3168732951198349
Ni 6.660310241864885 0.8303860125972417 4.90014356988534 -0.22552585645408899 -0.6910580223666292 -1.4443100017634998
Ni 0.9975291230693646 7.349223095382617 2.6322493493150096 -1.5416134009023645 0.2651578690234143 -0.11032115155477129
Ni 7.563393317357657 3.9654460563408085 3.9493830629423505 0.3109062789031226 -1.1755587589618723 -0.6557601183962836
Ni 7.669322001660647 3.635651305939147 12.746952125085079 -0.18898533832589387 0.352088152458071 -0.6846852860710659
Ni 7.691271433633695 9.024445465626464 6.812018910854142 1.0551959069003827 -1.609548631291757 0.5359001741131415
Ni 6.966758778258851 0.7702382199818399 0.5463159198012534 -0.16953005781475966 -0.39932034597215743 -0.5566903713856154
Ni 2.0913817864502073 6.575333288081623 9.15540647939326 -0.613468299606608 -0.5126615153001751 -0.11407367661866805
Ni -0.09210417016525385 4.692325985163987 1.3040883136245156 0.9043947929536941 2.4851565819207457 0.08292604737127009
Ni 6.290063232537688 1.8869618286780707 7.008898059641818 0.1648917877117999 0.9687587610520606 0.5900710037285902
Ni 3.330499781434499 4.421640510864952 0.23414329806919335 0.1890511585668228 -0.30848995615214614 0.8909510087439623
Ni 5.978553628771425 5.472664571858714 5.022020058418995 -0.6943158671822944 0.9802731894495632 -0.5816652961633982
Ni 5.50813739353086 2.8782507826575765 9.30773644428754 -0.6786424223110957 0.07511452174665129 0.04363290619860228
P 0.2411725583084961 5.837632833496526 12.207209243858564 0.5142478859506886 -1.6534291347247914 0.4212811665139648
P 4.073596893880739 6.320130326335479 12.735323461145967 0.19273194985251968 -0.02198601735278794 -1.0591425502529568
P 2.418047382293728 8.502157824826451 1.4585642436447546 0.31378360045091763 -0.21764285416158646 -2.277669842356555
P 6.369208167825631 7.609069903893306 5.672317330686621 -0.42762433512317327 0.41880210884585295 0.9778656084493352
P 4.7503922097472335 1.1603630702644647 12.643739909739082 -0.08012097382230718 -1.8023551431359541 0.9793275377068422
P 4.094793514757192 6.063403602369718 8.34458992730224 0.02619105657307102 0.45846574598406203 -1.1765290932949417
P 4.584483528073264 1.046643244612364 3.905523200053065 0.15320920916754904 -0.14574941045539416 -0.6248744845610206
P 0.14477192288471616 5.565124286541878 3.6664820948493895 0.8611030721445945 -0.5421286715213566 -0.5590519296392565
Ni 1.5402333636095982 1.0882836752686722 2.4953855709498396 -0.43790694799610397 0.5425017385900592 -0.07056829713686555
Ni 1.9874212950142223 6.449704535082162 4.8467257270732444 -0.21633827641755002 1.1266075258741501 0.18227887283999578
Ni 5.956812807102252 5.44579919272476 9.258738418913655 0.505839093061703 0.20565739966493612 -0.5351026179125107
Ni 8.629110799754864 2.411589532886781 10.085139974706864 0.10268780337922959 -0.9769690647769949 0.41904893474933635
Ni 2.5073235223394787 5.084794526860593 7.054245404697873 -1.10681260263541 0.8658632125373991 1.1153437800348727
Ni 0.6368736527138606 0.031112866321135843 9.491208299545235 -0.18270130508939503 0.4857199537143247 -1.1949340781646904
Ni 2.045696129901345 1.1515560874356092 11.299326317374 -1.308597149608501 0.5390996548870457 0.10356146423343456
Ni 4.202989702363182 6.685715348871707 1.6806661921736918 0.07173043576576678 0.8669538744984167 -1.1787222442915184
Ni 5.774151811025712 7.783205087550564 8.190628267031121 -0.8618885441603671 -0.2120926137673186 -0.636776378204929
Ni 5.220055633891202 2.9998433797776967 4.706569533912117 0.3810621710929179 -0.5802362770263556 1.418021500380616
Ni 0.6917426976398763 7.2988301019767245 6.705381858519295 -0.384085531300274 0.3081415716737919 0.8050000585034395
Ni 4.963474030136833 4.288737607269463 7.1447532525378135 0.7382696470554253 0.6461945861950356 0.29147465254107224
Ni 8.155066559229498 7.186588688478181 8.993493138539181 -0.06950154643524804 0.6930825089958258 0.7079303726419356
Ni 4.483779171380389 0.6036121002628012 10.392506396437884 -0.5587703938430957 -0.7488073133619555 0.5198040398822275
Ni 8.27639612596647 7.316162897224864 4.518955403620502 -0.39251566434549817 0.03203311717614483 1.0948315190141338
Ni 7.284943911749147 6.093670236458174 6.994694418951821 0.2892395925629664 -0.04763919914451795 -0.304732545992243
Ni 2.2528915117163546 5.273196841300331 2.8093495202912706 -0.5414972085849448 -1.0550740366105378 -1.424453629159205
Ni 2.422727509111122 5.3745270289048355 11.433894475395212 -0.611298802759115 0.2594430780268241 -0.20743068951527505
Ni 0.7933105195905347 3.0402684286635964 3.52393686020822 0.1673605609672666 1.2474959114218065 1.997577463510495
Ni 3.3724758025796513 2.914712235769831 3.0814317766249535 -0.09975905976820884 -0.1974931186865889 -1.1103661243146232
Ni 1.0200227558351336 3.416719327027805 8.057361655905831 0.3662821845702659 -0.4006372650113681 0.4574563308829412
Ni 3.6491746956382443 2.4131405051460337 6.742285928276295 -0.032847385547324075 0.7657953632795198 1.4320280990723533
Ni 4.07020470893945 6.948573401768783 6.180027646252303 0.6694224463747246 -0.6648980761418097 -0.17781080976631314
Ni 1.0654635220272715 7.69287682597222 11.610158391153327 0.2655677028673233 0.06145373643010707 0.09934099839418375
P 0.21404233478875104 5.6114267039891566 8.084031122754407 1.0079557429664963 0.377005484525041 -1.5961472702841866
P 8.427965116752262 1.5276169752317013 8.104899409152585 -0.2720592241289379 0.234245495715274 0.1117332014109495
P 1.8250680585193584 3.373682114336848 10.477332788001824 -0.0020998199518221902 -0.551886779349385 -1.0499809383583467
P 4.01370759664188 6.120073044918317 3.6963242523195237 -0.29072800418303474 -0.2966693093681342 1.7752654860080135
P 6.9883454097034186 3.961183150131167 10.451699116662061 0.021217000397247332 -1.255685132100818 0.16471978091030987
P 6.5883306170144245 7.846132839215445 10.447955015208144 -2.015126785248168 -1.1142297210350876 -1.78461993063972
P 2.3663845870381555 8.579624807670173 5.859014482642503 -0.7804015432284689 -0.5932658565168041 -1.197172480576906
P 6.8444043000289225 3.9517775464303195 1.5863879398415208 1.0863913586665805 0.1790937902437948 -0.30156186157374515
Ni 5.284053647115099 2.849253950418801 0.5623907042168873 -0.49417862600463924 0.7309160349038315 -0.5303507050498221
Ni 1.224687603963994 0.9837427029871192 7.1796002432983315 0.4462159820824315 0.057346656240268974 -0.8719644403391307
Ni 6.6842550767445745 0.6635186305267635 9.295522764496257 0.993326937309728 0.3282859078321507 -0.16875101355689
Ni 2.7197069517117543 1.8748080109739858 9.01511786403924 0.21538568269629355 -0.6025004877411946 0.21648611484932395
Ni 6.089833620869498 1.9456085341068858 2.5824159757242984 1.5457526198817184 0.6220257022583159 0.8544963654613542
Ni 4.49723000097379 7.037160220810422 10.365425150989482 -0.9383824627530484 0.056234139902380575 0.7800613862802308
Ni 8.19310619464064 7.023192400463936 0.3774739958545222 0.8866438967281762 0.9647853782266093 -0.1698553023646623
Ni 7.801063943564999 3.9792778264891138 8.066467949170683 -1.5311533819113048 -1.3134830169458926 -0.04642358156986198
Ni 3.202277004656404 8.530338355876145 12.483313144050449 0.8708843199010743 -0.7271745655835282 1.158443182327508
Ni -0.04074431335096244 4.714012386753887 9.985936705200574 1.4273908574106577 1.1906578193868396 2.147151389918302
Ni 8.611950334757754 2.2542701537245793 5.929477601283916 -0.24163510331112578 1.1815098343389847 -0.21011363566407684
Ni 3.826692994223578 2.77880715780117 11.620857378738204 -0.8370396034374875 0.32420299601202873 -1.119243372199595
Ni 1.1096163463433046 3.208898114301167 12.460892071390376 -0.28221636716759785 1.1170934157361276 0.768826951016992
Ni 3.079414605686604 8.599633256815853 7.84614463023262 0.38017488339195815 -0.535707084265729 1.8569679453848276
Ni 5.485471430514063 7.673965848425192 3.6353265994661568 0.4447028878720148 0.9143069098610835 0.4572663263593222
Ni 2.903719379756883 8.532868889562295 3.489129777505835 1.6447578322030383 -0.4583773000353138 2.093250011914156
Ni 3.4073772134194407 4.219442706329756 9.37843810427643 1.011911899400767 0.4536372142471671 -0.4555930524219573
Ni 7.30329254847703 5.88984889955803 11.32793404604598 0.27977561893658914 1.3822857375419033 0.6022359212258982
Ni 0.5004851430409993 0.15989435591308973 0.5272289839979131 -0.05870111338563439 -0.04277724306652633 -1.0726992058914688
Ni 4.64847247128395 0.2709212946425466 1.7710552228405558 -0.6637120262535086 -0.7418488797662515 -1.1129336279314834
Ni 6.178402299884711 5.695215486041645 0.2849426280669829 -0.6983869519278746 -0.16583718234420472 0.7294391932479889
Ni 8.173360775878109 8.830682773378431 11.21607992211159 0.17710504194854013 0.8824486276999061 1.4212382075457006
Ni 0.1598589828615629 4.767334994427257 5.661524014964337 -0.40993797358700373 0.391355582599126 1.2255145220547088
Ni 7.961585037391037 8.78758207059499 2.534041967259399 0.9983354462679129 0.4542470799170241 0.5625018358610699
P 8.13379737824735 1.6349515115825515 3.525887820050122 0.5870859529583372 0.8561611547582869 -0.27529367190583554
P 1.776625117954047 3.449271604445686 1.5981100249167142 0.12150673585794558 -0.44809083050764115 -0.7133787973510165
P 4.708706429024866 0.9891030807954132 8.239652595443323 0.18457409663207566 0.5302036379489966 -0.4278559915180051
P 8.782911013790809 1.6059728193702 12.163322170929641 -0.7694262751638878 -0.6142717693445098 2.0271639189183603
P 6.486274828352961 7.662682751989459 1.598946280134861 -2.058612624345945 0.6921635967259822 -1.9225179633714953
P 1.6640118339138108 3.251853696873216 5.959452180946946 0.9076675501676947 -0.9597264756464632 -0.4829958699149424
P 6.919349819199707 3.789569430146847 6.060951977798514 -0.44633682393101193 0.7044670966836835 -0.02706368898601146
P 2.5173549569519547 8.401553238278908 10.168585910259939 1.2819144981109922 0.5955975899737742 0.34420412172430404
