# total energy = -340892.67014086474 ev
CRYSTAL
PRIMVEC
8.99002231268817 0.00000000000000 0.00000000000000

0.00000000000000 8.99002231268817 0.00000000000000

0.00000000000000 0.00000000000000 13.15780638000465

PRIMCOORD
 96 1
Ni 6.302814703467201 1.9541611377892503 11.273766599728532 0.44266605994764413 0.17677825473674072 -0.8288694089218692
Ni 4.6899687506496885 0.2534709805015714 5.819381650663528 0.22280151554439048 -0.3571169731312301 1.3126291535860297
Ni 2.949185791106874 1.6352940383907735 4.8057575403004416 -0.6355921280888408 -1.0873871469209466 0.9688592911856669
Ni 3.5308132610040595 4.098928727450459 4.827046812004903 -0.2506553045318651 1.560405851018519 -0.6130399538199378
Ni 4.996105978533652 4.4000854830045935 2.6207191459434283 -0.031027815840082042 0.23445169818880915 0.0463230514362557
Ni 7.086510903612759 6.0615944262938966 2.637903573485795 -0.21937963434703509 1.0026734115216345 -1.1497446261122457
Ni 4.970673205571396 4.486614447218705 11.596763715351422 1.3674640991480385 -0.44437532932926693 0.26341903195543664
Ni 5.4705454130724105 7.836224819630594 12.386653141829147 -0.09418156568043135 0.5360642104948316 -0.20494211876546642
Ni 1.7911450642209912 6.510762908271006 0.3329607572892263 0.039409612145874066 0.12019187370126398 0.5245289561617225
Ni 2.6664316111107964 1.6555755286003355 0.27354120518811736 0.48026330147512775 -0.1410646033852151 0.9241228675102408
Ni 0.3997781987048072 0.06466253308081492 4.774455181807235 1.4424084138654125 0.5321381359675481 0.4123069880398124
Ni 8.62812891009589 2.272902376876143 1.4979768424435493 -0.21267214041987242 0.13577584418245006 0.12004789192423194
Ni 6.81356483789799 0.8605123443142758 4.652310446421482 0.8392872618210835 -1.5138814822047348 0.9254181892828964
Ni 0.894167391631881 7.416094109540403 2.5667331632938533 0.6267251646165142 0.22547057773612136 -0.5580209172715809
Ni 7.603077582443189 3.956850415716451 3.4912787391310225 0.6496105538551199 -1.4002968294073432 1.7009958287601608
Ni 7.263452521655581 3.8859461101832875 12.528744938596539 1.235636440980059 -0.35218868259167735 -0.19559513033292766
Ni 7.9916083643035 8.86241788010981 6.8316518636748595 -0.5654002404547875 0.11481646832196354 0.4746621532382664
Ni 6.472771074217102 0.8625530793663905 0.29696470817615567 2.6968208499013944 -0.5559658345147651 -0.6403016177493682
Ni 1.8547854317712975 6.412034483855486 9.45487023580546 0.34691277890471867 0.3712179313089865 -1.8598352396302937
Ni -0.19883052423175823 4.783096391199713 1.410109263915517 0.9977032120005529 -0.06513941281181039 -0.688438325355595
Ni 6.567912479752471 1.8622741203105553 6.92019009786319 -0.5755807805322152 0.47226794197447697 -0.20966009306642602
Ni 3.0673056935286116 4.2748814430451185 0.16780415942181087 0.6489572365418371 -0.3853646551230137 1.1711819700504151
Ni 6.045547236566915 5.809747942813987 4.8007177338237215 -0.02101748279193154 -0.5977660583800029 -0.7625267198305772
Ni 5.477773390966244 2.699380042679079 8.91676885766298 0.7863528757158973 2.4482044301764287 1.626574219315476
P 0.15936252852341593 5.380312559688822 12.436232215568825 0.972958400955705 0.19901726864059918 0.06388394313815449
P 3.996613284154791 6.123068198480504 12.535731084891687 -1.21919063671921 0.6594846184357224 0.034490834688018016
P 2.4935984332389727 8.604026660427525 1.3397542487421954 0.9970362678405152 -1.0722425779700242 0.4673779608720273
P 6.47054154869761 7.778706657236632 5.7464222260426405 -0.8093004856510063 -0.012784296248861854 0.24494822684475875
P 4.5925438794612905 1.0391386925278734 12.08362915865244 -0.3734216238285246 -1.0849798230310348 1.6233467135171138
P 3.912017174725721 5.990824971094573 8.067800600927649 0.11528080955289179 -0.179422120117491 1.036081554668435
P 4.741724308777547 0.8711619246787471 3.7094485992399133 1.089384894077266 0.6785894575859732 -0.47454336827221494
P 0.13435498361386836 5.58548284761552 3.3988064712034616 0.8334711693599388 -0.8530591187941954 1.0562261479371098
Ni 1.36244686292082 0.9144740539037601 2.604008492573954 0.7779021738453828 0.9650581722720218 0.7481995045746276
Ni 1.9187854002118445 6.432405874287608 4.682890007125305 0.05125571285118269 0.17103389605379576 0.5692358121507939
Ni 6.08121964487877 5.414744344929347 8.953610867870342 -0.13812249003775567 0.43380860955701417 0.32404821560171937
Ni 8.633747674005898 2.621310689407874 10.409233018459142 -0.736259558603932 -0.80224589279707 -0.6703249035843359
Ni 2.2479730451602227 5.220425013865655 6.874335590344177 0.02529477001104676 0.020860388388776976 0.36642462368540113
Ni 0.3861583149869496 0.20001181315619818 9.288516166973544 -0.5074079802107196 0.02883697883635034 0.2679827400667191
Ni 1.392518487367179 1.4059046305063803 11.402384151138614 0.2000138282259136 -1.6975055562187154 -0.6973232865500506
Ni 4.037248184751963 6.832821465570366 1.4534115041160482 -0.15938268496811261 1.1118902742686334 0.8385987203944912
Ni 5.391109576418293 7.617587478364391 8.237102498057311 0.08389149660833294 0.1628235923288615 -1.388491609242299
Ni 5.379035976528469 2.6749361721649834 4.848309113642596 -0.487391942100109 1.1001565307714731 0.05659743677907027
Ni 0.7241579797506705 7.410870906609659 6.750007178552439 0.7041472514504196 -0.9268196976161135 0.48362424752756056
Ni 5.194192128922613 4.803000300474523 6.620324309505019 -0.3373210214512255 -0.9179421926208255 1.564112610446145
Ni 8.25483621595952 7.157478139301715 9.25876638532395 -0.8678769005333182 -0.27767322788160564 -0.4903636231339232
Ni 4.600742779758773 0.1207108268359195 10.008590878615532 -1.6870967021805654 0.019505674133095438 1.2916682350636466
Ni 8.353915251243025 7.07535428599305 4.63404811521062 -1.1214038701860236 -0.2149722493079588 0.6840237412276671
Ni 7.405962354457877 6.162111865138363 6.928664092841707 -0.36921838438045446 0.049596065760572655 0.22860243849688372
Ni 2.184935009101069 5.121858409850743 2.7079556249090886 0.45704032639144515 0.06452491915626307 -1.2837669779386987
Ni 2.2533041283580375 5.225234675772621 11.329437312548885 -0.14944665680132327 -0.5883283100058706 0.9498778649871574
Ni 1.3256057517156843 3.156747424953671 3.9009873164198203 -1.1029569763347455 0.22514841851001224 -0.44181605324252293
Ni 3.633937806302769 2.454851437315562 2.701666205338783 -0.37068417029270356 0.6017019030992992 -0.7471497231538745
Ni 1.1391077400147227 3.2497761752588796 8.093550721675543 -0.7396855535663455 0.48140435705810636 -0.39547577541508666
Ni 3.7167898514141724 3.010183092113914 7.130280624970603 0.5484852098670038 -0.936805862294548 0.7688794015214823
Ni 4.030424757859651 6.897747406303283 6.060788021297532 0.19614714618165574 -0.10657222603530032 -0.8222441902958678
Ni 0.6542506676856983 7.325834286090045 11.377199502790623 0.5489171551980999 -0.011258603632954806 0.5125776973371171
P 0.2907400167660933 5.640690574289687 7.981735521861947 0.08334205186276615 -0.8192020610354342 -0.1359005426857724
P 8.451861543722272 1.6794979778235828 8.081735135424466 -0.4677767389723428 0.411420214559485 0.09508248022814593
P 1.862867461779452 3.3978238617708794 10.119063868106307 -0.23000111861662323 -0.7369241887711244 0.5291975652819854
P 3.974327018982138 6.065496095953005 3.5898570301748673 0.22011882650590475 0.6621423677735435 1.2533703679247126
P 6.75171348477663 3.924522295683833 10.31281233275674 0.7019322460769718 0.10349590110282175 0.165213946937909
P 6.337857810221133 7.6267842711322915 10.341049093660647 -0.8948179478985364 -0.20247925904727068 -1.581523863944057
P 2.419853280672909 8.46944602725503 5.804197503073125 0.00660387846976282 -0.041221725653948355 0.12193122498987387
P 6.791458373170458 3.9181753399710892 1.489305965977626 -0.9599126235153405 -0.2182159530562371 -0.28821063707781974
Ni 5.117165618233106 2.812393612459401 0.41997338470071177 -0.4809569851080427 0.6890972990958326 -0.06867159433478495
Ni 1.3762195770170298 0.8664223849453778 7.115636777717786 -0.3548096651542922 0.8405288475376684 -1.45798698502996
Ni 6.709730080841056 0.3978750109932096 9.07082098003977 1.9447356371191153 1.1955881668089214 -0.23119102515966639
Ni 2.546504714215601 1.4267704721625836 8.989400146471525 1.6415028156008507 0.6419165276449719 1.3649364476301784
Ni 6.331942375576679 1.9502145180188613 2.5798774748343676 0.36142768469144204 0.7365146120375315 -0.4671033670544019
Ni 4.322070069866924 6.49644180281718 10.377798506638772 -0.14753349893901044 1.616144796452036 -0.03643818822237596
Ni 8.193182643327791 7.1402712367037084 0.3986050008003977 -0.018973969999341516 0.2923364863207352 0.6566967712779399
Ni 7.673927947842816 3.811643576237351 8.1417875850924 0.4372101790393954 0.10319971001864163 -0.6084484777945134
Ni 2.9667972447064015 8.380633597387892 12.264009460208184 0.5948213739293821 -0.12059605111821811 -0.1313535467450383
Ni 0.07159384024019991 4.923763269439527 10.140615648460642 -0.29261776500657993 -0.35248667344807033 -0.20324467645838545
Ni 8.687445076941056 2.3466655094867184 5.797434309329927 0.5311572601115175 0.14390875770222958 0.2461288774164213
Ni 3.4897558293608544 2.6913699328489726 11.403475539840494 -0.1689415323011413 0.4593972566593959 -0.5556040802999722
Ni 0.8063034091127511 3.230978038721559 12.722756810899075 0.28725727202561496 1.2617331380671108 -0.11245773828179986
Ni 2.8495313943989857 8.097690626924438 8.087511224723954 0.9851377166307161 0.31569572987196604 -0.49675564270319605
Ni 5.682269427223741 7.791445518773401 3.5794366953779244 -0.7905543153917546 0.64185687805163 -0.47140148020912365
Ni 3.1929862046676543 8.39118788351645 3.767685064412131 -0.3792965945520629 -1.1471591247732567 -1.1167236911015348
Ni 3.896419486111541 4.311066282625566 9.574699141458064 -1.4882285575233207 -0.4085017553611094 -1.6526032963893862
Ni 7.39599241977596 6.170265815324565 11.507422672175629 -1.311744179877915 -0.5333506682184104 -0.7030031105436473
Ni 0.6418902860859079 9.06005452938597 0.4528112389952455 -1.127650879537 -0.33647795672463987 -0.9157210165997908
Ni 4.64799433673637 0.6045097735454116 1.4388188999900902 -2.248240224241528 -2.0555699808648793 1.1589059808965394
Ni 5.907927975871889 5.753362523224281 0.36379653362734626 0.8665345275728109 -0.6211792950976205 0.9088407445401897
Ni 7.854870125789562 8.82392260480957 11.283819242615206 0.18840349768049489 0.6354766855568991 0.7332053451586404
Ni 0.09728103083230197 4.761951858853573 5.71810635294288 -0.11658075931123793 0.06352347447494221 -0.40317545805218946
Ni 7.946217741932897 -0.24896068633573035 2.7278109880637156 -0.4556560444494088 0.25814955602638123 -0.9458659156142871
P 8.547659220882332 1.7149276555345245 3.6652644378560675 -0.6359153157562144 0.30510124218557133 -0.6835848539180357
P 1.8623999806221394 3.2522843914683066 1.6637654388755623 -0.9067036435925286 -0.8112653226868609 -0.5736943621427797
P 4.779401492052493 1.1102317885284134 8.00514374181215 -1.86417089089117 -2.981689567090174 -1.3886569311755697
P 8.346093931880294 1.5543388879753886 12.53733670286661 0.05465548256135103 0.7166111882453852 -0.8579138757833354
P 6.357869599763016 7.863455597044053 1.4145692139567245 -0.46364908995721443 -0.34521765059048287 -0.38116912898442745
P 1.9523091932045118 3.0928912968692206 6.03102565361678 -1.5368290921398435 0.6858158001310835 -0.12279331587985301
P 6.964165690730697 3.8893083785070357 5.759697791908093 0.6040657753457854 0.40994054469016494 0.4218447523269186
P 2.1388251849499853 8.49735105633769 10.254352016030348 1.1900831778302923 0.2212025464883868 -0.5935630760422488
