# total energy = -381163.2878775566 ev
CRYSTAL
PRIMVEC
9.33812082719269 0.00000000000000 0.00000000000000

0.00000000000000 9.33812082719269 0.00000000000000

0.00000000000000 0.00000000000000 13.66728374231478

PRIMCOORD
 96 1
Ni 3.0062585959905723 0.8450877968806402 2.39985223408623 -0.8938129036727898 -1.9216949532495677 0.9222043103312891
Ni 8.9077175167667 1.4598284316388024 4.2831354978537455 1.2744349019044956 -0.003328035931968462 0.4264046037834592
Ni 6.343674971493758 0.6199027479610658 8.605619035510449 0.20165007827775594 -0.06310464176996873 1.064318438026941
Ni 5.4409401532030515 4.271209783723086 5.889273606885989 -2.3400080382741444 2.0405439397696923 -1.641166515307354
Ni 2.9361012940849736 7.37223163004482 8.719931641829813 0.8500905230841745 -0.10551447419474731 -0.15341001232444545
Ni 8.988725715093743 1.1410716766078388 0.8348055920186336 -1.4417237290935623 -2.532447653697225 0.38934960791269074
Ni 0.9452979731004667 7.816483391106577 9.913577872604924 -1.0176194913085055 0.9238343897355444 0.1623710781724752
Ni 3.4060328874694235 3.9481855074661327 10.158414063029907 0.7928359123370797 -0.4405734390846735 0.05861883808447324
Ni 0.7700233124711954 6.890963557955007 7.636129726549919 -0.1831669318719039 -0.5205380898347745 0.23419278810046762
Ni 5.336530624039401 7.942650741838182 6.963904553684386 -0.769592625538423 1.3083665216549338 1.0134805294394673
Ni 4.064715917486095 1.728355434646577 4.743777528621971 0.9809717581784847 1.0124793418684628 -0.8068319695058557
Ni 0.8188009867030465 4.557964798619551 9.570501849458326 -0.8888691865142692 -0.529074923661192 -0.09213830999815745
Ni 0.45157191399185087 2.9603804082809746 13.57602715415874 0.32073714895061534 1.0229378181976254 -0.3678672696691987
Ni 4.464854395677886 8.701793275901231 10.847846591175815 -1.0977582057426254 -0.4803707735872695 -2.016482527945114
Ni 7.506784613294891 4.025878672893337 13.499504055273366 -0.16209751279611437 0.6411300271879347 -1.0143243654970013
Ni 0.6864144474889269 2.0121969558395216 10.916702159035674 0.4207566614690625 2.291906040560595 0.7226157425682522
Ni 4.601144269405054 7.704874170771728 12.80385327245703 -0.7027999933939058 -0.7252734919060735 0.9421930947483903
Ni 0.19647686400697176 5.993981022104582 11.199150432598602 -2.526043807053411 0.48322752630977417 0.41985780380387694
Ni 6.821571981958666 6.111230467429579 6.749533048702877 0.4906739552854904 -2.3481820894445042 1.1309809723514974
Ni 4.941481421707925 3.98313809378753 0.8681688301722773 -0.3632223146980196 -1.2927918071451283 -0.5855054958450948
Ni 2.248003183407762 0.6466228469458497 9.884739887812582 -0.27923080217671264 -1.6271959120598751 -0.10122921655583211
Ni 7.705481148626628 5.8190593424432375 1.9243672602354869 -0.0005193628385797507 1.0076266417618518 -0.5136182227864896
Ni 4.770351019109495 6.098539961201746 10.854119006947144 0.31448911115837447 0.7105076464508085 -0.3901427932379474
Ni 6.960803363751889 6.056378345588305 11.610863511577296 0.5742420071161337 -0.8310584461533881 -1.1295858917761836
P 3.628130753637768 -0.037214279189963256 7.935717187111054 0.38269944958602475 0.9424162665027899 0.258495112291258
Ni 6.4734935274756085 7.430342756060865 9.37000305680358 -3.5455918828431967 0.1575983393741802 -0.1442162616403194
P 8.62123330737473 4.068423151461407 7.970035715027103 -0.7897503314332205 0.06844662280817243 -0.4891351500434608
Ni 5.107345124149992 1.60004031612071 7.148877786622876 -1.4442022725410417 -0.5438255996078054 -1.9199167783032225
P 4.172029602232421 7.243477619839256 1.3182952030573816 0.34410487714227833 0.30893964209505503 0.057750576546907
P 3.2715639473069547 7.238556430154144 5.244041206133902 -0.7713638585062329 -0.30111191852052016 -1.4077789967170011
P 2.1347971444084837 8.515133578338205 12.191804817938369 1.650447683498964 -2.2430645935778597 -1.3332668844410394
Ni 8.125005565691842 8.553569283734642 8.152274746182288 1.3811115147281439 0.19785795822517538 -0.30363468494237383
Ni 6.571992026144617 1.9441313930031163 5.034835549603635 -0.5446470670678363 0.2084334197481765 0.134716035459368
Ni 5.796405061274199 5.936953118106513 13.623083812718928 0.8859862085395193 0.05364041103327536 1.0104137175886856
Ni 6.440380550960601 1.9131661842823702 0.4565678086437204 -0.47283384178027604 0.7682754493888961 -0.21195634529977045
Ni 5.807293310179022 8.932921104926319 1.8020173333051603 0.6208761620349049 -2.3301751113441225 -0.37306963980574454
Ni 1.4550846662497374 6.298375747276526 13.057394459133365 2.5023724315784 0.9270176725595324 0.2957203151913036
Ni 3.958858979591529 3.4478209782490796 7.816374135092695 -0.3993668829393767 0.7283127929530295 -0.3632626810176518
Ni 0.44755745584075046 7.258549346882466 1.3200787841387034 1.3096142780191058 1.3162155853857074 2.3251282929488344
Ni 8.446946619930818 3.4942874675718882 5.264651372650054 -1.0678236229667222 0.7838375654932113 1.541110750234333
Ni 5.413700854699306 1.1942989654221496 11.743394791664505 -0.4488037974142658 2.4790620389872338 -0.9550694364904262
Ni 5.104534349775763 5.582916942524592 8.56692653179078 0.5639498811615061 -0.2833597367434217 0.5918206394298453
Ni 2.813921320954019 2.4303299928988875 0.8366274593954182 2.5935717747020557 0.03718226547725209 -4.220532173712357
Ni 5.348427389995441 5.765421176311764 2.4432595550203424 -0.9482963794326509 0.08518296172624684 0.062424842094124744
Ni 6.953024709088324 9.121859303975432 10.67812624482492 1.6958484802312663 0.4823379246159693 1.109278290567083
Ni 7.1792033340657655 1.3441944812199238 2.7849273895435713 -0.08471656361278958 -1.5397886889887997 -0.22610769709948803
Ni 4.315547181493322 8.695340634397603 4.283545441358823 0.8506147710187608 1.2679102134121003 -0.9911551264693897
Ni 5.9237583533530715 3.859921589242824 11.797243999327067 -1.4469029593016562 -0.41658298970734714 0.34692229198641544
Ni 7.148723707628939 5.016559913298638 3.8002565999182347 -0.5072130905910942 -1.5860513195007653 2.398638446322843
Ni 0.02635311083559051 8.768177976985605 5.568666036303622 0.01392586605247279 -0.5385201282344919 0.8978742182263569
Ni 1.8274609111704856 9.296771645515932 0.4471671223894455 -0.447130780587217 -0.06372684873499994 1.1690435835511737
Ni 1.2779872044315972 6.268661846748959 5.433168969036162 0.6336478598782764 1.5527084823742614 -0.10528718867528966
Ni 2.2921351425194167 4.665231792761653 1.1266900366950459 -0.6712497293914503 1.1665647829933778 -0.13038912594923993
Ni 7.101977074680792 8.91042557181164 4.378915669544885 0.0865081082955736 0.22813912570722 -1.332828768462356
Ni 2.3290487342181834 5.64445515889061 3.555570753238849 1.518194764868108 1.1524995631495636 -1.7389124013002761
Ni 8.15530776783262 2.5654059109162564 9.558980475960242 -0.08675647686095381 0.21873814410829429 -1.7530012752931745
P 5.480496433100844 3.6982507030599887 3.976728407639786 -1.1262984792741633 -1.4794618670742845 -2.4102048110042036
Ni 1.9765346723339334 3.9615483583947784 12.045400825524398 -1.5318329244768327 -0.6645111251160363 -0.2176109724823865
P 8.888695764606219 3.988731628173455 11.706998531860531 -0.07476279483418737 -1.2832190758550288 -0.056843234241289196
Ni 3.070672953576733 4.204685010826042 5.209681590486138 -0.11848851785691206 -0.8452157114903766 0.289992668678907
P 9.286658460641213 0.5592479178269478 9.533190453811581 -0.0607202006981922 -0.36282122260485905 -0.6597234739194058
P 0.1376597760550741 4.564968389253012 1.5678975703614575 0.6671848152934574 0.22599611122228822 -0.2435328345544709
P 2.528333571163131 4.988508198281411 8.372332232946084 0.47468503605640183 1.109434099418657 -0.4969209646364668
Ni 1.505977424852894 2.648412467104047 8.401648329525672 -0.035226427302461914 -0.5612008576614593 0.78389875774845
Ni 3.6690317229371856 5.248649568770721 12.72512917848858 1.0830800349051604 0.19110752687521926 0.7858173149274015
Ni 8.143775188589519 6.282146093248584 9.03231139413599 2.4053575102142317 -2.4326993925622946 -0.40394190390456886
Ni 6.4822059942236345 3.4771706920637073 7.372228828608567 4.206995315568187 -1.5078586730494226 2.198449783081962
Ni 2.3893916711160914 6.060711233660207 10.72480004043048 0.9883222850062849 0.7039441343006779 0.021107214292260423
Ni 0.22901554609003583 0.003932282687667752 11.957533777436984 -1.5380423957216545 -0.008860792824739578 0.19897433121780572
Ni 3.8579885982279882 5.976752189146266 6.750955244507511 -0.9229686993011396 -0.5764510989523105 -0.17551430042265256
Ni 6.935469041900445 0.06153448111768088 13.061249235418021 1.1465047790187093 -2.253193454481745 0.33714592932594195
Ni 8.71761205261201 6.669192526016224 4.175614506824669 -0.21263717341687893 0.8830862612839051 -0.07843972946514234
Ni 5.767167404909707 6.9117875674385 4.7184516110792885 -0.12605861689468614 -1.118413934319764 -0.09582218660764788
Ni 4.18163852858153 1.649102803038322 9.51001043643899 1.2843027958375106 0.2921081723600131 -0.21711320691036157
Ni 0.9529272178305179 4.438632952346205 6.631653280220868 0.29357498671352666 -1.2245524152517555 1.0932868002348333
Ni 5.909956610744729 3.53934390064716 9.481487146319111 -0.6680538481619721 -0.5402152565487277 1.4019868155152564
Ni 4.370296584005305 0.5160628441689371 13.590309809990579 0.07141496140787701 -0.22423027757111705 2.557134100700312
Ni 1.3997002715203206 9.314747528141819 7.625305910678925 -0.09983465020115065 -0.17648540608667027 0.49906423623171464
Ni 7.647743547444367 1.9812971139646876 11.721964738138198 0.18995412999706643 0.5211754663084572 1.2164840364213243
Ni 2.126663641152823 0.3340059063702212 4.5098071756117815 -0.4441439300447512 0.40453222919040005 1.3135745482184344
Ni 0.5528223568737676 4.2422149185005535 3.7148501466733777 -0.21007789733013496 0.020093171205449265 -0.5117284619629444
Ni 2.382033231890534 7.956405793842301 2.7245732469006496 2.666915834811846 -1.630260924138444 -0.9919238863146143
Ni 2.497097556937891 1.8530100098013544 6.479440976641545 0.5456474833078926 -0.4328138497439127 0.7635297071737946
Ni 9.218648926529877 1.689406132603684 6.793651000633265 -0.2875889443334208 0.3785427471051738 0.007589382311483703
Ni 2.716552734907209 1.2796774043044725 12.27022729060354 -1.6447614317474644 0.2497759872507053 -1.26557385196944
Ni 1.2627660674548733 2.2253582403595686 2.185180041613524 -2.984922986425808 0.5887697684186635 2.7417701609185747
Ni 3.4658342133583435 3.4910751540013405 2.785583859438948 0.7042189852286195 0.18725858544277427 1.6299305373822188
Ni 7.929101128492644 3.0618297531368817 1.783470891495669 1.082557072522155 1.6930480346679937 1.3043252617060246
P 8.021912711567282 8.478901669461095 1.9606131762938634 -0.19855189896840642 0.284921939024219 0.29497495238484683
Ni 8.662778607012426 6.108064844463255 13.640714184873563 -2.2077548625329717 -1.170699888207674 -3.4539523668583296
P 3.9426106493218973 2.9421150439089057 12.371789626721666 1.387985873250474 1.6195563932367463 0.32116600895791786
Ni 4.950044478522438 1.553097582634826 2.2398762168366932 0.9396381895370205 2.742265098277122 0.5985373893283885
P 8.162274005982704 7.639460634255193 12.147672858826715 0.3416960105904696 1.445512249601717 0.019417228184347206
P 1.6215273321841712 2.5419859038379595 4.71623754262703 -0.6008804356392684 0.012429998233236657 -0.9192493414680233
P 7.424618487983116 7.9303337604441335 6.1606375310063575 0.7904121333869355 0.9365952889456386 -0.3437374665005306
Ni 0.5231719555679433 8.856395204604691 3.1761264846508115 -3.0880820730145007 0.6964897349051618 -0.7104261424805959
