# total energy = -340863.7274299796 ev
CRYSTAL
PRIMVEC
9.32004123456563 0.00000000000000 0.00000000000000
0.00000000000000 9.32004123456563 0.00000000000000
0.00000000000000 0.00000000000000 13.64082243099251
PRIMCOORD
 96 1
Ni 6.446001300228661 6.0372895433030775 13.628599922951324 -0.2366101392927086 0.3673471354996706 -1.6934054180074125
Ni 6.403231632189268 0.8715701559101039 8.341199012578288 0.9612724799773446 -0.5844384880331612 -0.03498911448067523
Ni 9.318102407592251 6.0943747942817845 6.971892068338747 0.3654468331531642 0.1834600376322905 -1.0449503179129744
Ni 2.3700864202261167 5.668393001427459 7.8791840773021065 -0.009965338742828 -0.24346135788658713 -0.9438995359165356
Ni 4.954925224623881 3.086303609117648 11.097763299977366 -0.5836255052135627 -0.5536112182396594 -0.0971586460308843
Ni 6.124655607413183 8.54209715583894 0.24602484966290558 0.8413870817729057 1.1228532010380403 -0.42694273567511637
Ni 8.16499897790434 0.38278526693822607 0.5631448358998138 0.49212148636529446 0.06775988115379299 -0.2407125914968564
Ni 9.070972201069578 6.0475043082129 11.980011426833807 1.529587837196398 1.9609955506214032 0.2240536427839367
Ni 6.830723271681724 2.5372133950098155 9.82491132380784 1.651404905205911 0.4916381189709726 0.743197680484662
Ni 1.735270469219976 4.203114799244566 4.020291011448894 0.7942495048551548 -0.867826249801041 0.15642848743579513
Ni 2.5249855012491524 2.506979182083298 8.034293791251201 0.6584487209720401 -1.0889046120067376 0.5782141043900042
Ni 4.4951955633950424 5.559581523031313 1.4694573085565827 -1.3875346446456684 -1.812039203192937 1.315377405755128
Ni 6.334244688884064 7.588787444556012 6.515961255811773 2.3701290260292405 -0.4923284601697779 -1.8822218348556101
Ni 5.0146014469939475 1.2471985633827711 3.6827079432448264 -0.09183286294259668 0.9285140545994008 0.39134478396584865
Ni 1.8793583027107186 4.629860835458932 11.50878922307732 -0.015896359515282298 0.9675613983098499 -0.105151948649006
Ni 0.27125233657705444 5.672913221300874 2.83418065664407 -0.4919996160754494 -0.3405109891434329 -0.7923957394758675
Ni 3.960970814644115 3.077095408633246 5.997992522531385 0.5970183815807008 -0.3437652344146725 -0.5693769657143484
Ni 5.403489476763334 3.4282465924903414 1.6220161272905163 -1.0034771383698524 0.21072375844424998 0.8923584306144502
Ni 4.98729372693393 0.1539186127123487 6.689241321647904 -1.6844147844730284 1.7812852098395322 -0.578171938298159
Ni 5.698440813534455 4.938382151891276 4.3614622954287645 -1.3738949423750468 -0.7248706000406999 -1.0873609216687015
Ni 7.533799202796932 5.510511507292065 8.34199028405716 -1.7891175613997574 0.778288353540208 -2.9943363093199076
Ni 0.6468760840292335 2.7475573997997613 10.30415435482837 -0.2451315465001585 0.5344109911621248 -1.0944913620658958
Ni 0.27522360603697715 8.36597634151329 5.641598815625225 -1.3413095522398577 0.45553211727703485 1.708820724121218
Ni 7.275699308045372 4.672844864440776 2.2463982924238954 0.6341024309171918 2.7697082820897396 -0.7228466276321358
P 6.017997058482519 2.1098335960090733 5.748446561387703 -0.3249596716723952 0.24360713943583207 -0.05753768920515252
P 2.116739746372375 1.8646139978865042 5.964203645976577 -1.5880665501585811 1.246067663615712 0.2443031370615922
P 0.46668520780931344 8.048023143613117 11.124853863082642 2.1015441336021485 -1.3769103321626028 -0.3822965577206513
P 6.217632336190908 7.974562580639376 8.606976757085972 1.8562179545926805 0.292266038094116 0.39226986688327925
P 3.093703721652683 5.618288461139863 13.311887222505073 -3.7431271676216307 -0.13701974389188015 2.9890138686657295
P 6.100824262637255 1.569914302221739 1.3045690076153464 1.3370962854894584 -3.449670194543207 1.2771661847927296
P 3.9275677877857174 0.32506811718133927 11.59832685673486 -2.019988227105528 0.31053886826137483 -0.40326878909694414
P 2.8964823345571076 9.299592806213687 8.228089131283957 0.8048848730818138 -0.6374793178092247 0.04426462624533022
Ni 2.8798740215376704 0.4931382801118215 4.677437780633806 0.29748614884247476 -0.8473381571500181 -0.7594866474526726
Ni 8.638923061539803 4.391454187289904 4.710844535508594 -0.6921075466770661 1.5474737163378833 0.43383432058862703
Ni 5.644729417389103 3.247316637021015 8.025182519192951 -1.665422045420609 0.21344732802300015 -0.41574660984898076
Ni 4.079186214385161 7.590847173611734 0.40400140821625485 -0.5482424977285785 0.08553108909428496 0.10684244897755149
Ni 1.0489799319027513 1.9103940391611824 0.6552464128298826 -0.18612884271370525 -0.1448947757645827 -0.45303711876932307
Ni 2.815854660072734 3.5046150082486296 1.2882486838620708 0.9690091864999699 1.7305115788310905 -0.841181393520003
Ni 0.7329317503780963 8.097083839311388 0.5441701644765407 0.1526404811482726 0.018715059911000028 -0.6056513746653504
Ni 6.883306942868966 2.923668894084436 3.565356511302266 0.2538889809778143 -1.5560917970241976 1.4774764612131392
Ni 8.355808176808347 8.40095445529665 8.137664229725491 -4.923960801829197 0.012021449940908329 -3.016089384726283
Ni 8.134885925510511 4.716807497725112 10.201234074333225 0.8730198781868383 -1.9737417945434783 2.264293935270281
Ni 0.9754634486831539 0.7249659113558106 12.093257380726387 -3.4173033481767274 -0.2327246881953734 5.051999168158074
Ni 2.39978007077602 7.49582935586024 12.264980999719507 -1.1191922072466853 -0.05881835568978903 -0.7828877999854323
Ni 4.183113991309822 1.3910347557671583 9.552354181494128 -0.05711962783112743 -0.814238803492888 -0.2008322103621509
Ni 8.35966667377246 0.5446212544597846 10.018433586639993 0.11394872100502956 0.3483965625390968 -1.8579171966719745
Ni 0.7634875047182903 7.847427901684188 8.96747687404621 3.55371991126697 -4.978241160439317 2.126631415588079
Ni 4.747572952987269 1.4371969187218574 13.350245715150471 -1.1627366674965394 0.2184869473294366 -0.1443738702641062
Ni 4.416003175220991 4.042921934947096 13.146137749777644 0.1947350963254775 -1.202786998550206 0.2283101040674455
Ni 9.29219269367865 2.2111144812965184 4.884982977118625 0.9928296859583352 -1.0653412228645007 -0.3294588450943294
Ni 0.6670921849105251 0.7472808854649234 2.799615420675951 -1.464339409610549 -1.0878514881518748 0.10238544164746238
Ni 7.690142890171267 7.040824955406291 10.203825977728684 -0.9138446255126842 0.44482630082375646 -0.76903495326274
Ni 2.5699174187950047 1.9755131654613 2.8143466774427988 0.34546627626617926 -0.8029981975820623 0.7686356609417924
Ni 6.003224793535376 0.5316999496504984 11.305799662621627 0.40856114784413505 0.46577359249938494 -0.3219034013445746
Ni 4.429927316439308 7.322718914769873 7.640838009399421 -2.9151154787143665 -0.8776393792367208 1.0307295463279023
Ni 6.486161356794742 2.8056864953677922 13.022402089766445 -0.37065923059203904 0.05389083648118461 0.058789559334382624
P 8.898001560593855 6.065212386067519 0.6695163275684127 -0.9450071671584176 2.0691808867800945 0.9215597347687549
P 2.226063827022207 8.556384778655325 2.2308067958749525 1.7191845838540456 1.090136941751942 -2.6063375590081566
P 7.0626804514952815 5.628018583918927 5.804129146199504 1.5270750980768732 -0.5575200663757625 1.5523410717325137
P 0.424146676786128 3.0834143964150518 2.5907057701922294 0.16454160346123273 0.17468511965313788 0.29243213135833507
P 0.18868888958194197 2.932075571044892 12.451396731307375 1.9731681814281954 1.126260941168009 0.7710946640052462
P 6.0177454173761635 6.7881120443389245 1.8387415641368081 1.4757828755608005 1.8309468387307177 2.3555310736104076
P 3.1817221886311158 3.489814783178559 9.884249228690472 -0.4403510386612222 0.3970294930554517 0.37244331907565537
P 6.201107903540256 4.760583730189925 11.223750681888395 0.5778454081966757 0.281806790434005 0.4972575220402792
Ni 2.832267252231673 0.18298222849226659 13.457571579015022 -1.0554301343983759 0.38657487338103097 1.2200038766491248
Ni 0.8309077491354107 4.453180818674715 0.4381444463281556 0.9361152639854264 -1.0532099868186056 -0.42107804936422316
Ni 8.00471291319711 1.6886236641345194 11.851364105228194 -0.024433450452015983 0.0848489754255958 0.7847737041542355
Ni 2.259755775150864 6.339929913879494 1.615291717726249 -0.8512038107530114 0.11492933975074399 -0.28869323314119316
Ni 7.635527450051231 3.2104558749604792 6.833901405654579 0.4008401250507935 0.4504909553087015 -0.8661604320628439
Ni 0.8065293179541859 3.6058399732902178 7.002829944358962 -0.7745538261984402 0.6187778847449794 -0.5511324176818637
Ni 4.575571596773061 5.375240432564729 9.296970146683007 0.3785900554033415 -0.31097929823290316 2.3131682923734807
Ni 3.602559318866626 7.088487644958144 3.654334942501239 1.1642603032299175 0.3049374629141974 -0.32574025859216155
Ni 7.994544748492167 8.58504390465688 11.841338537150186 -1.7490181222757104 -0.08774172359235856 3.393665139932497
Ni 8.012392626961429 2.6050912534388635 1.2803061449422255 0.6929629526988259 0.5390873135918716 0.1879810654310956
Ni 7.04754470495007 7.002398426461768 4.104127576041344 -0.08202821814734905 0.048391503929510214 -0.1458903069086326
Ni 1.2965481803513015 7.712660109169561 3.810413940711851 -0.8670392351233713 -0.5817881948945076 -0.07227448119469487
Ni 4.249631123756357 5.9880144866623555 11.788848998376803 2.981793953878523 1.278065556678547 -3.4688639938628385
Ni 8.566963025163217 7.88518338767843 2.4001025441937935 -0.3791538983266115 0.22063356135879422 -0.3046983503201978
Ni 1.6632731526794857 0.45743227112822615 10.258171136660412 4.527963606693001 -1.073639715427867 -2.0436932840319515
Ni 2.698245062995136 6.824143322752587 9.825143392828144 -0.31873168848481237 0.20593276481350983 1.1166982371802383
Ni 4.733881812793355 8.079897683751431 10.07558873792602 -1.2006144163789192 -0.07817284895700086 0.8395032344866316
Ni 3.4174633050809757 5.427087820514858 5.591891309083211 0.031186195794817257 -0.2174425652253223 -1.3161533646892043
Ni 2.6803505843209945 7.7946671497184 5.80882085482688 0.5282740250264515 -0.16513527118117366 1.3329871484170914
Ni 6.197650168338118 8.767250705739933 2.6423229531302486 0.3676566963202894 0.939805311242504 0.6071120183712769
Ni 2.571613666252657 2.398913306965241 11.790008411474231 1.3708931794342456 -0.6683140438018942 0.7964483122786864
Ni 7.70704944450194 0.7148564629090184 5.982973276498376 -0.351678061503846 0.004189869711631494 1.367907100222728
Ni 0.7538039821441066 0.5097093129673543 8.384972449030808 0.3687414447440359 3.6778082918091624 -4.717972501187404
Ni 7.9433497634103665 4.475558237058368 13.060445565026848 0.2675353681166554 -1.329407144375317 -0.15050158042839887
P 5.032467965545161 8.509859134102557 4.754713036379071 -0.39522714973939027 -0.53999594144907 -1.2270615548268544
P 8.863107327179279 2.2182629527251985 8.308897614563268 -1.1770250590947535 0.363840922118625 0.528353215003819
P 4.415099131246309 4.987927489720305 7.339594712965326 0.6164407519713706 -0.7320822872977908 -1.4951527954469799
P 1.3754609672960696 6.01403604106767 5.175464422237599 -0.9586299001481748 0.13599181684799802 0.5097404849986382
P 3.8581987228004917 3.6482181996086145 3.346093227298178 0.8717803493527825 0.5660252756332962 0.35295384289247606
P 5.819619986305905 7.687775599763333 11.963505634265108 0.9158829960989517 -0.33652989300849784 -0.21017019993362515
P 8.223202633800181 0.0956310764477237 4.052906494844809 0.5604485528764671 -0.9631468141819218 -0.7899189958006009
P 0.6048995514769079 5.18116921931908 8.977884563804237 -0.6319324198490666 0.22863843394114172 -0.07008698662507284
