# total energy = -340898.12461269164 ev
CRYSTAL
PRIMVEC
9.00296924467070 0.00000000000000 0.00000000000000

0.00000000000000 9.00296924467070 0.00000000000000

0.00000000000000 0.00000000000000 13.17675552365820

PRIMCOORD
 96 1
Ni 6.310073010479617 2.0970795997035734 11.428582353005293 0.3099241174955114 -0.6411631944187152 -0.5426855724660912
Ni 4.519058348489723 0.21407349968965853 6.044612363729065 0.25693599533425426 0.8304758341770409 -0.7243977741693395
Ni 2.7537651692345024 1.6370278784078622 4.656217682516495 0.6338175526869213 0.24619649742956312 0.6995454910123501
Ni 3.3804528457056016 4.338494800107985 4.915378051486955 0.24012946529987675 -0.55781111525362 -0.23125915939344044
Ni 5.009324034103798 4.365863826188982 2.597256654005994 0.660865557943649 1.0785412664945426 -0.10462821493505207
Ni 7.2567892297471674 6.292607250414771 2.6304497008013983 0.3556221337532585 -1.9141824469226063 -0.15449707474103713
Ni 5.02959872052959 4.461700432318001 11.523929197614969 -0.15362598498999347 0.34120287300413493 -0.8985738153965428
Ni 5.636416844184649 7.678317246240054 12.372603983619541 -0.7027835383336736 0.6018978211601892 0.2757821815064799
Ni 1.922926165325017 6.40445113561353 0.4157319049827068 0.0433570268293963 -0.04374809162022788 -0.7767503196291268
Ni 2.682506668763748 1.422063985073661 0.42104995883337953 0.6685950653774227 0.7553955081024345 -0.4925282348854098
Ni 0.6643029816911697 0.007467962873087915 4.642566480461687 -0.2563312718707198 0.11049367257689358 -0.36057536399347584
Ni 8.695679764079177 2.4388323069518165 1.3785517350894279 0.02108921657013142 -0.3550577766093562 0.10766674465105973
Ni 6.911210260629049 0.6554260541530568 4.7617108733081706 -0.31039591492560736 -0.3461545605824555 -0.20217509754329052
Ni 0.6345751777045076 7.459491079159554 2.223959343605581 0.7582417193019779 -0.708087209934774 1.3424318387697591
Ni 7.510294833822405 3.8803066934171317 3.8515791192981004 0.794254132840845 0.39621213936047894 -0.628574302010111
Ni 7.574864128247705 3.716533682417322 12.716900029640112 1.2799820569749698 1.055206191313028 -0.8538739013860069
Ni 7.968879071153905 9.004679669721279 6.845192388474659 -0.39510862188365503 0.09793717606812165 0.3516058135050138
Ni 6.735391276965958 0.7369236313876002 0.38927938115665867 0.15888106274134572 -0.525260177900792 -0.2928550778283666
Ni 1.8526399855176663 6.411311398071991 9.234322904182147 0.19098231415126465 0.8925931723330757 -0.4023799587340876
Ni 0.33666963089122587 4.764857411010574 1.4641744727681532 -1.0789007067164904 0.3385140133180622 -0.09910265713113256
Ni 6.124215716263792 2.040360894338349 6.8583826385112605 0.7323221712227388 0.08686137786993428 0.5403471541409016
Ni 3.5768616197131795 4.3272500916951016 0.3683051640313628 -0.8068805633556039 -0.5786648187741775 0.7118317645788709
Ni 5.965286302642791 5.632833662480624 4.797472467189399 0.6015005857217706 0.3550570052784079 -0.019093012075709053
Ni 5.272237740894378 2.8744229611876357 9.22632466642874 0.13608000568643014 -0.20817990897647373 -0.09799708277177961
P 0.18419984760348576 5.443744302355891 12.437420859695244 0.3990542367949643 0.042462282929268805 0.09957548300249303
P 3.842953374598034 6.153511377733387 12.479639383019004 0.4303749012851169 0.27010569994699285 -0.08089333321195746
P 2.383338005384952 8.377982990281074 1.3257268138623715 0.9389604467437054 0.021897828514355837 0.8947073904626012
P 6.328403055578601 7.7928260102940685 6.003580431733423 0.2180146356787084 -0.3928748474571298 -0.9546266925260526
P 4.635862869665663 1.0514207499655759 12.526429614054583 0.3528563980826633 0.013810680630847184 0.5119680887775764
P 3.904218579361582 6.153889502435821 8.241533090219823 0.6392646918444217 -0.20501153855082113 0.3386042590390233
P 4.971952709346489 0.8825358531076114 3.7922306466571327 -1.2374125590438754 1.139328058764612 -0.29603527532856116
P 0.17992253698141938 5.693441650499463 3.5846707951153696 0.5420697932589632 -0.48391735328794727 0.01524407064326407
Ni 1.4459668680490054 1.1619682076131306 2.510000777731515 0.3541859155273642 -0.3033397794097743 0.16405772184627876
Ni 1.9142112912308047 6.386139096452758 4.799013775500277 0.41107697228745327 1.0073867578369038 -0.0639073401769222
Ni 5.940276054467458 5.6266486227050825 9.172919053694375 -0.5688149225632915 -0.43800027904085853 1.0624929547824282
Ni 8.600032220301378 2.262095020439955 10.250540244351042 -0.2641996188752031 0.9831983335161583 -0.2816885196885858
Ni 2.3874883741426296 5.228906450589168 6.947457114545069 -1.132707468124301 -0.13189502107080509 0.48559319832847336
Ni 0.46104744967878963 9.017643945233331 8.97253997031123 0.5403805784819984 0.17950285275675537 0.3176723939823626
Ni 1.4115395141892249 1.0336398859820333 11.320901440720961 0.06711710536347151 0.27021985692735395 -0.1538167608445609
Ni 4.066118972787429 6.6043980764796055 1.6733557590458334 0.9197555916804805 1.3325498037693568 -0.3990753198408869
Ni 5.6015393418695885 7.766078189081357 8.093268593801307 -0.5783529439607137 0.8192658243938343 0.45030506455014063
Ni 5.264315128081458 2.977137835713326 4.600796304999386 0.05736105441797218 -0.9864122124677659 0.3436917008642597
Ni 0.7310699008751448 7.5455054459943725 6.797123735826086 0.4073902674644855 -1.1633331634299577 0.3187923665194187
Ni 4.858038141253443 4.529753875787166 7.054966970416397 0.8823283000719578 -0.03175518092440982 0.015429447181192784
Ni 8.124522401051365 7.076864892171927 9.23205685685827 -0.18830785264289504 0.6948079763273647 -0.011518285052244679
Ni 4.705509838666517 0.42716477544989706 10.410954247577555 -0.31852805711443855 -0.3569837899874755 -0.29402621531833234
Ni 8.121146287636769 7.189221946609705 4.8351841041789 -0.46513518758443767 0.2020370293035295 0.09430395019090855
Ni 7.149050698460558 6.036436767484278 7.119387715851455 0.4747138324118082 -0.020930322394763952 -0.9483629710045279
Ni 2.3743530422175723 5.32189811848082 2.6132927425768733 -0.4646078543260579 -1.0527263623139675 0.5234267242364792
Ni 2.202675424343053 5.182667201262852 11.250985282943848 0.2291914782311343 0.02425707277515177 1.0365548947604277
Ni 1.0047133462457687 3.276108433771799 3.835358469860557 0.25229463990750095 1.2936197023630625 -0.8441494750093913
Ni 3.8762193454431935 2.385930860487362 2.464936415873478 -0.2127420744258594 -0.7120335961770319 0.21815218969783723
Ni 0.95676353278939 3.360511269136717 8.179707900777908 0.6700490242151298 0.2391233926328656 -0.4558108248597182
Ni 3.5943273797780266 2.571644107197498 7.041433707256872 -0.448240468711628 -0.1218677187417901 -0.388470290631531
Ni 4.304877713467707 6.809404685983023 6.107399970568369 -0.6848616637479302 -0.12730457348664528 -0.5645921427311954
Ni 0.7474354981152884 7.3300373863902575 11.45928427824918 0.5714302486989514 -0.06007819623881911 -0.54298716286691
P 0.27046989876090305 5.693774760356371 7.969578601853409 -0.5495272779782729 -0.9290897245972128 -0.9529210226888556
P 8.416002528813987 1.7879086376484654 7.986786877001836 -0.1671384176541315 -0.26618553895698027 -0.03743474780769036
P 1.664387901519754 3.188239455301229 10.35246285759544 0.38060271495799614 -0.2530027217181191 -0.6259800589203734
P 4.109882405609707 6.036130666534687 3.842934468362912 -1.0090055243872493 0.8141421300140237 -0.57858562879681
P 6.889324042733357 4.022589617161895 10.513864486532837 0.18147283199893263 0.04798449829907865 -1.3901566556495477
P 6.371608304316333 7.839470393230137 10.295618110662737 -0.4824068301806918 -0.853666413360891 -0.2240976086479947
P 2.477437038476591 8.407809826927899 5.717737062927812 -0.30464487137444307 -0.045133916224160985 -0.2813023399937607
P 6.975446445197441 4.0581333391907695 1.5863492650155788 0.08366215420634623 0.1798548367795354 1.2273055525168606
Ni 5.4941519263780965 2.8561199249959692 0.4196653021849396 -1.208175773665945 -0.10487761194169679 0.36018301365106353
Ni 1.4356584684231035 1.0517988746680107 6.8595683295424665 -0.09895893246441667 0.9051093025222154 0.048812650627328834
Ni 6.913199916801385 0.6462268203209638 9.17619973563645 -0.4723250204646576 0.4793541593972971 -0.1911072697649031
Ni 2.7132698141975533 1.4644229547154675 9.06966580161617 -0.3161626422060555 0.0766389288109777 0.5742582050660496
Ni 6.514458415114749 1.990214356420206 2.548252592867351 -0.2829352476114934 0.03284995665048535 0.18179267723219658
Ni 4.003206224677557 6.9843953964884 10.409663221807813 0.8034980200366161 -0.3949124467124489 -0.5581666988208257
Ni 8.130095238927726 7.132179134356679 0.36672244206259985 -0.3022465463455956 0.007000599687549234 -0.3543676925208671
Ni 7.5156425974711265 3.88827432107558 8.224548989002127 -0.030475028660405586 -0.5849894754406247 0.03652869105365322
Ni 3.093096077793341 8.364001379260094 12.272684531001138 0.13760878362613074 -0.3245809481767378 0.30271911510663996
Ni 0.006764830985941241 5.018245976487439 10.127126643554686 -0.12062021948793421 -1.4330393139456867 0.07997056428737194
Ni 8.440274533522661 2.332138120081455 5.715680784784095 0.5718508811761378 0.6700809058943298 0.5705151930838497
Ni 3.5411648472095103 2.6706767673590015 11.402479144380543 0.02959494004829742 -0.4393346815815659 -0.09749417499343209
Ni 1.377220195958711 3.256788062071201 12.578912422455629 -1.2982104070575382 0.34399329126507855 0.6969175664711997
Ni 3.0140860209226723 8.18542748705069 7.836967567818783 0.1358511775050757 0.4668758244246282 0.854839864843702
Ni 5.573432072321933 7.811804269168655 3.516098780625723 -0.36838508984588164 -0.2844969356716584 0.9629971759779351
Ni 3.068626007764344 8.538433905680922 3.5654062418232253 0.4716148817715103 -0.9117260365077846 -0.4647567211990964
Ni 3.340713740073522 4.28884342549065 9.267316985360319 0.1003000198733434 -0.4047338036782449 -0.28442905854820044
Ni 7.225143793341015 6.049013915324789 11.434563925679049 -0.0014727278907845605 -0.2503202897899495 0.10612871073997852
Ni 0.6682165723613703 9.058157306208491 0.27192207767763493 -1.3917993334592933 -0.03410285522097998 -0.3156635910824499
Ni 4.54802090010241 0.11727987794471567 1.493782537265711 -0.20231650821716127 0.24242083243721477 -0.04715814574304136
Ni 5.861518080731746 5.469024639604392 0.3345350269162901 0.4913159597448635 0.936896108015509 0.757991550964385
Ni 7.998588869202356 8.817805039996523 11.423311114593972 -0.5431725394048388 0.5234447219586081 -0.09975468889283465
Ni 0.08625564640684834 4.95026455677112 5.756713617076649 -0.24586405379080883 -0.6581497016743827 0.3761950728086037
Ni 7.80358455837525 8.793235937307365 2.4822770346677574 0.14482844130302155 0.6704022937894906 0.5105948625791336
P 8.586716828994208 1.666899729900214 3.5306322736528792 -1.2085038464293252 -0.5748786122588679 0.42653315894152344
P 2.039217517261939 3.244120884539634 1.6731450895687625 -0.4985266185606898 -0.015020384668232195 -0.16283439096213892
P 4.681543934907434 0.9238306718011372 8.191540503073387 0.3738211732597885 0.6436828755167753 -0.12948615451899637
P 8.41971175208549 1.7182886775549286 12.45449769149473 0.5338106385739646 -0.8064293347507983 -0.1843154436540503
P 6.229379398386204 7.713338796060804 1.3998590620716307 -0.07710609825538332 -0.26266004230222506 -0.9854480487822834
P 1.7654012148844873 3.244913145820926 5.885780182174403 -0.42508408519982277 -0.5268771446789249 1.09986651033488
P 6.73534626212043 3.989116578027307 5.953890344348933 0.6556361912239095 -0.14016034640339087 0.7740910276294088
P 2.340717949639083 8.459459860686676 10.095133692541058 -0.42291844500707165 0.20425152045634504 0.2593430621138501
