# total energy = -340888.42879919807 ev
CRYSTAL
PRIMVEC
9.10320863874650 0.00000000000000 0.00000000000000

0.00000000000000 9.10320863874650 0.00000000000000

0.00000000000000 0.00000000000000 13.32346600923913

PRIMCOORD
 96 1
Ni 6.453974554696101 2.551738580570869 11.39759846428713 -0.2710683209705783 -2.454917837640862 -0.615309723690721
Ni 4.685840161657484 0.3058323030291852 5.758229073664184 -0.3232064364267143 -0.2633668385612626 -1.1474352612527787
Ni 2.7918721175470917 1.638677664984527 4.699692514029321 0.7357206553813266 0.2502087039127497 0.42261274084119477
Ni 3.7331711858951095 4.9098519163832455 5.205145434933968 -0.9613390715492217 -3.284793833450375 -0.2958437281430453
Ni 3.5571606495807964 2.8344933397360554 2.6278404932956696 0.9109647328617279 -0.1223181760156474 0.06272283295051778
Ni 5.059044400461615 4.673059256925893 2.866849784022355 0.13349733256091847 -0.36342234652396765 -1.0185916254137877
Ni 5.385449044376072 4.763781832819787 11.249855211001686 -0.5607228895837763 0.41962049098209026 0.7697764594144549
Ni 5.828738885408489 8.270820216409033 12.32727000442029 0.1218630907560998 -0.5209967746387479 -0.35253346752560577
Ni 2.220691300322288 6.312583520300761 0.2041476434616579 -0.7364814448067509 0.8528567729754023 -0.12623448035091808
Ni 2.889567751150671 1.901742184167926 0.19195753696160633 -0.05163237946431108 -0.8227190730497573 -0.05246438844730319
Ni 8.15650212408759 0.0001784228865663583 6.529804281486803 0.2577698040894593 -0.3758690569277527 0.6608956398506359
Ni 8.666136148655498 2.4837740259226835 1.316295728905462 0.31308888837673826 0.7004659459440904 -0.4248511432534103
Ni 7.028933203447693 0.8085615439511454 4.492566300747026 -0.5567477069861121 -0.2146248932708691 0.07918020717559267
Ni 0.9624822345235238 7.63843852845027 2.1576952768724658 0.04810251193418168 -0.1638785159559371 -0.08432704148385477
Ni 8.079133955060676 4.205199856156608 3.5956836073038327 -0.9067663785096642 -1.0281589573872487 -0.9641384886712299
Ni 7.48717961604279 4.06787795596 12.69623669966847 1.7491217377331103 1.0869832266143087 0.7149376571977042
Ni 8.549587770251973 7.110406919507331 9.535377859814503 0.006739889826994844 0.5069608653709721 -1.073271533455171
Ni 6.73841340743347 1.1080243319940817 0.16552910204938945 1.6741648246102456 -0.23322759597372092 -0.215694472185964
Ni 1.8908365403869822 6.570877958231059 9.299125930941946 -0.40079255964230975 -0.20266823512962515 -0.4078965176769427
Ni 0.23261883836088965 4.957580038539747 1.411141147928229 0.40501585369503795 -0.6730312467719054 -1.3003822178978766
Ni 6.433055381567045 1.909962381441876 6.726338001360497 1.280419915843337 1.415564554199691 -0.6953553641904024
Ni 3.6681105547578765 4.520298315116196 0.6420793359719856 -1.1831661389954848 0.5455577518075636 0.06967998099464127
Ni 6.260285587478121 5.9750092395589105 4.411626032705386 0.1117475995886527 0.21548621282989988 0.2676577526271326
Ni 5.740483279017631 2.6696251306236416 9.056066622754376 -0.4908140804077806 0.9695992546754849 0.09986678899066671
P 0.16574848937419806 5.63971986415013 12.328616368957185 0.6884264982810531 -0.16069960400732325 1.6014098042347065
P 4.085219568149231 6.299502209688727 12.195328100446167 1.1068701953462228 1.0335796141821878 2.0871025042555216
P 2.6644909210306094 8.807800279305786 1.0996457388922616 -0.6878935085957185 -0.2984081464361119 -0.008320346940237283
P 6.541611142909078 8.001538205821307 5.355713413816429 -1.4969703082716928 -0.7221714559419821 1.4503325538084957
P 4.78726811074536 1.369814401987721 12.524670349743019 0.8840241997171421 -1.4252768963914488 -0.7596745950937627
P 4.267174499612922 5.853190103434879 8.234474746158789 -0.2988537186139627 3.037872027819013 -2.3391300065445653
P 4.727105005780204 1.182215481255093 3.5858512318048366 0.3569562791836498 1.2270343011333449 0.5085786034800531
P 0.1768179909081109 5.925906532919169 3.4328445033656863 2.4264050749131503 -0.12214205544909931 0.5209340397216125
Ni 0.8219441707644722 0.20718538413753515 4.626839536417558 -1.3083423532852176 -0.11941925720129758 -0.4381799991518325
Ni 1.672195678675207 6.353921190091467 4.950133613988151 1.027409995036366 0.7595768931736339 -1.3204429932034938
Ni 6.288815042911742 6.004266951672394 9.209806159477639 0.025096280846995486 -0.102188752255624 -0.7630293704986085
Ni 9.068834782994069 2.485840454251794 10.19245109050401 -1.4687195409561158 0.1687643832933287 -0.22720607236998933
Ni 2.148530166556394 5.329018254895212 7.1544209325965324 1.0091613332388232 -0.8237955939433877 0.36701854851565824
Ni 0.45448041523935756 0.14654709168876848 8.948532241405852 0.09109958432099796 -0.13650886569373263 -0.047878568848833666
Ni 1.5129714588317287 1.1374823146945274 11.337043921356546 1.0733610078451836 -0.592514065952444 -0.4870163039282451
Ni 4.060795659748336 7.195439990089798 1.5729952847068611 0.5128602615745426 -0.6017569247069507 -0.6960626746700722
Ni 5.831988730842377 8.061473730574006 7.563531867001293 0.013964175489575952 -1.3107730742138974 -0.28780517410928497
Ni 5.234372196138558 2.994400300216905 4.819430656690645 0.41001330690962934 -0.15211160522799608 -0.12401099033703805
Ni 0.7894584609174974 7.380826831157343 6.861598024832244 -0.11828617203811886 1.234142630043352 0.47159148473274265
Ni 5.437173475063319 4.3224036655720095 7.097623283813191 0.6370111199235544 0.6248911967315689 -0.4090974799635793
Ni 1.177308851874518 7.430939993940394 11.673047898632444 -0.1533321078986585 1.0638828931514193 -0.8518707549130491
Ni 4.954266470646371 0.5813846036305298 10.141596016228348 -0.8424543466951555 -0.2210354247829032 0.7642496160589547
Ni 8.37998589272045 7.550656288901322 4.532549413113186 0.7888640721735253 -0.2824048290293201 -0.37851832162514165
Ni 7.29328127502935 6.15347764216776 6.597819814102579 0.13573110698744367 0.29384520965577776 1.1957244352764695
Ni 2.366879725596224 5.576352429793577 2.5550148253094007 0.2914353146627045 -0.4135118069811911 0.7637173977045686
Ni 2.599958275986277 5.0403373069976425 11.43053478295477 -0.9936143866431596 1.3407487946403813 0.579611241847847
Ni 1.41177108995631 3.397007902470493 3.6920392486164646 -1.028747740011183 0.39815615046072717 -0.010750296537968582
Ni 1.4921160081621612 1.0677790472231699 2.457420237320153 0.9786891327918951 1.037069115392685 0.07317693840430624
Ni 1.3176894301265492 2.9524254058313195 8.311550702192905 -0.3134053911758925 1.5739193121239217 -1.9833667192277518
Ni 3.6957843085926587 2.6466941484164646 7.199654775624503 -0.3813804736642851 1.1988804644069482 -1.8545886465193737
Ni 4.1990460872117685 6.936308056977657 5.833279565807433 0.48694045638498723 1.8798494779686914 1.8171955505828963
Ni 0.7744463597829778 0.49045356426202485 0.2825945426956167 -0.27211938794291196 -0.586939400078144 -1.3235000348622628
P 0.029403363449455985 5.71290055726783 7.963968354028042 0.5394236138853679 -0.17434547692553198 0.43144062354546986
P 8.621220917924967 1.7889079148317009 7.824085721280866 -0.2753114125176484 -0.5376361829676418 -0.21072427266488222
P 2.029269032020381 3.4948582906185433 10.263318658342298 -0.5394526673510902 -2.6601111531851864 -0.4928159413291577
P 4.091883116769974 6.422431937249548 3.773285384463646 -0.22625939218600388 -0.1012047910757999 -1.7895932154845955
P 7.218234424169499 4.187075368036526 10.29104521078637 0.18209915272902188 0.6661838848327689 -0.5280500819411036
P 6.455367345596338 8.104067643137476 10.048504785483201 0.2026654069161477 -1.550606348429594 0.22196436435507577
P 2.499986840258127 8.490262160468658 5.529864164634542 0.9840766223560536 -0.8993739427003348 1.769826060159997
P 6.832941124479647 4.249577997585741 1.5028869244573302 1.164683506810265 -0.28317307465391234 1.1160387492193682
Ni 5.344830528056731 3.158376394896487 0.3577469907740467 0.45630139134289155 -0.5713009222099387 0.007608665585193348
Ni 1.6272713447361775 0.8538481855884067 6.823319943417811 -0.2451315465001585 0.771208049654659 0.36778242326487626
Ni 6.943162772976864 0.6589940076826464 8.710135596611101 1.6205208140325447 -0.14734220886381075 1.3207399556186221
Ni 2.8170880050873373 1.3906880590742852 8.85027220887538 0.9929163321348706 -1.659831438706709 2.336544762315892
Ni 6.6736258725511854 2.207327790246808 2.626121807531194 -1.2392982061023623 0.7324602394624998 -0.6823404399879733
Ni 4.078182787980057 7.082214282788146 10.141515907993563 0.9902020185275012 0.3341279684352246 0.34786614395692345
Ni 8.265640490773512 7.5796226983428605 0.10900728048354665 0.8163383663343942 -0.08587638824884565 -0.5853036642469339
Ni 7.860720673561359 3.8554272760270583 8.233835700922208 -0.06786735326593472 0.38723538978316535 -0.8316030058029484
Ni 3.48166774150453 8.619063457510872 12.366574927753328 -1.1788937368723762 -0.30537249356908697 -0.48030341068444377
Ni 0.3001837621560003 4.937780560055979 10.20013875008081 -0.6193018755692495 -0.4041193100226976 0.11894874532278225
Ni 8.764814928776891 2.2834670261264516 5.583824343328969 0.5192777350651122 0.7643730290106965 -0.05398056798151349
Ni 3.8193967767908514 2.8646431662823706 11.418569525704624 -0.30645955598567864 -0.018243005370587935 -0.730077083942304
Ni 0.9377670234506837 3.2761355000302834 12.677637024064778 0.41146983685049787 1.2073990434009205 -0.5002914237705964
Ni 3.3734032828344436 8.168545668930818 7.967472178979031 -0.2903518517905387 -0.13191224746198574 -0.6175977483939492
Ni 5.4142606992731395 8.280851952174142 3.274428648436855 1.8618602404801223 -0.64845895674918 0.52921453456285
Ni 3.035128055038226 8.444718808351746 3.424183710800419 -0.32544715283177494 0.033214539078755705 0.05097674815818318
Ni 3.8964736431458187 4.245964023811922 9.345971952194965 -0.7290517280015831 -1.4748932738669955 0.30119856469705547
Ni 7.415683016497271 6.466582498466224 11.516523690429556 -0.7822882187282204 -0.9547909860180589 -0.43650106878751277
Ni 8.279577502984383 0.08551098902862689 1.9039497122287596 -1.7341077808227812 -0.47133386019598184 1.0559348419489363
Ni 4.730646153886036 0.7460807621023263 1.4156445051723296 -0.2513068220729349 -0.792532522164048 0.15748083995970943
Ni 5.872780208123185 5.856886006085182 0.4037127317652799 -0.24374495056527698 0.5692502103284971 -0.993339021494586
Ni 8.184148568296877 8.931421850712479 11.04982950034805 0.2647410932009699 0.9477677606226904 1.0301937284290903
Ni 0.08235399632142212 4.803480925080803 5.855143651978611 0.7490847353930583 -0.0006841705512181766 -0.07165613088440563
Ni 7.6683789812011245 6.422805168797979 2.2036883274891936 -1.9149743466962825 0.24764839938474126 0.19662871380376457
P 8.71794250821923 1.624522175769696 3.3777254862294286 -0.44781623669001586 0.8476775427673078 0.4169686551815399
P 1.833786732728239 3.2430908531815144 1.4636093107497858 -0.8661992557205791 1.4399879773493782 -0.26899601182258187
P 4.910452728144133 0.949073208405552 7.793668260404702 -1.4486040011531631 0.07872229370256764 1.7993592937324234
P 8.560511620449914 1.7661954096284833 12.203028504514865 -0.9012151096741319 -0.7624321032342417 0.8720454300887112
P 6.405327008481273 7.920100902595662 1.1769274274384398 -0.47057821297687985 1.2016770533154788 0.22434160633800074
P 1.7966547452637402 3.4040446826396664 5.888851922726905 1.4363997457774877 -0.5384576504276727 0.6114733806637663
P 7.250295924500454 4.0869764873894 5.582265874034062 -3.1423110095613946 -0.5929930624713917 0.8327188645749465
P 2.3489555080631037 8.585909572160123 9.964699737727152 0.16823319338020704 0.49822605660113556 0.8926841893849853
