# total energy = -381165.2773621042 ev
CRYSTAL
PRIMVEC
9.28325473183205 0.00000000000000 0.00000000000000
0.00000000000000 9.28325473183205 0.00000000000000
0.00000000000000 0.00000000000000 13.58698166580415
PRIMCOORD
 96 1
Ni 1.8569294363006748 6.767279156557301 4.876829744210061 -0.3976267603198184 -0.4722131774771416 -0.7801385193750694
Ni 0.4231335338969936 6.8680581695077585 8.105571719652726 0.1272796337859808 0.3813856158706077 -0.2769497194520198
Ni 9.213788098429418 6.546430527403709 3.153361947333074 -1.18975459084628 1.726037345109821 1.3401759528560466
Ni 3.405506284708717 4.112082649179813 4.063702967345683 -0.30624641153360804 -0.9847600215763234 -1.157395200678968
Ni 3.5637579274653914 1.5282743703937967 9.03111685420202 0.9140788530106774 1.282473713048572 -0.867376563858132
Ni 6.546894690138374 3.4748614805223568 5.929888736901047 0.8640343868587764 -0.7872159950471409 -0.29766072674712607
Ni 3.6232357402853603 8.870066310155316 10.004733466529627 -1.5130800693493618 -2.3591164769688207 0.43997900003378415
Ni 4.562357634823606 3.8083716886338306 11.129898283399877 -0.6507300121715438 0.7193614972970127 -0.08803662912495806
Ni 7.839095893681567 2.1131286993263507 7.786046734736708 -1.9850484778055493 -0.002365157798066895 -1.3562018959706579
Ni 1.820167747715209 5.736680070271284 2.5545428183653898 3.5146391432154247 0.6283213054590405 -1.7386869155530316
Ni 6.112169156105857 2.2733669585873915 9.966594142947676 -0.2812298348846124 -0.9254215317170061 -0.9503242084959568
Ni 2.504742798563185 5.375180849259512 7.837908565406294 -0.29534210591627846 -0.014538817046123347 -2.5694512275047683
Ni 8.60168741697203 2.30740865354772 3.408919737459443 -1.0898476926462972 1.0149062061424003 -0.041374449181728744
Ni 2.7792672063534343 7.300147259207379 0.0983987864470961 -1.1654543235380186 -0.5168135897953358 -0.2974131295126942
Ni 1.8095105713273014 0.1984416373003755 12.857795121091037 -1.600832591574998 0.42410732310885024 -1.1483503168678804
Ni 0.23654568451449212 8.317294909442804 5.838977823689565 -0.720517722388643 -0.4576486493994054 0.09075454227675338
Ni 1.3536749161222221 0.9559988515706633 10.404910439895561 1.4171925767214173 0.8201279152838133 0.33499185909741663
Ni 2.3514855468315057 9.274444884595438 4.927318581510509 -1.0373853610815231 1.0693958525498486 -1.086478004843116
Ni 7.61344782185154 5.2149982895266325 4.544940392368037 2.360226422203548 -0.382386032110664 2.3951602579662556
Ni 4.654447521381135 1.9995295116444465 4.7429160102828085 0.5839484357706201 0.05260091402516747 -0.3158479391791141
Ni 7.909713612133496 -0.20241858361098494 7.80873686585807 3.338829680149856 0.7937831067416975 1.4526079801062337
Ni 4.421085064900976 5.294360833899648 2.202096627330524 -0.14204676479282635 -0.2988208084934983 -1.2759271701793058
Ni 0.48104154834832585 8.837055056465944 3.245440693984972 0.7344762414512641 -0.20519742930938212 0.6521124943413672
Ni 0.6203711330636482 1.0919892495728059 7.130217282046534 -0.043977948242846836 -0.3609602581367203 -0.7283708998844746
P 1.92570907032333 9.302656695608373 8.502230339489898 0.18208012656562836 -0.4601019960359044 -0.40945074953794003
Ni 6.487110529913526 8.963901448595186 11.59409722275815 -0.7934550339783174 0.2691826739120912 -0.0388326565964815
P 0.751016233013389 7.807152214281924 1.1877738714982689 0.4117536866395038 -0.12251280852495676 1.7046563083308834
Ni 4.9796213667780265 5.295437691444071 8.666225531925317 -0.7303689041511099 -0.3084493327221978 0.28714414348651834
P 4.54030990492702 7.447992373452864 7.8736555942537825 1.2893614413073409 -0.5432054495253033 1.1479173430955198
P 3.3973091708145335 3.704826265784769 8.963168999799885 1.7274288261407087 0.7315678095552175 0.7546041225493907
P 2.044785378274281 7.498493278984413 11.37014334490965 0.7659061778257713 -0.3142613114182846 1.0211467877354736
Ni 4.022907704595979 2.9724517365209944 1.7002745133512478 -0.7011678571071215 -0.47594101995069 1.461268226884393
Ni 5.717602981876554 9.380450369938222 8.989745101335863 0.21615444254151808 -0.36019689760813445 -0.1864972817967175
Ni 5.993900491313223 6.518896393983383 5.466273714262982 -0.41235583899987693 -0.29951166391293577 0.6293255783538388
Ni 1.5993098353069235 5.208082264780124 12.585824536666914 -0.15095795123952713 -0.15487219869226876 -0.37240655230044895
Ni 8.423885239831268 4.431240945535445 12.638447594221352 -0.2707047669835725 -0.0724760556825397 -0.23516749330891112
Ni 7.405967079456298 8.164696768794348 4.366393698200872 0.4838443339581667 -0.33465581591423654 2.5659347297110777
Ni 4.065276479016197 6.287706219101454 4.088988696479292 0.20519100155147887 0.40920469496540496 1.234524438862803
Ni 1.6770478101086126 2.7190838661767747 8.368506912283861 -0.7239725137064628 0.028704824133860243 -1.5684420910594343
Ni 6.648174998842269 5.171552657561991 1.0064784056164173 -0.31393735241996257 1.2193711281611321 -1.1420840242431944
Ni 8.691252258252984 0.37127541652928464 0.6349755493471468 3.0633984542248918 1.8190752841041125 -0.7604132730320001
Ni 2.5076391740274944 2.4924981856227233 5.673841719252341 -1.6992397653010027 0.4885666791345005 0.20573993207641342
Ni 0.6856064204444017 4.335094276676943 3.7749120537427716 -0.36812360865437893 -1.197218503323493 1.5570569891509443
Ni 4.1957340572211335 -0.03140432230196247 1.0695330564697145 0.3984042619157913 1.2335811011129272 -0.7504245372504044
Ni 0.11855087573531037 4.455758021180449 7.948655937246418 1.1716915626969822 0.64044097154071 -0.3812956272599627
Ni 2.8533939950794296 7.869470703038043 6.666561413087819 -0.6184202442952447 -0.2715054085079969 1.4307692869645876
Ni 6.528272481223616 6.6059640397518375 12.46998251465111 1.4220229082305251 -0.5746325576863329 -0.793912176120394
Ni 4.157904794345939 6.082277075993433 11.981815140000206 -1.5903450617801127 0.04772610243136942 1.1083532076496525
Ni 6.792557459087155 6.826274240133218 8.393548491819036 0.30290603430646545 0.2588283272609607 1.5642175114551256
Ni 3.2221063049878946 7.703903855583048 2.384963748231951 -0.221456828591038 -0.03477519869765624 1.699750386388834
Ni 0.03938884966366926 5.058445482378832 10.356785119240028 -0.04384502220940836 0.7260193689331625 -0.03832074995706949
Ni 1.6918638845991183 1.9958347762765132 3.2492858180789366 0.5288355539568762 0.5942945548916345 -0.09779242296014126
Ni 2.456822637836374 2.628655682209345 12.632428331878216 -0.05665220127640566 -0.07227036742963683 0.4935160527199758
Ni 4.704057234462128 2.354177690692562 13.19806818024658 1.8161727657453368 -0.8226676509865316 1.0127691051947396
Ni 1.6262591236815718 3.450557919735299 10.557505795567607 1.803764621888971 0.12136661073565551 0.791288879564934
Ni 7.225259243596532 4.424204238477924 7.979621161601387 -1.0316494870390105 0.3800131610031133 0.05893816909710495
P 2.0156638083014005 4.724174047382507 5.608298227815769 -0.12556316531550632 -0.07125735278409018 1.0170247951473002
Ni 6.430918989254985 0.4302621451759782 0.6158176966365849 -1.3178631482914593 1.283015701594971 -0.6524284829198893
P 3.5461011770387363 0.8247354868583486 3.1359159267879564 0.71809651454166 -0.4953546485906114 -0.18125197423737816
Ni 5.139562561888881 7.213543776173588 10.562736909587283 1.8316243244137167 0.9483254328983732 -2.700865709394729
P 6.311759132011793 3.835070329131759 12.78404523250559 -0.6613931483123449 0.5687246768423302 -1.1447019214820155
P 2.0202404528651976 4.058954582570061 1.2560698479514032 -0.11313856639890837 -0.9451195243665659 -0.8017288439513355
P 8.047755609422858 6.5250790416091204 6.68433327587267 0.2099244024714062 -0.17285140887850875 -1.0093107143324942
Ni 6.871121643556548 6.596569386002218 2.9260382480309057 -1.103463483657519 -1.772711095017276 -1.2480700387577215
Ni 8.995158167147526 3.2343509179283565 5.927660755774655 0.7303331658171681 -0.4613296977954184 -0.7052008895259144
Ni 7.297269450252456 1.8413614181800115 12.452632111629331 -0.5031959990119012 0.5224910997960872 -0.23165176684616878
Ni 5.7630630801096405 8.409589027603587 2.6570021004153346 -1.7665972688100542 -0.23697909259635314 -0.3468387311336736
Ni 8.944759377417602 2.7431924786152733 9.527110012559373 -0.26727954335210746 0.3581533848155445 2.2447021291812823
Ni 2.687149470031825 5.52156849251815 10.05914912056534 -0.2569239111493962 1.2232681492226931 1.8941041881154927
Ni 6.965086747562124 0.9776195517513575 5.582008050524346 1.7847965654269005 1.1333746693946543 -2.3047535859472243
Ni 3.8038600268528864 0.8279131449398651 6.653504515361693 -0.36080882016052057 -0.6640735233579854 0.9032167134851928
Ni 7.705324193551123 0.3109277627445534 2.7998017657350127 -0.29282062504600537 0.9043415711182555 -1.4566507827170398
Ni 0.26474449897085833 2.307863533027692 12.081068914204554 -0.5060172705107802 -0.19275020468496482 0.058735051947363365
Ni -0.16893666890866207 8.69726780729424 9.708686761058432 0.791950681518649 -2.8914479598940974 -2.074242103353086
Ni 0.2701427115750119 2.4180279164730756 0.9099734031267543 0.9885115181989557 1.8571003571976339 0.5356860012198065
Ni 7.586350001401799 7.905118401060313 0.7564181589194199 -1.5666729149741534 -4.457993862372084 0.8735322990468827
Ni 9.05054206464775 5.633840174778913 1.0435362300265991 1.3051449293938424 0.02032919847565531 -1.4883242025609207
Ni 6.328051243998535 8.467052374155111 6.756275714769333 -4.451337790508147 -1.9815885442814065 -2.2060862165812973
Ni 4.335586289175688 1.4790545540099234 11.271488340633018 -0.4943524325783422 -0.22559270513628243 -1.578532899636533
Ni 3.740993826069863 4.496483659519953 13.457565783664784 0.35060308327211237 0.35019762030357754 1.1442062127925197
Ni 5.113708697568042 6.878984560281772 0.6139517624432317 -0.8693534850788447 1.4498859531893804 0.6581515014465955
Ni 6.100565087739233 3.94969995808462 3.494014691605572 -1.3809791029153378 -1.0267705616801541 -0.6612738491256611
Ni 6.703289681956388 2.9658420591793653 1.1499204721608713 0.8429726810924707 -2.1048176621470978 0.7221128347899047
Ni 8.823501504613725 -0.015231035975296289 11.73416575454706 0.020897926494931753 0.9441394198414836 2.7922303744516555
Ni 4.467055742142194 8.44521815911647 4.751652481274673 1.1151596890485245 0.5874165968248787 -0.12254057643909863
Ni 3.893638382991785 8.93538329017737 12.350987899341458 1.631356471195468 -1.8356871816291807 -0.11640206764152855
Ni 6.857920855382676 4.270826304435232 10.429408020705708 0.8872982424827234 2.333455324757291 0.8824254877714545
Ni 0.10254840129500091 7.327941323759116 12.88119263622003 0.5500101311519624 -1.0112130735615295 -1.831173095808911
P 8.075670356285608 4.5549774473424325 2.5324774502848864 -0.4233419056977355 -1.8304452165039506 0.6655503650138279
Ni 5.66497621102024 1.3914948957427238 2.639895846991992 -0.5249308195858314 1.1472164603737534 0.5393431383564196
P 5.7179557455548995 1.473401051901704 7.1211818902535455 0.14806983105845467 0.916625530691931 1.093310454383917
Ni 1.9609854381578675 0.383569230719621 1.5052333322450278 -0.8235186861329172 0.3079608231215535 0.12027337767147671
P 7.774252359648871 6.489505609624397 10.61387835969267 -0.8050381108302264 0.6036400006622765 -0.25944564912998547
P 7.809101697767518 1.0107886207705161 10.132804319952916 -1.101386289413516 0.08661506618708309 -0.016804987372480734
P 0.4370389211020868 1.1924804816277716 4.922685309093082 -0.284677941334213 0.2142456555545794 0.16447758299251675
Ni 4.448006503511544 4.000897107718166 6.16603059983638 -1.4039447105725757 0.9237284602852994 1.1455167040738272
