# total energy = -340897.09744322393 ev
CRYSTAL
PRIMVEC
9.01005760277179 0.00000000000000 0.00000000000000
0.00000000000000 9.01005760277179 0.00000000000000
0.00000000000000 0.00000000000000 13.18713005224340
PRIMCOORD
 96 1
Ni 6.2596382918461435 1.9556870264587947 11.449211528599886 1.1457689292939492 0.31722527914261495 -1.0575250692541918
Ni 4.690041236504415 0.3323972368546023 6.0263868259928035 -1.445078504498408 -1.0208775932344871 -0.6430133602535765
Ni 2.7273083451319997 1.6514894673620555 4.934967033775374 0.4067636896240801 0.07611236688354633 0.04579648950882435
Ni 3.362129961780272 4.34708241032533 4.7853189898491335 -0.2586627482173739 0.7184014473765885 0.20832929007014445
Ni 4.962739634810851 4.744525053809609 2.6688772216648395 -0.08022227528686184 -0.7485872269313495 -0.30800273210308243
Ni 7.278252314965735 6.245943004546012 2.4264318932055424 0.5803802588033876 -1.3658121653669122 0.38104340203984055
Ni 5.04646108849034 4.378212158760825 11.461211123090882 0.2689211927205885 -0.06781258876859934 -0.2148722333949848
Ni 5.640881607603223 7.6559178823817335 12.257780389793911 -0.07789234160210456 0.9859895231080501 0.6474042902324205
Ni 1.7663676996493436 6.5702690319509705 0.46635606777050154 -0.8587178597418695 -0.4727155710348568 -0.48267448201978164
Ni 2.8799387180689924 1.6389564774709482 0.4204966774414161 0.08255683695730943 -0.7885383134029904 -0.31540005300841806
Ni 0.5055660357130758 8.979837701662483 4.755384876035168 -0.34735860819288567 0.4543519809260046 0.1580030310117666
Ni 8.51828849953318 2.2595962637176363 1.3607664491583076 0.2330720442324631 0.15286339579235608 0.8923383760097922
Ni 6.823109263672216 0.7347882038817983 4.691466627590521 0.5572421301240275 -0.3368258269823618 -0.4216884292547125
Ni 0.8855219597288719 7.6050921483948635 2.838358204015455 -0.5006866023264861 -0.4835591986175802 -0.9922601866081106
Ni 7.602055759039505 3.7846746252765033 3.815656608770077 0.5947069598387048 -0.19825879320801984 -0.30455796808759167
Ni 7.6477277401739565 3.680617471967806 12.727399900367116 -0.3997227236168987 0.4528116330220782 -0.39682971833981984
Ni 7.7858429105842974 8.949194496328438 6.828269323564839 0.13923732036848924 -0.7437625518491965 -0.03317108743532997
Ni 6.882404451647326 0.6263945099299738 0.21621615026231472 -0.8741236527739784 -0.14784228842868086 0.8061277443499795
Ni 1.9589576773074446 6.502945882801903 9.222735335004982 -0.2265211304878228 -0.5801439744228654 0.061877968451719244
Ni 0.20224605621043706 4.722765765105782 1.3516807072415622 -0.6522541621255541 -0.24565605154506082 0.5233876434684276
Ni 6.148030710407505 1.9746712174728587 6.774874822203451 1.1270968068057428 0.6109311350070511 1.231587467721666
Ni 3.4363277847517084 4.148113312003746 0.509760217448741 -0.13354541219003452 0.9331142723755735 -0.10676197344860322
Ni 6.088888693408779 5.689166505393621 4.690319647279134 -0.8157387850771823 -0.7795582213915672 0.28691274420200263
Ni 5.267513837583385 2.882200242485001 9.414911751026848 0.10670206674494527 -0.6286894874317366 -0.9654132416185954
P -0.003602220962231987 5.51645271443558 12.507372495810094 0.5704411453128047 0.705383694960682 -0.14143304246822738
P 4.031685349837759 6.009924550054599 12.585651874799268 -1.315634773181573 0.1884862872022883 -1.0162233822919273
P 2.3707082919973885 8.422817930959367 1.4955388882605238 0.4206242496562563 0.33319645775989065 -0.37849286770384494
P 6.259431060525155 7.62565309945993 5.692659704660898 0.160547137589859 0.586465802875835 0.5893996886931785
P 4.842545468637328 0.7906154207504467 12.528380345723901 -1.214516114061676 0.4204908094021855 0.21102997683075914
P 4.014728421746412 6.166077855448402 8.265851017379246 0.11703404479857264 0.16352730326410547 -0.44818956086903455
P 4.792170237522173 1.0307145302538527 3.902388322638365 -0.23642707674762506 0.39833561346138496 -0.41375143379582296
P 0.22250517035145412 5.537076735902686 3.506655788055115 0.0068789865080204115 -0.1778635173811195 0.04111785308623241
Ni 1.666968746034178 1.1948327264195748 2.6513382438632362 -0.7115810820206454 0.2852515544494958 -0.09237305171678285
Ni 1.8767138730471804 6.524479920069873 4.7823916221887295 0.07487900869707749 0.21142361272475202 0.2939318558323131
Ni 6.168141158600856 5.5825775259458865 9.01391734290197 -0.4970469486913698 0.7020438319541715 0.5908600752887889
Ni 8.643176905629971 2.384187337919097 10.283112776344026 0.21057514868152769 -0.07469311793851652 -0.1920855745177724
Ni 2.222411756686292 5.31147390780532 7.0297558319335645 0.7006456660550643 0.06713124643085858 0.522678533216545
Ni 0.5823245170073397 9.40136422866864 9.17036978220259 -0.27734206979443204 -0.8478145825658044 -0.09121374130135904
Ni 1.5064275426698719 0.964977151213221 11.466446867465953 -0.1485673395201635 0.00709958715925874 -0.4278053407857278
Ni 3.989716502308803 6.84324674203787 1.432715361794144 0.35680021322175975 0.16070500332396195 0.7685487576549409
Ni 5.550763013145384 7.918290754868465 7.8165654044237645 0.3887996489464917 -0.7385709803459279 0.7613342421843726
Ni 5.177070881057911 3.047462715944879 4.733216530723823 0.717764585123538 -0.8065982562284947 -0.40070514213482605
Ni 0.7052991869050874 7.443595878942522 6.872077123816135 -0.004856556761352927 -0.3833561093334172 0.3044420113350176
Ni 5.0252694334048735 4.570594905097938 6.992607365131957 0.8937653382643058 0.6003626154625853 -0.034823021216456154
Ni 8.353458508830148 7.360279877847576 9.008787917204623 -0.0941370855957411 -0.8086348270425494 -0.35037296953917724
Ni 4.652820689243333 0.19217821803335344 10.20103655915204 -0.7303807312256518 0.01122286529901293 0.8116350473214538
Ni 8.13928043355947 6.977253326258172 4.6848595524739505 0.2970251500456562 1.0412474151400906 0.046129704478527
Ni 7.403329932268648 6.0667870225224485 6.866973827285348 -0.554931993933612 -0.33922672311437063 0.5500445839343236
Ni 2.222835229385704 5.2598462787067986 2.6429381673172414 0.6950992823155383 0.06598736263440248 -0.7014491357929661
Ni 2.2166813601580793 5.04589345487198 11.59665661348344 0.3363684277299691 0.4727050295118956 -0.1995713413718563
Ni 1.2334408225255378 3.420181761829448 3.9255315561641004 -0.9096038479584593 -0.3701167278250077 -0.5114142731566353
Ni 3.725289336727051 2.514716039969759 2.6462745915851618 0.6334977074536574 1.1484187082119706 0.2536051311888084
Ni 1.126329259746614 3.3445693598408264 8.234452769232208 -0.6994765854476276 -0.051377840251343766 -0.6326117053042782
Ni 3.64864978819092 2.82709473121684 7.1485714593196406 -0.2574607574894727 -1.2136265123678711 0.6425371919481064
Ni 4.028540839793189 6.634456681112903 6.0533277987270955 0.4701017875610936 1.2822523410663853 -0.2652226608230787
Ni 0.7061938856083131 7.195873359843957 11.189754310698891 -0.03902703199547472 0.1511150456426817 0.7657246579425845
P 0.21270583188591258 5.476042606842758 8.007120010107457 -0.0028199859472983688 0.7364457064728092 0.2983688085577442
P 8.337393576424796 1.7061534858159362 7.9036268863941475 0.5516324972467338 0.11339387694282406 -0.08950138659594263
P 1.7643674668989298 3.2861030971496725 10.294189740953753 0.6585194263089755 -0.5549075684535798 1.18875443171654
P 3.8715946493451674 6.255745947034527 3.794346020926478 0.16498666141845134 0.2604154692424225 -0.16166556746501834
P 7.054811900652601 3.8450330000288595 10.318230376199946 -1.6415496096783861 1.1698061727488112 0.9904902391918812
P 6.533039474632456 7.73672007745251 10.042672185663863 -1.1750339968066539 -0.7197831582154636 0.5789648665130996
P 2.342344631194221 8.47025588335094 5.799857763991192 0.9766155380923179 -0.04092913411419403 0.4758587446495289
P 6.855473389976212 3.964353190631256 1.7690535977705075 -0.2723682707289245 -0.1565624419104981 -1.321160073875176
Ni 5.269009507117478 2.7820084038156176 0.34078289730870265 0.6228664529920563 -0.27566288231979624 0.5561890062691646
Ni 1.3602213406835326 0.9757982301918119 6.966298898429553 -0.16439659324293623 1.0912700269151205 0.28299335454293845
Ni 6.747668052774847 0.731164358781724 9.111844954138112 0.4639465665929751 0.5272229580541178 -0.3628381918857235
Ni 2.665066868375875 1.5401972379336175 9.199051498033189 0.8937401414533253 0.3488760732786766 0.013286175585944858
Ni 6.296516456924722 1.8814441532001864 2.4647804996573974 0.2199437343806212 0.39466613502959774 0.3335325009430708
Ni 4.384654349826349 6.789096296857745 10.432641887512137 -0.6993847970647696 -0.7286267246490227 -0.49959028393851374
Ni 7.9820098810438145 7.480573154652877 -0.012597862304634227 0.3073291030748256 -1.1556170257326228 0.25961868437274
Ni 7.51815410421133 3.743201330906434 8.190434133636948 0.7975284327167426 -0.11976121392174859 -1.0267512784064445
Ni 3.0903776195044363 8.260582836797413 12.433722484330662 0.7061018040736291 -0.020586308791783903 -0.2551313380253477
Ni 0.12412255121487706 4.867818679740531 10.268540810455539 -0.296654911190431 -0.027042091719456655 -0.4258500168315698
Ni 8.59941505667159 2.317017359746412 5.66873800217284 0.09607312627618939 0.2253872739936957 0.3638854022033152
Ni 3.578128068652676 2.5076701750561385 11.397636157834482 -0.1545119871393726 -0.007998959045076547 0.015009586034954796
Ni 1.1450341389802146 3.0265864128696127 12.66945622100715 -0.06983553273589908 1.2045492326569511 -0.05963622360539407
Ni 3.0615634558295537 8.33560057499537 8.026161865489101 0.29117023392677593 0.117212736468282 -0.34190169884337246
Ni 5.481088239005964 7.882962319668586 3.578143385750314 0.18358550746656124 -0.26071037477502196 -0.011247033668729017
Ni 3.122029951271122 8.552968210597788 3.6817806703825737 -0.05558210814067847 -1.058729631085254 0.5187773983899259
Ni 3.524950709675455 4.394916805244013 9.407777587550372 -0.5826312596210934 0.01011471983649871 -0.1558474181213445
Ni 7.020240310277203 5.868538728795609 11.400603169747596 0.8961819181255984 -0.0680874396965408 -0.4277829721882246
Ni 0.6223760243142773 0.1840889884688415 0.4899173679611885 -0.2767764270989491 -0.5945768620187437 0.17010804180541672
Ni 4.41078351638581 0.3367995509169999 1.7102656760289492 0.9158747685688355 -0.6835707128506486 -0.5522968703036101
Ni 5.851239418521758 5.468618319516897 0.41129740880099874 0.8842656263039868 0.13911262186516687 0.43393253672938814
Ni 8.100456096075085 8.949131425926398 11.040845091482263 -0.2977208905611001 -0.011976455635585826 0.5885990471687541
Ni 0.20853417529383303 4.890172632235021 5.7308100898492 -0.6228029467439726 -0.8217945043529589 -0.09070286310321153
Ni 7.721285849067559 8.693507086457956 2.386566894087495 0.5832097578323826 0.6449622564498312 0.43074668280223877
P 8.65317806938204 1.501093588668768 3.4556084066553603 -0.999585259514614 0.36637088762933034 0.8085273549304076
P 1.8873187106473481 3.2212306836227333 1.6787872383707456 -0.7106341447263439 -0.15368974834839336 -0.1506108523127535
P 4.679472439133984 1.0614298160473716 8.172473485147421 -0.38845075024750514 0.1965937468007711 -0.11453287564327372
P 8.519919319928787 1.6042857764637728 12.395637872561633 -0.34635947750441 -0.21817841495008233 -0.2392648033067363
P 6.077049477940113 7.655034896753172 1.3733868366065276 0.49723566766340827 0.3843675813170671 -0.821234775194747
P 1.908663536709198 3.3815646556660504 6.112656323914711 -1.2713318374991396 -1.0808845699157386 -1.0465490298586622
P 6.812648586990997 3.863512627826603 5.916142466243974 0.8562837963790803 1.3248030699444022 -0.040471734861801265
P 2.3647706641481867 8.400653189670996 10.229428151133256 0.5295577768348815 0.21997150229476312 0.031006475683843373
