# total energy = -340888.9077101662 ev
CRYSTAL
PRIMVEC
9.10216842530108 0.00000000000000 0.00000000000000

0.00000000000000 9.10216842530108 0.00000000000000

0.00000000000000 0.00000000000000 13.32194355171152

PRIMCOORD
 96 1
Ni 6.646503296677809 1.7529956634595696 11.127126570867038 0.6959006951709112 2.0127027491877083 1.089095387861305
Ni 4.968154514100688 0.4347741631790156 5.982991648243827 -0.596870800259243 -0.39032714133461166 -0.3928920738483105
Ni 2.925172875999737 1.7698346745109697 4.9043401235167625 1.013443505553945 -1.1287420557186496 -2.6310831413839524
Ni 3.3868166395159056 4.440246966555226 4.763327514321897 -1.2120817935885706 1.8384819707654985 0.15953900804031879
Ni 3.5138738045248212 2.7252619572311416 2.617628819024219 0.5450772126267194 0.5668922516192818 0.2937361948817393
Ni 4.976756062989106 4.557892489711629 2.1871563405062258 0.08192537402089761 1.0268206981917993 0.8775105669683403
Ni 5.360621799784078 4.769918394269097 11.449956809009972 -0.27681987874237485 -0.18417197609765057 -0.674078199979181
Ni 5.682802143122109 7.976503002526206 12.469831993216326 0.2838420756964789 0.0739698666192468 0.574576764747733
Ni 1.7957030363531745 6.4773668083766625 0.38181501831395537 -0.25591655293080445 -0.2608258173069637 -1.3586711834467569
Ni 2.995641861707812 1.7076486618065556 0.3561605574229439 0.006541143552627444 -0.806818856879733 -0.6068235405965807
Ni 8.252498944742722 9.009963172675379 6.867501208366823 0.12483245779706889 0.9007353418242359 -0.8860222039837774
Ni 8.731509645062172 2.142022329587592 1.487181406519862 0.7410898901130398 1.177667834885075 0.853488235911814
Ni 6.795551299903038 1.1153432746996579 4.478917527880563 0.595807134881419 0.023018572382360356 0.6722833128622874
Ni 0.9353570019805302 7.731973255555468 2.327276937223774 -1.7269529149455547 -0.9008317581927839 1.7071165969459179
Ni 7.563473919023837 3.93893595430284 3.5583979701783504 1.0130691529336617 -0.5353443016096715 0.26199078414934235
Ni 7.68995764744019 3.798152719744999 12.445386300253762 0.6873132106122163 0.0818065890548462 -0.2997595182576837
Ni 8.177424261957885 7.421853284997493 8.688558334062526 0.335556473351635 0.21343138718340018 1.6238948727111
Ni 6.942469395784471 1.1199398696082832 0.490230032763751 -0.7563509300371685 -1.7447698885223175 -1.3821520401775163
Ni 2.190555090088168 6.3860265511329874 9.066394794684282 -0.5869347720924537 1.7348174052952963 0.1895350401817768
Ni 0.09127199098265668 4.669512377562073 1.2416995727621103 0.2214779116369605 0.2606810641989833 0.03295254366662067
Ni 6.329420167495875 2.3473126297244993 6.782760933238483 0.6330246244719807 0.0014166778418685279 0.28349703365223433
Ni 3.4606261209298532 4.351400703380785 0.07571547542160373 -0.5052585379678848 0.17217880829151636 0.3169375726988671
Ni 6.02317772056379 5.98566768567578 4.60963194404648 -0.0466683505908164 0.006886699817504268 -0.07696417336088036
Ni 5.644008702526938 3.3963739160585917 8.82600016269768 -1.679867788532294 -1.4659188382825268 0.5594113698612043
P 0.2527371719788714 5.510816676194431 12.15927056750376 1.3435358704672153 0.19090235284294865 2.214558258608051
P 4.172570406014915 6.312936141001774 12.726572298741363 -0.5299002477759648 -0.44774218891897083 -1.8395885735661157
P 2.3545124447199903 8.560689255655888 1.1918051279084048 2.4700842609686555 0.8196298926014723 -1.799146149280353
P 6.751860892850757 8.03644988186919 5.686818019703666 -1.4844310381541015 -0.10844116092323904 -0.43102616171587066
P 4.824467687907498 1.0061536657414978 12.611150435260557 0.4540707022401599 1.07025845766046 -0.2935068524797526
P 4.294229985319247 6.34890790947482 8.200975211792692 -0.49304682639304126 -0.29102805192195685 -0.6706606896571999
P 4.7254998137659445 1.1273308301346276 3.595259020478272 -0.014810839760587396 -0.22284522429813233 0.8220091914669262
P 0.3429696953604092 5.888811514541753 3.332244590457165 1.1686309214937873 -2.373926031177828 -0.7350226008730374
Ni 0.7771831649822539 0.02024868323510527 4.795805870664387 0.2973915322461394 0.06355201372003248 0.22754417243569844
Ni 1.8977383411565236 6.656606703308648 4.760129922655758 0.8880016963076514 0.8644642753073436 -1.221908292760689
Ni 6.109438967987638 5.863543895796517 9.311172120628315 1.03557581867661 -0.30449703294266917 -0.17365642127830738
Ni 9.037296983587463 2.358644829053685 10.110755721393 -0.21064533979783076 0.6760448367872487 0.5287478793390765
Ni 2.3966554831891695 5.482954939530466 6.974650111228916 0.20085715006281538 -1.8628660560368175 -0.8579197893206063
Ni 0.40771705817826315 0.22983793738259442 8.908836264251992 1.3421855270869079 0.08072749705805451 0.3107070184081229
Ni 1.9398540731212957 1.132364329113776 11.361565654242325 -0.6820501624410641 0.6734498223665627 -0.5514088112717019
Ni 3.955911497876279 6.891806727940096 1.4680650330008618 0.9881358800270919 0.5938667233255965 -0.7809399322304422
Ni 5.888256282285464 8.107665245364409 7.8405093288414704 0.6028918096423423 -0.31449425336469705 -0.03471503488368215
Ni 5.171724504459911 3.2673688870685953 4.813018070609359 2.0565878806064326 -1.6256586494797423 -0.8579280168507226
Ni 1.2885848408300895 7.660484827016172 6.935869413669136 -0.253982312022569 0.3817257728188458 0.11535228622077554
Ni 5.143580600583734 4.7743511501512765 6.87279047827059 0.03034493084044451 0.1413199139291308 -0.10211881824963703
Ni 0.6360531378184354 7.208571281237273 10.765542031451915 -0.1905061458457945 1.3959470370790799 0.5014432779868525
Ni 4.9950696252785205 0.39036923592806666 10.460442816837697 -1.5531450556910478 -0.5674260126355647 -1.0312807908456818
Ni 8.398770786686507 7.22466391450153 4.50384290510389 -0.8592598482882685 1.32556231670793 0.9685193913477449
Ni 7.209181126502377 6.215360898585013 7.069102399758254 0.16983936152506235 -1.202023123800988 -2.2767293328201568
Ni 2.514437538867612 5.303059688492697 2.467797119122488 -1.7243591860764496 -0.6687297911830741 -0.12919613408240332
Ni 2.4347480568378774 5.5972417626447255 11.299099294759326 0.12053485886297952 -0.847681913642682 1.1248244658317985
Ni 1.336999273144899 3.584397403241712 3.7486214513999156 -1.4716464847949235 -0.326370950197625 -0.3105380969304265
Ni 1.7494731243909794 1.0628237645555612 2.5726003932559616 -1.0919161451395516 0.9093976454849242 0.09959965137220912
Ni 1.0880640767963896 3.5807383316510837 8.002371364368411 0.798357099265625 -0.3079425682891083 -0.3753478943169601
Ni 3.7452236120347875 2.783588650645937 6.887710752278945 0.8221277193226615 0.8206670756167351 0.48812573494233996
Ni 4.016768594032853 6.799356006183841 5.9713882043041915 0.7726026160093403 1.4386576885737286 -0.23171578731488482
Ni 0.640727101156216 0.2183819485667608 13.452631315954752 0.1428234950578508 0.46586152422750093 0.08427999029600323
P 0.3322983134378895 5.818970578435053 7.8981533596460745 -0.1648136261756968 -0.24967674266867967 -0.47908445067567823
P 8.663844127139951 1.957767140012731 7.876305425469493 -0.3517598225843749 -0.5241270927376134 -0.40592705265539775
P 1.9548089353685663 3.3271610295532694 10.275747992541874 -0.37360674325613724 0.2852263576385152 0.34354823330785994
P 4.034017202650368 6.315584871929319 3.5724526279969813 1.0349703238821273 -0.7541446664144689 1.1116285359668143
P 7.110941425811696 3.8863254224773844 10.212081967298564 -0.00821878836536649 0.5800187616989108 1.7834184541324511
P 6.651263730612879 8.039335269168268 10.23652766026113 -0.4760886012721478 -0.643532208871524 -0.45780600091287604
P 2.9016710778728636 8.753873672172059 5.412585167455072 -0.944972200155424 -1.5614165516712206 1.3785761499007998
P 6.9934688438498736 4.137581671700547 1.4675853487401003 0.7770976756662165 -0.7693895083886815 0.040924506128503714
Ni 5.513356181104346 3.1339584087008263 0.2175709453858528 -0.6037161053158506 -0.8111020576361193 -1.1522051718375963
Ni 2.1318916164523443 0.9396168166681276 6.956585038129612 -1.321899266034046 0.17364690819661063 0.5262004303268744
Ni 7.079320493707606 0.84036131401348 8.92603481094476 -0.5916231787070585 0.3455526653323984 0.34936818242374673
Ni 3.0194076227106263 1.9306517811359087 8.975206543648476 -0.30213367491681514 -1.0131537422276682 1.0164067019473269
Ni 6.037804904758168 2.2102703862705098 2.3808978097123137 0.9581953837139175 0.8001776974141316 0.14723962184767544
Ni 4.286420325058652 7.020493181045336 10.298248552173797 -0.08431135775457092 0.4343824797826132 1.3431777157968479
Ni 8.402429858277134 7.382977924889099 0.40588752238294884 -0.11253024339094812 -0.615159828376418 -0.5609501751032339
Ni 7.817642862050484 4.0394238905230875 8.22514055797667 0.6336900259701216 0.19775614253998844 -1.4628980491783323
Ni 3.1713592175712066 8.463851288858134 12.313818100716697 0.22736419521440843 -0.8601862167572798 0.4751015547685301
Ni 0.22184623375928128 5.005400586112758 10.006817153232436 -0.3004364897200503 -1.2295277569791598 -0.19444044790319415
Ni 8.45351122585576 2.601781944299631 5.7388396412507285 1.0834518164222824 0.48665223572060706 0.22352168153986665
Ni 3.8505174930307855 2.7962042556822833 11.270351006918924 0.5527640397480158 -0.24696679993668436 0.6336938826248635
Ni 1.3475850946869412 3.18537655650048 12.406272463340207 -1.288574426629671 1.0403148760234922 0.44743802741499067
Ni 3.691939519767276 8.53296405151396 8.346370514944988 -2.1791433694438664 0.21303620862751052 0.11966479755320036
Ni 5.747382026046264 8.134753297736824 3.3817622055500447 0.15311562101247822 -0.14580134673925213 1.1752371139563953
Ni 3.2997635034642343 8.397068681245093 3.2848850994293057 -0.36820434129364327 0.0917942963951774 0.8097550566899216
Ni 3.4669612299524344 4.397239222113137 9.23899374774432 1.0305382562527028 0.19034390923631736 -0.3723934396743264
Ni 7.570719244860006 6.397822961037104 11.470379343656472 -1.4895223366340797 -0.7167194316884753 -0.2899535879108555
Ni 8.036795764258354 9.031043794078105 2.71888861910239 0.3631135570342972 0.5028391298931146 -0.5241242645241361
Ni 4.712156035278727 0.21352958273351677 1.466905416780349 0.006271177720692425 0.15770401171410903 -0.8989885343364582
Ni 6.22925990932852 5.621999659974351 0.16733061814298353 -0.1569339663173039 1.609892130674105 0.26171104812539436
Ni 7.972798420094898 8.80866872435013 11.752351769471016 0.6163620762146353 0.1112377498317697 -0.25203187316441755
Ni 0.22771349133967725 5.269072192673277 5.586636826549598 -0.655497094542884 -1.602660388812356 0.8001990375703704
Ni 7.521294471882113 6.235139909944306 2.332618999702729 -0.6625318899024782 -0.6941451459323852 0.7451422058055425
P 9.017590789573257 1.7588210510665405 3.8474036413114967 -0.7595069591676468 -0.4835877378626704 -1.6899660533085605
P 1.814954121960586 3.2533697524755936 1.3527369218518561 -0.017982038399717418 0.27330003851457446 0.22345946084336352
P 4.934913396068411 1.2515936295258245 8.167989864685033 0.5420697932589632 -0.06134806409017821 -0.022953523472379823
P 8.57213978317084 1.7044082899501782 12.312206106739831 0.557237245028021 0.3400042247103434 0.3400913851075111
P 6.556828736203 7.945282565820096 1.4118200054387444 -0.19497266625758036 0.5767403480579552 -1.4089712172528897
P 1.8558956742358281 3.217425290506956 5.878853742601087 -1.160982403809594 1.7654803815967919 1.3946745981245594
P 7.031370271967727 4.327580329369155 5.660693886936842 -0.4429362828898952 0.18033640440164425 0.9611531807906607
P 2.0825305586514022 8.590025543557868 10.055615697042581 1.996599158757626 -0.4879113049386888 -0.4471150968579332
