# total energy = -340860.2115756441 ev
CRYSTAL
PRIMVEC
9.34190721722305 0.00000000000000 0.00000000000000
0.00000000000000 9.34190721722305 0.00000000000000
0.00000000000000 0.00000000000000 13.67282550686154
PRIMCOORD
 96 1
Ni 7.122344714046622 6.170740688443998 1.673717563773511 -0.8973276016942675 0.2584598881779484 0.1328851528982163
Ni 3.188299476732893 4.7810012194976705 6.512476058154269 -0.49743107150366594 -0.22502963354396083 2.6099255334697307
Ni 4.494195329389034 6.957702943183308 0.9296000976015201 1.2625587192921999 0.6708782049846446 -2.8617139231647752
Ni 9.113871155046567 1.6043417590207745 0.600444540002265 0.0829872396265087 1.2357128027439492 -0.37752176203982724
Ni 4.17135770356661 6.710861731680735 10.091365342007032 0.9519316621923929 -0.33697212275223903 0.8963264141232627
Ni 6.582858920493199 5.994272063182536 8.800144691226128 0.31273099081668726 -0.17494480107242774 0.3370358861106389
Ni 1.4930703034628459 1.2748620372448878 2.1284489050937627 1.4985535935984127 -0.38403925144337087 0.4488426210720012
Ni 8.730684809309423 5.746506002876316 12.402769892657735 1.0214902871178215 2.5323777196912385 -1.3705116277251106
Ni -0.06381363326090632 7.179872178014863 7.82486266786873 -0.2778730025972376 0.19283222287580984 -0.9391563648045955
Ni 2.5086570508450223 1.1635345302443136 6.398226402610455 -0.5838283652529881 -1.76771261336142 0.4977468029718718
Ni 2.952033304076057 7.949495853162575 13.241365802171138 0.6942868137165721 0.7120227975437544 -1.10909188558789
Ni 8.694157952518935 4.342613544662063 7.634099056351308 0.7783806561436981 1.2230658034039001 1.3926866211602533
Ni 7.246059589871796 1.2384285995254751 8.553897625015594 -0.5086079140560917 0.45708352092455473 1.225723038521089
Ni 1.660159653988336 7.975746612134767 5.897704769411878 -1.1501963689376837 0.8662938723169146 0.9746594428072117
Ni 5.549756097284382 7.785965769245059 7.492188948052775 1.779269207850768 -1.5738936010923088 -1.5991549467622588
Ni 3.1241112329969747 1.7530088687301926 8.523967088833743 0.4929568377823962 1.2575970044115503 0.15195142550104795
Ni 5.229076452003799 8.279760295135496 4.926975057387985 -0.6323427679136078 0.13288643844979692 0.9188179103575594
Ni 5.554707308051379 1.5589961419207674 1.7237873832978021 2.0145760549510205 -1.853301295166518 -0.6767812007326409
Ni 4.941420448348376 0.28948514906707945 8.46465438641725 -0.15179587375979017 1.2165526848757309 3.3310292102688313
Ni 9.453542897476781 8.557962288798086 12.372471285335845 0.2620789729877744 -0.7809422462232873 -1.561831270611136
Ni 0.4085393474363011 2.0358351064110165 8.125417976858246 -0.6142118626408519 -3.508419130447641 -0.5715089244556867
Ni 8.481442727680212 5.722357173003321 5.165620613785111 1.2939169218885072 1.2887032388980515 2.421993061888384
Ni 8.80024464963218 0.20313229652780737 9.917733853934132 0.22176793207355355 -2.135179562268407 -0.9067632931858706
Ni 6.874148926013455 5.071721368684368 3.848107165450031 -1.9754837169352493 -0.9947032488319644 -1.405658865050205
P 5.608217751963378 3.3317444603691952 2.933271952031981 0.2525628059672231 0.6629301537821615 0.7445374823420081
P 3.988947625384751 1.4068351589531287 10.658842291826783 0.8244275711004317 1.1481554272482548 -0.33258504942813694
P 6.964849502120577 8.13032714904326 9.160751647484345 -0.05003058219482997 1.870890726113507 0.773467792223113
P 4.089700093539588 2.4905244091492835 6.222981567180082 -0.4385952323123801 1.8600645820322808 -0.048574823584909894
P 6.638097617220092 4.272726737590544 7.444334094703682 -0.514844638994423 0.5621562795961932 -1.1140160623623845
P 4.858613783747127 0.9071421529149899 4.431827823348375 -0.24163536042144187 0.7920216439659005 -1.486949433700581
P 1.229039982882396 5.783098253016557 6.659718527029787 -0.5538547017090333 0.291136295365047 0.7482398708942598
P 6.960122497124161 5.627079062413504 10.922837113160224 0.8080097918640408 -0.2913147299244402 0.7133646562836296
Ni 1.74234041081338 1.4781419359049943 10.278478136226829 -1.154221945157309 1.332372654761544 0.1516719465874162
Ni 7.199602285825991 1.1812094184917825 4.736991495114042 0.5332604224974493 -0.7124179760996441 -1.9200558749842478
Ni 0.10178474889022016 6.643263691850563 2.8876189861881354 -0.22595034558601734 -0.11269916486864462 1.4892953082249383
Ni 7.574717223822219 3.3531000600170358 1.9015890987035104 -0.5671833004971394 -0.6648613093666033 0.5438847349805149
Ni 4.110999641744783 4.47460535018452 4.569841422192353 1.7247713339132036 0.563901544422074 -1.0539406943370428
Ni 2.9040999787072606 8.914150522994435 10.79410750159972 -0.3295735162953227 -2.2455799038005453 0.17965660472580025
Ni 3.6453803076906914 2.6247676142846577 1.9218657080804296 -2.0853364134940344 1.2325364618984966 0.46930140314698526
Ni 0.9395529654338949 4.042925164652127 10.931095359043292 -0.9879620734533888 0.8591274364754623 4.349627006330206
Ni 5.508885253688887 2.577693744369755 7.867945675067291 -0.9787780929612756 1.3717143897839603 1.2159939841587832
Ni 5.513808438734562 2.7422888056975316 12.229603631558787 -2.063269406391666 0.01928353081996034 0.26345682717190755
Ni 5.762228432538309 0.9243602219048999 6.4003591600031084 -0.6320141809295954 -1.5078458175336162 0.34877091515937997
Ni 2.1276567113710434 6.378299180559359 1.653509150318477 -0.4763066308202249 1.638849180028087 -1.4623650594929978
Ni 1.9291131596144602 1.1645621400261434 12.63939199197537 1.0183535412610525 -0.1700342511446878 0.6513056821693557
Ni 2.423832534308544 4.456584811374071 0.2598656983919079 0.3479260506605814 -0.09578104895706731 -0.3695824525880925
Ni 7.932558975576603 3.403779906075449 11.787438089488893 -0.17850886427460225 2.1234748722369687 -1.5065957471765987
Ni 2.597844238000723 2.6891707218840497 4.419234932567409 -0.5331570641503656 -0.28401356827733665 -0.026757470599502307
Ni 5.948319222120539 3.150763693974791 5.222691258495794 -0.5262446533012486 0.3772600237380083 -0.11737137353333335
Ni 7.750373103165325 0.5874359343550132 2.398828919935209 -0.8988550940823875 1.1195686167494976 2.866065001044619
Ni 2.6594167477465294 0.24216838956738093 4.189695867218714 0.34721745462933107 0.5976986954771771 1.4210554021109334
Ni 2.3330198553161314 6.077545823139163 11.870377409171066 -0.19554345115938582 0.5191188408897447 -0.28399659899647217
Ni 1.4784782445608655 8.937393187877998 8.474827723257363 -0.2960820694060965 2.4831621771985364 -0.03863133921895283
Ni 8.925145947660011 4.208641254832808 0.24490369996846914 0.724400859493133 0.009026371868326388 2.0398420286066608
Ni 1.4873530563130302 3.866138914549009 8.906205230999472 2.0462849560185274 1.2334625732571918 -2.5649975626087893
Ni 3.8560216291515412 8.841180886577428 2.283539510130326 0.6548466054430787 1.5243571849250779 -0.7240290779760111
P 8.936823331544439 4.390967255850699 3.451185413692669 -0.7879443885727333 -0.6974356437581989 0.30858020187310725
P 1.0276378075509052 3.0997568811676133 13.023831087455633 0.8426399803434005 -0.8894173457082553 -0.9364978441358259
P 3.4452953412613643 4.8896849667868105 8.905781108416788 1.06805090848618 0.98618878360305 -1.60290387228173
P 2.9844123541107965 5.09751437420829 2.9674820158597988 0.45997009844373044 -0.4440030335915128 0.07500550697261275
P 8.908115651002962 6.965391332732815 0.9074616461380678 0.8207976876573283 0.13620521841038477 -2.5745821209734308
P 4.309487142058721 4.677128554368915 12.787126779355452 0.3185067169581998 0.0013562569175783095 0.09540926743994536
P 0.48455257718894607 1.098001051884909 5.788896774758208 1.0837618914635336 1.099600658268003 -2.1724122213676202
P 5.923600535913984 8.468775101642386 1.9720728536392014 2.4268992409407493 -0.7143627585308406 0.15174188059340318
Ni 6.736066197056882 4.858940750495891 13.177199044821565 -2.4667739656485 0.331775409042648 0.28525463977328935
Ni 8.173580178951177 0.5345401879306908 6.7519558468561 -0.292271951631387 -1.8112465320883129 -0.1376722898742145
Ni 9.302736491039738 2.054406817740809 3.6446693885598074 -0.3837044938117714 0.47414253328937056 0.8502882409172775
Ni 7.172081027487174 7.630525776882673 4.1934559848295 1.0133373189933839 -0.5981720355691699 -1.0123824112792823
Ni 1.0134848182829796 3.275739727259483 6.45269812876382 2.3085511053164436 1.0391892470594815 -2.144267383502288
Ni 7.150127545784451 7.725523630259264 12.40729604665134 -0.8678334488898926 -1.139698040509521 -0.5587043164918507
Ni 9.097999254870855 1.4873530563130302 11.71826780669252 1.222739273302417 0.17680576554056648 1.2936402711883528
Ni 1.4025565654978747 5.137217479415342 4.642703626677624 1.0884852650811319 -0.37007918971885295 -0.7337553041248396
Ni 5.319524796619017 9.024814754590373 11.146292728600487 0.4664202249444484 -0.31367638544909204 -1.7852151410215575
Ni 3.472779231971752 6.9013058499750795 5.232303146718744 0.42865740437337785 -1.3369780147440393 0.0488167643923869
Ni 1.2565051897785684 8.906583578237326 0.5715182588344729 -0.8125655295555232 -0.7744882630678275 2.463556487152467
Ni 4.694327005353899 4.846600091206828 1.5613960778566949 0.26346556892265593 -1.5284660648871289 -0.3542082841248674
Ni 5.875947467758413 5.94957103767295 6.018107939167429 0.4906222761119486 -0.6222367898278574 -0.26287035854081825
Ni 9.20388977193484 8.886535845584541 4.18108169467485 1.0058268695489516 0.5464123864983751 0.18339293183978092
Ni 5.430992432226205 9.227356642588985 13.430378740296607 0.4632827077567312 0.6028434729029102 1.4937322609503694
Ni 4.734347735402607 6.698007267500757 3.069262093796465 0.9660110231035943 -0.41063474254371213 2.7858717792234797
Ni 3.25264653288964 4.135456754552327 10.765175615287665 -0.28371634875189206 -1.4523033043816214 2.0244372640158166
Ni 1.41044113509664 3.749542571939781 2.474822531682928 -0.4823674923023241 0.015530491535431318 -0.7993832265372942
Ni 8.065438262274276 8.931022007230656 0.6326815930489696 -0.9245779527697883 -2.344700815764123 -2.3968363601170983
Ni 2.332179083676453 6.951070189136953 8.674163468736666 0.25698844583874453 -2.2692296820090014 -0.4850422109210098
Ni 6.930125633401845 1.392112313351643 10.921839397481138 -0.5158540540955437 -0.41420857593789956 -0.1977322312805885
Ni 8.191787555903776 3.176780905269294 5.695606622000876 -0.11809796728671275 -0.22196744967886936 -0.7194867100209673
Ni 9.07631668847425 5.9117643396087285 9.68704666820192 0.0074304881361162345 -0.31991259616679096 1.5209648714140773
Ni 5.44621039890439 3.859524844316869 10.140820464043648 1.2729644880065563 0.815008591779377 -1.1353575041526383
P 3.5945042815830197 0.8675165855369305 0.5422556690108095 -0.9422679138503838 0.6453594918882498 -0.47793285356973814
P 7.18303908452432 2.040085674144948 13.298900739665065 0.0689857831410941 -0.8265965537272927 1.0160454619531663
P 3.5865356348202866 8.500967313534975 7.261938029382484 -2.6880736998363832 -0.41009223977668086 -0.6816403285971552
P 7.735668941378055 7.7492707581266345 6.377839558729668 -1.2088298623101763 -0.7275568886236115 -0.9659220629342139
P 1.955616150078556 8.257573265755084 2.820580526593706 -3.519328321160978 -1.0252083593993568 -0.22657460943357755
P 4.90017592846858 7.265789697682924 12.355147652795619 -0.3123738645875846 -0.37232993342624265 -0.4969356199244861
P 9.01912553316188 2.8522991037959424 9.803935412503613 -2.2027396687065677 -0.8462636931389167 0.9727249447886603
P 1.022910802554489 7.706709029344676 10.540039390758755 -0.2675752202156553 -0.40620524601744884 -0.5901635634423964
