# total energy = -381166.86478416924 ev
CRYSTAL
PRIMVEC
9.23456274427568 0.00000000000000 0.00000000000000

0.00000000000000 9.23456274427568 0.00000000000000

0.00000000000000 0.00000000000000 13.51571602015180

PRIMCOORD
 96 1
Ni 6.904719283963669 1.105303249061366 7.917168084109176 0.6095617654633502 -0.2688013793132726 -1.3917846781712742
Ni 2.976234836494793 4.0690991299326775 10.75694194433129 -0.624025506297164 -1.4893932672553833 2.0597819620636977
Ni 3.6832144687312 2.0676092985461914 1.7685313713104476 1.3861537051377417 -1.495705068406024 -0.2945098398229702
Ni 5.340513688389123 3.574560606915406 8.020347697303144 0.8856190550080876 -1.576944986324123 0.26957939512987766
Ni 1.4553947461970593 1.74303289746668 2.3908217547514727 -2.434758074863536 -0.7434964426720034 -0.17798384500906766
Ni 2.884369409217594 7.331928612139961 13.386599958159799 -0.4247051045938492 1.1621278302679472 0.07158259733399285
Ni 6.726178253507561 1.7145073340509915 0.5753224753515035 -0.1378142147687175 -0.1254613496303194 0.7523909169481557
Ni 6.685102919718962 5.970236971148144 3.085178663571595 -1.6848809254761692 -1.1248550619594178 0.5102523916380504
Ni 1.835332349179145 5.079591126294506 -0.19038897408263022 -1.7089333384396825 -0.5943840292816474 1.6619178889220927
Ni 3.629395438758189 5.8589974318456575 1.565700671235601 0.9369382741073541 -0.12208806228271234 -0.15716690826371643
Ni 1.6301773097350105 7.229932869852401 5.086126426142121 -0.20362597105720415 0.018640240809006607 -1.4277526116254509
Ni 5.0719356740214065 7.009642382548664 10.076385165640142 -0.7653215089668949 -0.252698560214139 -1.3458632330488114
Ni 2.6850598478058756 5.3687991531810475 9.062854998231451 0.8829340519767568 1.3799604318428362 -0.40779110244732997
Ni 5.252397493467628 2.8449840003577984 4.976054135533627 -0.2958766382635098 -0.1566976819367817 0.21892969129381007
Ni 5.136651487688336 7.293060338777504 6.286659253582122 -0.7548751168225902 2.259535594649689 -0.680120549518519
Ni 8.54005871410961 0.7730270698089825 4.151405861615322 -1.310809840989104 0.8147926191138289 -2.423200966153556
Ni 2.3190664341270235 3.8136526633723773 2.3390841951552486 -1.5182505578067078 1.0338516368966517 -1.0108312647420785
Ni 5.93157185815964 1.4475453681124575 2.954873446629733 -0.10554327055015372 0.21612384641389873 0.313988260262556
Ni 9.03070025177194 4.267069679788788 1.2136865381973025 0.5450972672313773 -0.6852247035143038 1.1497927057413617
Ni 5.725521066157616 3.719977261854494 12.203353308174583 -0.36087592595303014 -0.12290233065389157 0.8178630305090366
Ni 4.4128464826635225 1.779389369842065 12.113311706981747 -0.7689866165233079 0.2949417851540662 -1.1838024870279031
Ni 2.718664420570424 2.901545695379194 13.243063460136035 -1.6732945061901503 0.01415418001319498 -0.3241423179774224
Ni 7.234725607765235 6.936874030423179 5.570313004650171 0.1903307966101948 -2.8963950194867283 -0.3286417485096727
Ni 3.8384012907450047 5.517974275038292 12.420307348064242 1.532497297533709 -0.13044234778467856 -0.7971898184304013
P 6.236515579465195 0.8837116119080755 12.279325130014831 1.7026889001918677 -0.03882957127268797 -1.9829874815114623
Ni 7.156407283605812 -0.0643879866998661 5.837018249752527 -0.8387445019437361 1.8123793601411755 2.7519748693657187
P 0.4743471522149404 3.8708607777654462 11.514564840513302 1.212036542172932 -0.4526748503338978 0.4913673818080893
Ni 4.427132350777498 4.038237222216514 2.9471422709445227 2.5205886974761107 -0.013177932142854724 0.7909217260335024
P 1.3667429466533212 4.746759026382484 5.001503666196396 -3.7853516235084803 -2.0966083868634278 3.394032807684561
P 7.697580347008072 7.255558780658012 1.5366561254100835 -0.7919481104154876 -0.4375143405433755 -1.7084070336225674
P 4.606587602916401 2.747725588608355 9.966854020391363 1.694462398517017 -0.8541613507194387 1.8067525008727015
Ni 2.9051564092981104 5.398488271465747 4.2049690942083995 4.74739954819927 1.5564900609038808 -2.402426452610366
Ni 5.913056560442433 8.38211999248497 8.273455972650478 -0.006920638379233243 -0.8024220133636181 -0.18568352764617055
Ni 4.669031714220021 8.488021954689929 11.796732436986078 -1.0171309817078613 -0.8880338350971673 0.17196360695691676
Ni 5.479770890172412 7.679628357600465 1.8503283551457153 0.10077695950976191 -0.2682151677924994 -0.7302256937050263
Ni 8.851992999191689 0.9811260877629651 11.380381107341401 -0.3262045998230898 -0.20918289631969134 0.6506207402871892
Ni 1.4609631873559006 5.920194877218194 2.1758005087831163 -1.439294293716463 1.1680300546849949 0.28602082851535254
Ni 7.834759772239554 4.2588047463938254 10.625514728051451 -1.5909299877493053 -0.006440613419021166 -0.48854868141237157
Ni 7.794229277635652 3.1585528029939622 7.841074366044555 0.9836516190034931 2.4265130612459243 2.7740323633863904
Ni 8.5551387545945 4.824477103982495 4.572866674664951 0.7464580964034886 1.432749293509094 1.1354042982301735
Ni 1.8741452151668876 0.6123087448861472 8.71213555084899 0.2631027862665985 -0.5617909258369744 0.5222694707035844
Ni 8.702928692083873 6.901043928107585 3.3029028659697897 2.4071521402208087 0.6060519525378788 0.9759591354552417
Ni 4.050777758026972 0.030822199097618224 9.650761411836939 0.6946909911335262 1.529717677906043 -1.3887998845113372
Ni 6.492968613332814 3.9545720863971114 1.4893908644095923 0.6874636201471515 -2.167360003655693 0.1957825637533854
Ni 2.38649720915498 0.4466683981761439 13.132720596847683 -1.0882538657966159 -0.22639283244007463 0.6755794671150559
Ni 4.572345845342632 0.09351472013121033 0.28275860846973394 0.35018065102271306 0.8500704684795166 2.6392584781058934
Ni 5.285761967608413 4.810117359368899 10.244561323199594 -0.15790018688531515 -0.63607035327684 0.032769738231853245
Ni 1.092107059316782 3.4030378439231774 7.203944040742408 0.08011634583661686 2.9354989274667247 0.016596213795784322
Ni 6.73401839702971 8.519271714029095 3.756706810552959 -0.8790169763105378 -0.6460446908807326 -1.609321088661983
Ni 0.1247460103454731 1.4892486521478243 7.239719659139531 -0.7852311034066283 -2.0681933260558445 -0.3547420451411504
Ni 3.0750354201737986 2.8778867463759585 8.719758682153506 -2.36510894710683 -0.4084500761875675 -1.447521566722262
Ni 2.5330404807132694 1.6344898504003154 6.742206683556318 -1.749975601092973 1.2226415713822878 -0.5058884582423997
Ni 4.11754364455835 7.662479775126223 3.939209468301178 0.1265540684738659 -0.41321124502163675 0.11780923240170034
Ni 2.0622163140739476 6.416940460661607 7.151502807487304 0.8427307402849938 -0.2303883267527129 0.30156597533880325
Ni 6.671094088478561 8.645286553255538 10.700243577785596 1.0791495895025027 0.7725357673271469 -1.024854575604364
Ni 3.434555405573467 3.9771413570309546 6.514912704088625 -0.265801159034368 0.3207734015051895 -0.5012028798412723
P 6.1879694846525455 6.5324556023795886 11.861405771665725 0.20293023054176018 -0.5274666986338077 0.14266382955153495
Ni 1.370058154573759 8.475776924877948 2.03825077759729 1.9350664894604672 -0.36706739947572264 1.5632651748441853
P 1.0576529068066065 8.427831076624711 11.783784656971465 0.6826865104734824 0.9303778472810171 0.2713382868025133
Ni 6.629991051002605 1.7509376829259966 9.939051523215705 -0.3503647420090611 1.2362486206427612 2.2232827829652417
P 3.5774325558381252 7.754788461401141 7.930643157639824 0.2717784596637255 0.5058146675816708 0.9437972060107165
P 7.813160130663221 7.309220823069332 8.306813059141302 1.3034143198559809 1.0739631602055568 0.05130224981840197
P 4.385844622052493 3.7563614379172368 0.5778508985509905 1.1917906474397022 1.4949167681767739 0.48478587193582967
Ni 0.41736528460195743 2.623068230062426 4.864887549274515 -0.8371951551787452 1.1662184553975528 0.36009919568800564
Ni 4.665596456987702 1.450814403220633 6.962796370683515 1.60592697537877 -0.13847267428832283 0.5319892690945096
Ni 8.488705312311412 7.411041108670297 11.607418365972915 -0.6644604743837589 -0.14410159043932602 -0.4094911158575722
Ni 6.80090433287297 4.634799191208705 6.369632720673834 -0.9451331512133206 0.7846482343199648 -0.8516722657489977
Ni 0.391774465133665 1.912163908783718 13.452489484714437 0.503721532498068 0.12862380651870106 0.4338865139828012
Ni 7.513738677704245 2.4056404571189556 5.884310290984129 -0.708931045992308 -0.7914824836329788 -2.1751103370250733
Ni 2.6903327829662373 7.756099769269391 10.551178347221537 0.6858885623505478 0.5943338927700023 -0.03601652730392507
Ni 7.886713420597166 3.3786493644861966 12.761511502295676 0.6406492308967742 -1.7394394774483397 0.3722281177410557
Ni 4.668708504534185 5.663418633664737 7.677507178605132 -0.29512921857452395 0.4453824304375426 1.1461671931736326
Ni 8.135612582378664 5.549399491064056 12.969653922693185 -0.33601258705244713 1.395197560507565 0.22284291030528716
Ni 6.716648185056609 8.303293767390663 13.23023665288955 1.001536983924346 -1.4838327424484703 0.9081771428142618
Ni 3.076365197166955 0.721566547086333 3.67668009233983 1.4410634698017442 -1.8408615267412685 -0.023108046772373107
Ni 1.575988897263901 6.009677787382655 11.273431022298087 -1.23711405396685 -0.989715822919702 0.44831914446836335
Ni 0.31226672933036526 2.4955758608435876 9.507143649663593 0.12213099970550578 -1.1832450718625362 0.5211839509488896
Ni 8.608754624193557 -0.028902333563749143 1.5240047748501961 -1.4849264897332812 1.0330569089094983 -0.036273380509737524
Ni 0.5143919088338431 4.699745868936946 9.363863872476006 0.016292566512436456 1.5163253157595369 -0.985023045429723
Ni 9.057092631261108 5.840833047501643 6.985354559842416 -0.9015077012138861 -0.7349030445760376 0.23023303212177124
Ni 0.4594721190164973 7.459651845420113 0.25123181225699204 -0.46373393636153687 -1.0550930627739312 -0.6478478055277423
Ni 2.257102520070932 1.6740507159467086 11.167940921578511 -1.0580264343706425 0.009578130606738343 -1.5438947407373733
Ni 2.5826023773956903 2.688005673228214 4.497218985966785 1.4162831775332705 1.6750109746606248 0.30133997537092616
Ni 0.37033642840024955 8.2815833110649 7.266670729657073 0.12007360295584482 -0.08967750716249072 -0.6608113076669458
Ni 7.14033914493851 3.616734853635849 3.57410903681148 -0.626722850623669 -2.2744528780811537 0.07662118819916482
Ni 6.928544455091048 5.504020851172605 8.826668135122027 0.4208710755597397 -0.35322200895219813 -1.3205890318630547
Ni 0.5695176293938791 7.428226629394348 9.617688749869652 0.4850288411845711 -2.5067345652018376 -0.9063855981314777
Ni 5.787549622150876 5.563833112177271 0.3601599405776246 -0.3390578016366741 2.9668694713582062 -1.2414489338967782
P 8.46629302923926 2.1025436483038957 1.8770762652893027 -0.16795911378321396 1.3710055366423937 0.795655898284378
Ni 8.884941918022111 0.07355790721517153 9.27221361050395 -2.3079687504504123 1.8416598542728477 -0.44246191435663795
P 5.123067446320748 5.779903404440228 4.8194341094272 0.41349355214874595 -1.3585968785653957 -0.8024397539754309
Ni 3.227488811701671 8.926201943059759 5.9147067767526895 1.1849527985822625 -1.890387401385538 0.8810658884197665
P 3.497091862501612 8.562544873681384 2.0125168224109844 -0.07587608250302416 0.09491304452981719 -0.6272175308719005
P 8.915683776426393 8.053341865489584 5.1776815721209175 0.7660329332116227 0.7309826264757088 -0.6475102196826655
P 5.104598321415803 0.5188457383046707 5.049647134086118 0.3949129609330812 0.10091708463205201 -1.3559707537964585
Ni 1.2237365125143285 0.4305245360967311 5.157948235616228 0.6456466841113655 -0.24421829065726972 0.5276569602677429
