# total energy = -340875.3096662649 ev
CRYSTAL
PRIMVEC
9.22177874814257 0.00000000000000 0.00000000000000

0.00000000000000 9.22177874814257 0.00000000000000

0.00000000000000 0.00000000000000 13.49700534958591

PRIMCOORD
 96 1
Ni 1.5306031449450137 6.520101781451092 3.10688913666656 0.5552724079921663 0.535461029693194 0.21250964670007916
Ni 4.894044006326439 5.115551128045589 0.36436630473797516 -1.7350130662458698 0.6223997977682829 0.18202176252386715
Ni 8.958210935607585 4.75203783782714 2.913206887485429 0.6869997931368556 0.4553133163980095 1.0005013435709802
Ni 4.756989932929687 1.0020015744178132 8.18895690883163 0.26812466496122206 0.040752499327013685 -1.1638520120479052
Ni 8.173041041164058 8.06027713257198 10.775954444848747 -0.9602723208476043 0.13808495193160092 1.433779791656137
Ni 2.4151100383543476 4.190302416827962 8.812518822206073 0.40876452210419284 0.960090286743785 -1.0699797500777766
Ni 3.1614654667147812 6.190460083991778 4.693327384437258 1.7528051001219682 -0.27313265969877476 1.4802766496660957
Ni 7.43254144220794 1.8311501309545386 7.83945242246845 0.041643643682715385 -0.8569098599988533 -1.2564592912626813
Ni 1.687041396936839 2.9912867646246406 3.138553035631376 0.12460774338077252 -0.4144805986523636 0.8435717481290503
Ni 5.6451209853246835 2.9609194477295047 1.8134710592206593 -0.17061994844482872 -0.31003518915207895 0.307821983550844
Ni 7.473642909381223 1.825257414435865 0.05699704692795776 0.45526215144509985 1.6960942776934855 2.823892738551943
Ni 5.762053137839206 4.48572209394174 10.865615953718478 -1.7475199404636292 -0.7389124228457468 1.202773114593135
Ni 7.285924384413903 8.924883427785229 4.001214457740106 2.3049052810337405 1.6325862298375107 -0.8439813248626432
Ni 7.56613734863364 6.499352779624777 12.553361894539552 -0.7240735580607013 -0.9423884985886478 0.4876328544663215
Ni 2.0835133238340657 1.3481779208880522 11.537280508571332 -0.37049725109287807 -0.6713857407486824 0.28976718293166226
Ni 6.627904373162035 1.9246128569588508 5.143115024249525 -0.09704885992589737 -0.35101908776360835 -0.5726168128078847
Ni 7.903599114336826 3.6061211867420058 11.279231167013537 0.5916951695955746 0.3606321853733402 0.4533016852846194
Ni 8.24883483939094 8.760283901741719 13.404389120779806 1.2320119568535943 -0.11186946987849765 0.46829198804586447
Ni 6.919017479674529 4.039729216019041 3.7843173031378345 -1.7134597655551265 0.4062114166650359 1.2399980603828646
Ni 9.143679346599074 5.084482955977653 8.901396479895698 0.384221542657506 -2.3242325206074423 -0.18105605617648818
Ni 0.983078484752214 5.011529465556329 6.6481120565851475 -0.5872443329130725 0.9811527638410392 -0.0307503938089793
Ni 3.40171124252774 7.994027875185202 8.828593304465384 0.02695056044691487 0.663269025178819 0.9945273853757323
Ni 8.172026645519216 5.743664911331796 5.200180312339044 0.18391203756804456 -0.6156866474141655 -0.10997662373115898
Ni 5.2679779063509935 0.734815294633567 0.8378668260152135 1.6827178563865794 -2.000904471001199 0.39494252861943596
P 1.729590683348669 8.741240928954458 10.157130681313577 0.8675287731652801 0.27823604236361116 0.5975482859422419
P 7.184641590165718 3.7790387570732205 6.331809661855507 1.3771535585216605 1.0474214051612865 -0.7687670443133341
P 1.4100376116662394 9.190461429383472 0.1816100188296518 -0.2192042851114354 -0.7540811601663852 -0.34375057912665313
P 2.890308289069907 1.6676664401203556 6.968382582641838 1.2279588698301434 0.2521259755401206 -0.11132079646387924
P 9.095919755284191 7.087204277589343 7.171809485258466 0.7027974222907445 0.39146871113822257 -1.9663588718158458
P 6.607026266435467 0.2009794425789816 6.577832881954771 0.5109000525243782 -0.6044961780149848 0.10248417200885576
P 3.2837093636968397 8.389098091736829 4.078012507655381 0.257809141967827 -1.3510866862312796 -1.083169252184857
P 7.661508982805973 0.796709105992535 11.812632673296557 2.0795226350257345 -0.20672209348402465 -0.4211212438973328
Ni 3.0753801635820475 8.627425737603177 1.6572301532906486 0.10783052392243365 -1.1809269652523209 0.5427747897457879
Ni 3.086879721483121 4.120724097370386 6.24398420910294 -0.052679075561270564 -0.2959324312021097 1.132893873103494
Ni 0.7776375456916453 7.412834501362235 12.170074344491697 0.22121334512166418 0.3387122453717973 -0.038509726039424
Ni 1.0252312346846966 2.569270511034573 7.451885044977219 -1.3300658610052383 0.4061329980186167 0.0207634577995965
Ni 6.735190545271967 0.8729741371053383 9.998028257487253 -1.1438958806409525 0.10870444188695473 -1.3717465285734762
Ni 2.309179467697067 7.5307533841858305 6.361152439149353 -0.6650158326665966 -1.254520936589388 1.0973884811080328
Ni 5.244084278025668 3.2187695988697684 6.723074050383259 -1.3300982569050706 -1.0723929875049596 0.5226728767895903
Ni 2.227059529357807 6.319943077166573 10.468236603808048 0.49051557533075524 -0.5464866913797363 0.013613477018376556
Ni 6.365701542527539 7.386672315503899 5.086346677430586 -0.9724526649638799 -1.240706656414115 1.938470887156326
Ni 1.3307395375753581 9.192536329566101 7.922890152968146 -0.632011352716118 -0.12339701090212296 -0.8714268226681056
Ni 5.889249129923811 2.097705641083265 11.909271379847086 -1.039384393789423 1.1248128958675723 -0.22221144736887538
Ni 2.490295199194323 1.6035566353663369 9.13941611835716 0.11725875921486903 0.1817484542578225 0.3791194455442503
Ni 8.980453865565394 3.0314199450460286 4.96978616259322 0.1615519247052895 0.7403460699684798 0.6173943741338915
Ni 7.017008098966271 7.369722686456448 1.3489728382024648 -0.07710558403475107 0.1738040025997652 0.2364892974441282
Ni 0.8131081948581955 1.7040279130986489 1.4157412817238286 0.43555104616941764 0.2859367534419785 -1.6297083940690837
Ni 4.688020250859016 6.627369510003845 11.867214536411932 -0.47094870894242113 -0.5914434585960847 -0.3390099791178742
Ni 5.341161941237053 7.734720683027802 7.440372576586121 0.4828578016751813 0.5032471639648107 -0.15511645349259093
Ni 3.920058195263446 3.4193156178550446 4.216774454446904 0.8382657625351048 1.0613958650635076 -1.089801412789394
Ni 1.6243517460855994 4.800479840757643 1.4337468044197752 1.3170026000633768 -1.5075079745782232 1.433769764353808
Ni 6.058284331468857 8.571735416701348 12.091940058858807 -0.7688367212090049 -0.17956507345325848 0.46255894221682914
Ni 6.769145134038408 3.8424292630972596 8.692368268963826 0.00212167432869312 0.6581299041800407 0.19269055509162297
Ni 2.579386802147225 6.559063795991616 0.4220854169294887 1.7079992566611877 0.9857447540870957 -1.7399822373256875
Ni 1.1477148979100813 3.5205984121032303 10.697524140123136 -0.40832974855961934 0.20323387782510807 -0.2991799916051299
Ni 5.277633108534172 8.092793123878462 2.8385685781158085 -0.7174606807298741 0.4231159057298584 0.34868529742410914
P 6.512567588343491 3.966582068247339 13.270377312139718 0.25728103737849883 -1.1610536233671616 -1.7894014111887635
P 3.0870826006120895 4.854371914834525 11.878592366835623 0.8715438078619443 2.1008414511081686 -0.09863445924546238
P 8.756687408091825 7.057528594088417 2.8084161286618077 -3.100067270400835 -0.13502302517682552 2.5700783195658063
P 0.4001006967721843 1.0461554503042116 4.108529217363666 -0.043684328261827984 0.06877315290965574 -0.6318352321495699
P 6.375043204238676 1.0019831308606344 2.7264086960213394 -0.8100671886137017 1.5037081412161586 -0.6129957308455637
P 4.896561551881365 7.5551726538907555 0.5766258268876006 -0.3759518464495461 -0.486350388209472 -0.4669182476267894
P 4.0224199376066 1.3299833517310213 12.759582996068792 -1.1399078425274818 0.3197899545459977 -1.9262758877520307
P 5.6406207573730205 7.920262868248005 9.764745846687203 -0.21145523729363583 -0.23918407066747194 0.47261864044567636
Ni 4.680467614194238 0.051565419338757974 5.632205884410126 -0.9725454817880025 0.5499880196647754 -0.4471685758036879
Ni 7.094729248918353 5.955360060631745 9.786570107897052 -0.34967980012689454 2.3325587810849506 0.7465313728435853
Ni 6.99707983543442 4.958218363530585 1.600610277107 0.4499697926979089 0.5845019942812449 -0.3295393206232776
Ni 0.31368064307665294 6.782027958727902 0.9687450742905956 -0.4220445270425506 0.23558889711704586 -1.707524116796982
Ni 3.547673554041924 3.084159296799226 10.798265615968118 0.5165068571881943 0.2511358437127094 0.1173942563514688
Ni 0.6246048965329123 8.856955806695169 2.2645276157668373 -0.2605136853831836 -0.17551070087822673 1.2102624809916447
Ni 0.08358988984642199 7.917081354634636 4.847922202889048 0.6574781295286547 -0.24002430718058018 0.1675636781170082
Ni 8.25495810037435 2.305859627404857 2.6175824868869646 -1.3885247764730797 -0.3214750555579044 0.9398006832568137
Ni 2.6557154635322955 3.227797720108863 13.131600610502453 0.5173990299851605 0.4267537595927618 0.23033484780695818
Ni 4.282815299637559 0.6854363589983732 10.623911292532664 0.41483463955767264 -0.7845405050975068 -0.6115438288903855
Ni 3.7812888710490515 6.001561171365006 2.4986335313949253 0.9926682206798065 -0.3439508680629173 -1.3294002023967812
Ni 0.9744837871068249 5.071019159237022 12.823396781730088 -1.1916134984318898 -0.3920868043381957 -2.4284735274064047
Ni 0.4300594888758063 7.2646036323150405 9.202501383509887 0.677793186936923 0.7166428128142691 0.3164084396682745
Ni 3.206818173817811 1.6574026005502718 1.2148448351521524 -0.8563161922789123 -0.5535808792223563 0.7956821235366232
Ni 2.9964878477491035 8.419640622425163 12.061059088896238 0.007935967017625042 -0.2850301824673091 0.7216024708123895
Ni 5.2021989596722795 5.63695048949441 6.31515420754506 -0.674234265941071 -0.6989387106662865 -1.7385277642673478
Ni 3.4748583902994423 1.2546875295479718 3.5201806655331267 0.5128880294886845 -0.5151395445270225 -0.2727097132287432
Ni 7.328602775725987 5.952261543025681 7.451170357136535 -0.7235526525602248 -0.3154699870144051 -0.46144565454799236
Ni 7.5037981253688 8.35789159299005 8.581207105490595 0.12443599368959861 -0.08622837227162569 -2.070701694299995
Ni 8.858348295262179 0.7370239106057458 6.1396388621851905 -0.19125305131414805 -0.2171566585537873 0.013363051570467308
Ni 2.0896550283746547 0.27531066672157234 5.4076020894406325 -0.8598290905281771 2.406355098240811 0.16722403538940234
Ni 0.4832700735149263 2.563470012301794 12.721885287372883 -1.643165290904938 -0.31656219163731936 0.21495039493108786
Ni 9.193735160782735 0.870844828429029 10.027775870861174 0.5346927840686018 -0.7392618357653655 0.4378496123956072
Ni 5.0299545791780975 5.671661264105189 8.601776282634416 -0.6317928089474087 -0.2478070364497926 1.2687185682460087
P 3.4784087750563897 3.6298949319456684 1.7519654847403079 0.7876715945273208 1.6744090794105682 1.2054794577807044
P 3.0286349679120073 6.151009315186011 7.8338907678011385 0.10856534520592914 -2.102756922963327 -0.24505107097121023
P 5.419362623675788 5.8344994304381075 3.9398840970529547 0.6302542608156951 -0.8105862943419653 0.3098384997602406
P 8.834021243343148 5.7197159523349335 10.994458033281305 1.6223918058030125 0.021907341596052593 0.35495338982100805
P 5.205592574193206 2.6183488166877495 9.59618187802808 0.7894685385267436 -0.1926638156187456 0.04030358471505317
P 1.6514545533600613 4.67394781673148 4.516341165392368 -0.7825018774009233 -0.637191868475793 0.18720716337954854
P 8.734306151455172 2.7374204218350298 9.338010808992902 0.5149343704947518 2.184846847586547 -0.9297692671627408
P 8.959474319274342 3.7845164935553672 0.9395627559442072 -0.03250748570940208 -0.516368017617485 -0.16532476148416045
