# total energy = -340851.78884402354 ev
CRYSTAL
PRIMVEC
9.46935147730691 0.00000000000000 0.00000000000000
0.00000000000000 9.46935147730691 0.00000000000000
0.00000000000000 0.00000000000000 13.85935306375006
PRIMCOORD
 96 1
Ni 9.323125774644527 7.403584062623531 1.5629742282042343 -0.9711601714047017 0.5601855290230676 -1.2249954163264452
Ni 6.456743606086988 3.038411877267403 12.7136838955131 -1.6856052052367037 1.5383612125136539 -0.5026313847576828
Ni 7.788607894634491 5.1681447845453405 5.320688461737444 1.1434857896867274 1.6359942270777952 0.2238536109579887
Ni 5.748227788115418 7.729528610622775 11.473465884657886 -0.8053371301278839 0.15666682869884632 -1.9570753896313908
Ni 7.514858412106089 8.06727197059166 8.963245911672885 0.10221137796344332 -0.9811998150288908 -0.9928921637651545
Ni 3.4114569796302106 5.426913752999927 6.350119655126333 -0.4631014449838606 -1.1773053093393335 0.621420207463833
Ni 3.1958303766119727 6.553009033441229 -0.17023431966536712 -2.7646810040784775 -0.8091637029628258 0.24541256807568698
Ni 4.063563870713209 6.840280749912367 8.160955105791711 -0.48582228362014396 2.123121088441976 -0.6467221765637313
Ni 7.478694958725621 6.103366346790751 11.842733662707138 -0.9401490677351678 -0.8424944559044717 -0.16571042695835334
Ni 3.2946241208168505 1.729046767885125 13.080221659524753 0.45092907128738474 1.1688728623012645 1.5585356305789997
Ni 1.2927937442563764 5.763151486080231 1.7076659191321109 1.4167431478888246 -1.1385256174679748 0.1904830059173429
Ni 3.2645494604512137 8.856353031129617 12.907215660675185 -0.3637136525121413 -0.8619147694126124 -0.6517484261337292
Ni 1.4856276182128736 3.8079860737142965 8.370619805105225 1.0288801518239894 -1.6111887379983412 -2.7555641293788735
Ni 1.134570350034263 4.8477682152284 10.07561157937359 -0.529712557245191 2.7769485085919206 0.5503492596589361
Ni 5.62260737110958 0.304404614141021 9.837271789846216 -2.2696621415607297 -1.1749131549580734 -0.9462302409322415
Ni 1.865225511814038 6.984290647532206 11.512826191104928 0.598760303972472 0.8195206207171176 -0.07953450519121787
Ni 3.6197637739385504 2.98985304277276 5.4282792334863 -0.11599840444520668 0.7839514653632563 0.02484122741339593
Ni 0.5961439706501025 4.713918931768613 4.064061011666987 -0.6441855261848067 2.6840933750323965 -3.0023877188694743
Ni 9.338040003257838 4.408778549016002 11.762530149368072 -2.9578379572835574 -2.036671601298479 -1.1281365609241667
Ni 1.2607778668331335 7.975485546497165 3.2650144056098886 1.1676053084427505 -2.572991636557859 2.2477897669676707
Ni 5.383023308795037 0.6060280797463405 12.058745668331445 -1.315218768690077 0.23530273333519475 0.4272823784027222
Ni 6.234071805552366 3.380160772921007 9.688977010672392 -0.46125513580374106 1.835982344272096 -2.199370238013702
Ni 3.7426664870637407 8.986196778904684 3.609557706891295 -3.2738658736839614 -1.7201194369634893 -1.7012650232611473
Ni -0.05328593476370074 5.614406912710133 8.091755925831393 -1.1683632696546975 0.1050169657330385 1.5692028804848588
P 7.5558985815093225 9.17679588590706 10.755385074735646 0.6038356616128504 -0.8647249851678979 0.6069950331774384
P 6.681470255897222 9.345890095651766 4.490014221668624 -0.3495623007124238 1.0032470246369174 0.989334271210567
P 0.09520391305103264 1.573219119592642 11.50130861887485 -0.35199353586173576 1.4804275734216632 0.3416589867049471
P 3.3669794356322895 0.7212691405724639 11.205563726681053 -0.37335323248443447 -0.018080768761110796 -2.0191742158446644
P 7.279526088615278 2.6581700677642037 7.4266589783599875 -4.333858944862671 0.41105126125584046 -6.5954231399066146
P 4.89352412167889 3.3472547764567158 11.214059628847313 -1.9070144684192576 0.43481236823118025 1.3804255444047129
P 8.622119152412866 1.38268629805077 1.853729719092412 -2.2159517965214675 1.4177962717436872 -1.2398525359439356
P 4.881829472575754 3.245279330147665 3.5903207193179973 0.005567209675132348 -1.0772114919395255 -0.7718623954092062
Ni 5.811473586787361 6.088139629577922 9.311420709254739 1.8519409244838816 -0.32807353471102857 1.7760576428920059
Ni 1.9869161479471626 4.803167569660972 12.064179182222441 2.0941732950593743 -0.5850344697459472 2.6041780894629922
Ni 5.356679572920604 1.5017918012242537 6.9575340479323495 -1.3116372219864056 1.6052476899235582 -1.0792169524053286
Ni 7.200883124403497 8.52043725600033 1.1853327026230764 0.3982173427159658 0.5290065323171018 1.0338092136944905
Ni 0.771474695293047 0.43919893888055883 2.498633274488969 1.9227665890471917 1.4321787657176044 -0.07999833220151384
Ni 7.045074414814015 0.861228049620383 8.285246025846876 2.010105163663861 -1.9409661427743536 0.3012911244108618
Ni 3.86278521084778 4.165018502689732 13.2767476336313 -0.1726909720412445 -1.303994360729167 -0.5235794477642596
Ni 4.852682808657167 7.652050376645557 0.9121930463313074 0.7832122732043867 1.9988758706069447 0.7639174295305167
Ni 0.3517286451999972 0.03460574505863385 5.102819516283883 1.1786988472527506 -0.34322864518491214 -1.288254581396407
Ni 9.21941743701088 2.6634918433074932 4.150418656546238 0.18306048820102666 -1.5962025490021543 -0.44927662328562623
Ni 9.142213814227178 7.069353832061337 10.582877163775004 -0.2906333875866995 -0.14770524863018433 -0.5669866111053009
Ni 6.61917139237533 3.161627078992111 1.2502327970021594 -1.7339182905197945 -0.5342479832216992 0.4396424426299719
Ni 7.212757691185144 6.116670785648975 2.0932058307998487 0.00028899199532853454 -0.46809581287465835 -0.13020452074225963
Ni 3.686049234442159 1.6162099754049821 9.01786513112786 -0.4517924477289445 0.08385987203944913 0.20998585183696095
Ni 8.52410189503103 2.7143517302167623 8.77302557873053 3.502196289466381 2.1481962862430484 4.69323540345204
Ni 4.677461928491629 0.9336307111933244 4.702630517844849 2.689528944225671 2.8490314426011 1.0194765991219024
Ni 8.30018960944984 8.884609576007154 3.1101497903650084 -0.644631869693606 -0.10044580142258829 1.9122674892880807
Ni 5.285773068884743 5.931933207225418 13.44939379712385 2.537931559629932 -2.207631192470914 -0.8651559020577294
Ni 0.8672846468401127 1.4984869975505737 8.897164042226539 1.525837111904714 -1.1905351777660464 1.2250743491934966
Ni 6.908526366176582 4.68537830634606 7.73292337313571 0.50962812779049 0.8304318683129828 -0.5611219247944078
Ni 2.1063436090716636 2.6290612812516194 10.984479936393065 -0.192108714446224 -0.4813922728732483 -0.29864237393410503
Ni 5.661801016970213 0.3816480082010259 2.3488688519622665 -0.07103289547810993 0.09703806129261996 1.024602607494558
Ni 7.993865557759665 1.276989396602016 5.708141182408286 -2.069371405524346 0.7300642284264974 0.10403557565637567
Ni 0.49716936183156457 6.2171216663664435 6.077104994274372 0.36164211469509333 1.8037540803660095 -1.8628385452329919
P 4.321878310295772 9.292274627455846 7.7645642642395325 -1.1195981844358525 -0.8862931982569768 0.9728316455698536
P 8.106853859863815 7.899058410536504 6.481326042582326 1.4420646573727487 -0.07643272633744255 1.0016472842499653
P 1.189956586960778 7.670193654120545 13.535501451123487 1.327455419965585 0.39430180971164347 0.6256093058445161
P 1.6722780056395345 2.928434828940416 0.3427999936701611 0.1680843265071686 0.2469508590970844 0.5448123890011068
P 3.9467499506028507 6.863916251257653 2.531549687239911 -2.1905397842062664 -1.8655315186841226 2.127891513247426
P 5.057637452534324 1.4298910152808395 0.7020264713882665 -0.7940129633643164 1.2869793142284094 -1.3941938018333988
P 3.4688128416688326 3.3723296192300807 7.593885831988791 0.11084128572429944 -0.41085817140842784 -0.43492086878458647
P 2.060000602828141 6.22512326838438 8.53313470942737 -1.2121681826547899 -0.014338013889226918 -0.5637609050791518
Ni 2.2473043755083375 1.4810065746806222 4.220145279385133 -0.7909862607228506 0.3088280562178552 -1.719777223132722
Ni 8.617886352292134 2.663756985149508 13.362190539155602 1.7407947059246536 -1.1761933072220776 -0.8567861899367955
Ni 8.595879579404937 8.043466020919364 13.13822333133571 -0.11098938126638949 1.080723618857842 -1.517035197342368
Ni 8.807794196634973 3.6356154683504136 1.5417979174436314 2.0731866655053777 1.103055706696139 1.5432290821289165
Ni 4.36796564404878 4.560231356915247 1.7877453839665203 -0.09879515319304275 0.4794714017014517 0.6194358300439525
Ni 3.616761989512887 4.861659753879656 9.849953145375705 -0.15409161177250236 -3.1815624988628497 -0.6825695252796438
Ni 4.0625222420481535 7.571504072782172 5.409278032765367 -0.24678013784717495 -0.397345995854606 0.665914433221466
Ni 1.0548289410484222 0.737030876145072 -0.11090977944978764 -0.7461634479812053 -0.33179443520604146 -0.3127268770516291
Ni 6.033899184182969 8.454379059932734 6.615886474339801 0.15409109755187012 -0.32115263922147913 0.09696915572789752
Ni 9.27415028868386 0.13230483223005232 7.277075420446945 0.1567717297078268 -0.48684095469264543 1.6815963411876265
Ni 2.814575346498218 5.294560627077222 4.017979359524879 0.41995267751052834 1.5616919168197942 -0.7414133348907296
Ni 2.953159305708262 8.761555353257956 1.4394323338527588 -1.7982210663629223 -1.4447810278626472 -0.300547818486934
Ni 9.181057094082291 5.722509029440019 13.454604781254583 2.5523377077529332 1.3383594684725983 1.789358987986602
Ni 6.912759166297313 0.9204967206621094 13.553005547372189 1.8963369341007534 -0.3282560830354799 1.8225043643903192
Ni 0.8183697647290499 9.178879143237173 10.831264882179575 0.6824468836588504 -0.11837178977338969 -0.19642945330876493
Ni 2.817993782389904 0.6819012586442209 6.222918803355059 0.9571054930838484 -2.561688295729898 1.521330225173296
Ni 1.3314097596754784 2.217191837736698 6.660015546202503 -1.1278149159186899 0.8749970565178673 -0.9093881324032275
Ni 6.438155269091476 3.528053104656058 5.174666326923745 -0.5518325290726819 -3.3495293259555474 1.2204733600863755
Ni 2.736349033752459 1.454132555122159 1.7590286286060568 1.0489792365667097 1.564060417051971 -0.3532927142891335
Ni 2.036327224076852 3.620009977077564 2.71798512038751 0.24599877959646016 -1.6163083186130938 -1.410507708502074
Ni 5.1318298215408635 5.16429075848463 4.304437658702122 0.2386089148902923 2.865989667721993 0.3142813660229426
Ni 5.66596753163044 7.732814475593454 3.510767750427017 1.7806470620349013 -1.4575879498193285 -0.37666918423154483
Ni 1.866494404915107 8.491830345117272 8.174454613290846 0.5227191566464933 -0.2166110704629624 -0.30774202224252806
Ni 7.189860799256897 1.8257004386508864 10.771350401365513 2.4437931884826107 -1.5773663901322577 1.7223221010417626
P 5.5723914001023465 6.0023946517407545 6.477334710924859 -0.26887825529779497 0.2357259369155424 -0.40166056406955986
P 3.9174138996542536 6.733703198774065 10.43129746656565 0.8115370882910087 2.5093820301270138 1.3563877867292187
P 7.40044023792536 4.862786606708218 13.815016821780553 -1.9587293802950458 -1.393316284324452 0.7365840318228862
P 8.739529641667756 6.50178931117494 3.7518792191385923 0.07322990312942873 0.5938371556392418 -1.113992922433933
P 1.8604529586577783 7.960306176041838 5.56254800921756 0.8972640954461838 0.4389577578581214 0.11416906454595176
P 6.37833737566272 7.753097826507558 13.40974183465059 1.6796366463580943 0.027876928915926184 -2.0205698106406107
P 8.061022198601322 4.92161021822942 9.775431242936948 -0.06653629315933703 0.836460848115882 0.552042588200959
P 0.3671267576749854 4.080959069419657 5.906135852932564 -0.5697708587186574 -1.7004674670605164 2.7852876245852354
