# total energy = -340892.3094356039 ev
CRYSTAL
PRIMVEC
9.06046791897285 0.00000000000000 0.00000000000000

0.00000000000000 9.06046791897285 0.00000000000000

0.00000000000000 0.00000000000000 13.26091064555283

PRIMCOORD
 96 1
Ni 6.575598346364971 1.9848948267504978 11.381322172362708 -0.8198733760708461 0.10170461353035386 1.727063215271174
Ni 4.4444585070223575 0.23023826829081273 6.270328531188722 -0.4678176195126072 -0.32388237944781645 -1.8646971957082854
Ni 2.5507754107572587 1.6426175303814796 4.7225414821773 0.8267788449414277 -0.3319577002567831 1.1245907525544374
Ni 3.082488970262138 4.268622006224689 4.934451329925855 0.8621919343333991 0.8174015174915857 -1.7870100281384513
Ni 5.237149784308247 4.446116572650531 2.6645014979609614 -0.6382485918750814 -0.16151978591577346 -0.1598637383695892
Ni 7.355532484828624 6.071147734811871 2.6547678372814674 -0.14774972871487457 -0.1868551793567685 -1.2423693888285186
Ni 5.196758218349777 4.764283963901675 11.405112242963236 -0.24317442277378765 0.006296374531673027 0.4478236928891836
Ni 5.576591154220333 7.833309078844323 12.4171184884234 0.860254350991054 0.7561280153930848 0.7032131696719244
Ni 1.973170581270404 6.58432357696569 0.27200249513817987 -0.5501420287441364 0.3288446085490982 0.3847571034460019
Ni 2.9953725712736503 1.7089492159763544 0.40577486760054404 -1.3318162680374417 -1.183906359595619 0.3025753904399241
Ni 0.4844532528211715 -0.023407718854577084 4.808962943276821 0.948948668304669 0.7879040222531011 -0.22366514909626645
Ni 8.616305655462748 2.17258241957905 1.540307632748811 0.3906780969161272 0.9535090339818418 -0.0035334670745552047
Ni 7.194509849069559 0.40506180877575015 5.094231775533976 -1.6859019105415158 0.5726296683236912 -1.3010417058587465
Ni 0.7154770636800865 7.35755296917334 2.524201058366906 0.4666367118306286 1.2120020893905707 -0.5394632088740515
Ni 7.650532259624899 3.809682125001196 3.548712561641309 -0.334122826228902 0.3146922283081161 1.0112804364643553
Ni 7.627563973464127 4.044284820685951 12.490266364029614 0.6106179746420065 -0.3884412371658085 0.44046776674474464
Ni 7.9614331556094005 8.554014938557302 7.068105449114469 0.38442183159377025 0.5221311453535072 0.9403773816958901
Ni 7.021463972389254 0.7044713133055345 0.6061108736363692 -1.0718574267164636 -0.6535145168952164 -1.7257735499254732
Ni 1.7956397729729068 6.437163457114309 9.202846824452706 0.5978187659948091 0.8684574556271366 -0.41959400861952895
Ni 0.12511871955816192 4.588828002756374 1.2891831738237538 0.019144948359567027 0.6453700334112111 0.8291216341419914
Ni 6.289432527784377 1.7850480859820028 6.859100387378989 0.27019594566795396 0.2718206257555706 0.6086281979054873
Ni 3.23263904452498 4.36110220221798 0.32141556899814006 -0.004805906029075594 0.7630090587836343 0.39071512080164966
Ni 6.14894997278526 5.554293342685163 4.703326947873101 -0.13841533868782613 -0.3315283260288484 1.0449510892439229
Ni 5.040211453739991 3.033209085280507 9.67053277535312 1.0252870351560923 -1.0899613354060262 -1.1918688089758054
P 0.1922631291248793 5.658389058543586 12.578556999659694 0.2160379715683118 -1.2091808178916916 0.010994037117658485
P 4.011957071170515 6.308531994146075 12.503765555173967 -0.4227829478704718 -0.8010577860262398 0.2885302252007676
P 2.3866178531001156 8.465122687857765 1.4405455386934243 1.3735822962306345 0.13965641018377883 0.5651125340110397
P 6.2740569137351345 7.551664433752577 5.839149923652252 0.2953444199091236 -0.3353387009138741 0.49439922665587754
P 4.891819110252373 1.0393534557635382 12.698780348404181 0.6262893626306762 0.010957270342452098 0.11756626315295882
P 3.9941260703167085 6.411993477250553 8.000108668945048 -0.2122129413952668 -0.15687663071680724 0.8254768383005525
P 5.010185063074589 0.7744797367797154 3.9190628117935753 -1.0421470441362246 1.4608784476451422 0.5882511769110321
P 0.23170787618638555 5.591078842414051 3.571587524982571 -0.4630199410136478 -1.7308278245199287 -0.38065516546248634
Ni 1.5794570085563366 1.1718899804024985 2.591075465989801 -0.3277662878832549 -0.46858457958561883 -0.3040460614481796
Ni 1.7837161971987154 6.59300350522684 4.660706506807905 0.7144234365654469 -0.33148153195131297 0.17595473039418086
Ni 5.714074694340075 5.426939405692735 9.084558791654546 1.696909574505929 0.43634937370099686 0.2556663845932113
Ni 8.56577542590905 2.3722841928609286 10.282987788622535 1.5758669227685957 0.853402361066227 -0.5253044008751662
Ni 2.3683428893185474 5.319156079393509 6.9575623042887855 -0.33567885786211216 -0.7454185993953808 0.6560018020934444
Ni 0.6038647836406076 0.13145470477008597 9.224607350240605 0.22210063282262393 -0.7072243477138466 0.08557068408296876
Ni 1.6941353509377504 1.1499908294555223 11.492422535965074 -0.8276555911194262 1.4430558176414245 0.4045350574038775
Ni 4.021724255581288 6.697932784133308 1.5643368997022558 1.1648897092838002 1.0994937003764935 -0.28578325858324977
Ni 5.70510483110569 7.94194408912742 8.031284832988677 -0.25330868299431214 -0.18408455859016684 0.6390651742391059
Ni 4.856356438838858 2.7928801738744076 5.006219296268841 0.9924219089969553 -0.87345079507667 -0.4294750151786668
Ni 0.9582169655979731 7.222180518077447 6.789149044852663 -1.6353362817788224 0.7750449069022458 1.0791434188549156
Ni 4.965770649362517 4.657932191532786 6.990396533960588 0.6233408215253136 -0.5137089827280831 -1.0374578661906713
Ni 8.37268779420404 7.184217157519802 9.164257385562237 -0.778682246544517 -0.13635537083500388 -0.029430903666607378
Ni 4.5992656617927485 0.6862643030333174 10.537875059872075 -0.10680979596740316 -1.0188898733804967 -0.5022135804939738
Ni 8.242969075086185 7.175528168790737 4.690450210874406 -0.8554083357526624 -0.4938724076181301 0.7521019249528273
Ni 7.3392508239880305 6.0442562660445445 7.15077406440421 -0.7179453336757765 0.04548101515093457 -0.4173527779938361
Ni 2.2940651733635167 5.399767062420091 2.565919982874706 -1.586224868964152 -1.7993402675690302 -0.8225848614647382
Ni 2.3522333773683104 5.397293554679701 11.4011872482631 0.33350473302892886 -0.8247042218005862 -0.3285581876569309
Ni 0.737593665856987 3.080169490476277 3.9411558567539005 1.7631820724809182 0.8463750219058004 -0.523852241809672
Ni 3.8638818440598683 2.396131344409311 2.6548339786972366 -0.6424538882056806 0.43258373601097755 0.6117541451289786
Ni 1.0068173154860904 3.1793000699180918 8.177512630691757 0.6077028578777405 1.479213498508904 1.3878030678157067
Ni 3.494205692720368 2.7834301058406066 7.21794021909392 0.25083965262852925 0.01744982004533124 -0.22410737884000756
Ni 4.0660843064858785 6.588138033957281 5.637796427069739 0.48274775845987833 1.4597700450723117 0.7243712918067783
Ni 0.7333914208386968 7.251192136336536 11.34395317850019 0.4622545236025329 1.788478642264178 -0.5501967932414719
P 0.25713064310492934 5.439270702523036 7.904457309182025 -0.11736520288574626 -0.04594587060249506 1.4445676263002605
P 8.534299360377483 1.4715105938346678 8.064530407903753 -0.8026058472396499 0.7894469412601888 -0.6005029976951917
P 1.998123109904236 3.282453497113509 10.394206844354565 -1.041994320608444 1.0692019913714876 0.526383492871958
P 3.9662832524184637 5.933328957379328 3.6358099336471783 1.2136118570798518 0.6685541848371583 0.667763827725379
P 6.978807289452406 4.031636407478678 10.359489849450332 0.36538024158128685 -0.15127085449425562 -0.8095853638812767
P 6.512972392146724 8.0354209365912 10.374301902395356 -0.6471574643289371 0.39541432604953186 -1.4278418289051475
P 2.3270362161008133 8.43112781224624 5.769344454659334 1.4353221964425924 1.450215054394025 0.3096107000201506
P 6.957542371259375 3.915861748479729 1.4611272976057745 0.056078331050806646 -0.15878181815932008 -0.6138249116150784
Ni 5.043917185116621 2.9393607586322736 0.5357735551769275 2.041299586988794 0.11889860881113716 0.012685565887468475
Ni 1.4328223958439406 1.174327246271235 7.030033362941861 0.8358928914275541 -1.7015244475701212 -0.6824317141501989
Ni 6.735026339771255 1.0023323838688984 9.169309502470814 -0.441788028218065 -0.807336934166732 0.236289008507864
Ni 2.6320568684094403 1.6457343313437303 9.243504768167833 0.6908469347970876 -0.805587041355161 -0.10004702332227286
Ni 6.2964090880777865 2.009548359943184 2.620714068628505 0.6215575043726457 -0.20180408735711697 0.12446324738310822
Ni 4.348326942459918 7.005870907110088 10.326563203005813 -0.48567701629153126 0.633998815459792 -0.17726007946916567
Ni 8.39637185732998 7.300499202721909 0.5155832084784412 -1.1534974082864586 -1.002364622031964 -0.3164403213474744
Ni 7.7396691429581015 3.695991373622356 7.981370715253099 -1.311640050199883 0.5528234322310414 0.9136955015293297
Ni 3.203428095971794 8.451939707043595 12.226427350481515 0.211957373741035 -0.21492082724473308 1.9146691567510379
Ni 0.0724764949338235 5.046363511453271 10.24785944847503 -0.13862745469863222 -1.63322386342151 -0.25943407916575967
Ni 8.736927664795429 2.515385223087052 6.112603905750178 -1.4369234794914414 -0.43007511065651094 -1.4533700550832387
Ni 3.7576116159022006 2.8318130044988 11.691601520248343 -0.4823165844597306 -0.07517751377410278 -0.6046298753793716
Ni 1.1435578972369236 3.4678850334315947 12.52786096354318 -0.24516085707619711 -0.21645191917727885 -0.0045719356413985775
Ni 2.965944171490539 8.409427991593361 8.145885255346034 0.4986220064879735 0.06396339022583823 -0.007651603007986822
Ni 5.685425494797527 7.840439667092263 3.663140835108309 -0.614542249397077 -0.9873360098336156 -0.20908339462734957
Ni 3.1021411251665616 8.453697437818818 3.6506627586978104 0.5692466107840712 -0.22102951124563228 -0.10699825782912539
Ni 3.479600218443775 4.580800428184996 9.246209317840018 -1.1966734294533001 0.03517526234955232 -0.26377538685359087
Ni 7.46545408155544 6.395594030327083 11.400590163427598 -0.8347083842011495 -0.49491910371508957 0.40159294405641804
Ni 0.7264085182177474 0.01821969492729594 0.3147361920522936 0.1167000584979216 0.40522616993363114 -0.32207720791827754
Ni 4.6501492495950725 0.2715304447598855 1.7224991457410224 0.0686674805697269 -1.143974556397688 -0.7303660759376325
Ni 5.974082942054338 5.574625032683099 0.3003354843505461 0.017994636805207718 0.3477265330552657 0.5667714097707013
Ni 8.221260193965392 0.07326747378267373 11.193627331159824 -0.05655372802532841 -0.48257189500364633 0.6944112551095782
Ni 0.012642070879733465 5.036994987630692 5.726087968746611 0.0016164525575004419 -1.1596708840870222 -0.4767786853606369
Ni 7.740538947877799 8.638947764778631 2.616351453328146 0.538824289738472 0.5564319755179062 0.5688234072037236
P 8.408440400590788 1.4594148691701196 3.622177553624497 0.002312964403892791 0.2895609804581271 0.19150064854857987
P 1.9651611276348528 3.2041619938727885 1.7668972506108498 -0.4007617064043743 0.30833697551404965 -0.17065080168276414
P 4.586254829868935 1.1402145845768352 8.2226527878837 0.6327484879924586 0.06981059303523461 0.8233047703498982
P 8.79933616778375 1.702434739546534 12.634690222571113 -1.0795236850124699 0.32449430200020246 -1.088255922679145
P 6.319386434706471 7.531921674169018 1.3406248864495507 -0.4123344988436383 0.7831377112127094 -0.1063289996762427
P 1.705071335709368 3.3053855414026265 6.079928234266862 -0.9522455938883858 -1.0609513213269213 -0.08498113012808589
P 6.71232986764789 3.6671700251894515 5.831817286969841 0.44221148890872874 0.8301282210296348 0.11025455998289398
P 2.3465705849223606 8.565385825788768 10.342118214319743 0.4681500631513615 -0.9257532040248121 -1.68786546202579
