# total energy = -340893.5746035902 ev
CRYSTAL
PRIMVEC
9.04064552288726 0.00000000000000 0.00000000000000
0.00000000000000 9.04064552288726 0.00000000000000
0.00000000000000 0.00000000000000 13.23189856520587
PRIMCOORD
 96 1
Ni 6.573037447525915 1.848025461329028 11.314754738412054 -0.1546413136283853 0.41935361047394876 0.24321376065215533
Ni 4.738012434374798 0.3837329089331353 6.017549451994204 -0.9609143253069774 -0.34692074932451866 -0.24865241516922343
Ni 2.6432406363839474 1.5962073225616364 4.78736712609444 -0.14355574523818504 1.2498785527213703 0.8468558181969609
Ni 3.6607200801829007 4.728944666973932 5.1346246468366195 -1.3853754322108205 -0.2805598054007813 -1.4468116851394308
Ni 4.923481276078433 4.589899539730361 2.6493304151688153 0.558689146983199 0.6475050774763429 0.2081626825852931
Ni 7.222454133175302 6.070368519055831 2.464573072263235 -0.4183112852523635 0.2475370706178575 0.5568639208490023
Ni 5.352170602712745 4.62249106662978 11.61641576375417 -1.2385507864133767 -0.9649429868503961 -1.1612816802175678
Ni 5.706193238455988 7.718152723992278 12.374815622348668 0.22724823846183445 0.5661926544490958 -0.04268725445588132
Ni 1.9224842173744157 6.38758668711321 0.411273427211555 0.0191554898825283 0.3189561457907926 -1.4251005187145844
Ni 2.861807281133012 1.7015670048045881 0.36365001909835815 0.35547429532148456 -0.873788895142379 -0.07554466730553441
Ni 0.6976177910077632 8.952661902811336 4.4333607635130345 -0.7766950409111592 -0.1728570653054636 0.32722481355748806
Ni 8.5019676451165 2.401023663099825 1.0130974429423238 0.7760628066437989 -0.24614636091791803 1.9170754521996856
Ni 6.932674324102595 0.868819590103915 4.860194949698038 -1.067697381801503 -0.7834791537125282 -0.41387613229914527
Ni 1.0717956417494985 7.426953533581649 2.354364891857687 -0.40310321005335736 0.8935485942678095 0.3521688850973354
Ni 7.595154742448142 4.125445419638598 3.712486816112465 0.6277636331833575 -0.8227144450640669 1.0280314306704488
Ni 7.434240293826013 3.9257827645557426 12.73830923828049 0.5093239662865099 0.026088469556935716 -0.44513251921026564
Ni 7.829569638696426 8.881222722351081 6.982618465906522 0.06247729259861498 -0.6610673895418099 -0.6716695905376884
Ni 6.86859422905042 0.6408136074253954 0.22562648479227063 -0.09164003020550023 -1.1410108457836736 0.44301958663232094
Ni 1.7465532566357989 6.531694575816887 9.285524003780436 0.5951849279163879 -0.6062334724210656 -0.6666423125264261
Ni 9.098143969625612 5.027593349247287 1.3535175235197223 0.17520576804329827 -1.178391600424977 -0.2795496189687121
Ni 6.292488137472434 2.0571807941495774 7.177008616554496 1.1513004006351397 0.49891665491025683 -0.8146069854655841
Ni 3.4250756561514493 4.22736965660505 0.5029103137039854 0.01061582784263333 0.2089448121669563 0.3372248621929934
Ni 5.897863962948249 5.6196561800700655 4.84693684312439 0.2839243509976401 1.4777276579919971 -0.4880689135624756
Ni 5.18057011115161 2.8600081926855827 9.45663901268013 -0.002451803974602229 0.055617332253988086 -0.26746363433845544
P 0.20797191232925052 5.586820555743105 12.35024405204078 0.07001268174371168 -0.13738201232730535 0.6350897345311256
P 3.9291458846685265 6.152493742455091 12.694087825055574 -0.6976601010641791 -0.47052833357555096 -0.7532278110271544
P 2.663554966742615 8.691604224379255 1.2805794040414584 -0.4452680163468654 0.2620733165608196 0.6169398030949762
P 6.245259805566034 7.8319202065171885 5.769107994307792 0.40667318679280284 -0.8915439051329548 0.2524417070083265
P 4.779942948039017 1.0290605106389412 12.4070220177513 0.47122895918700136 0.958288457648356 0.3707767300065098
P 3.9503371576372475 5.945227904536615 8.381269603778525 -0.3154694727937728 1.124468110933644 -0.4306327829321938
P 4.846228960584523 1.2373479414949018 3.8262552027019217 -0.24259823855534351 -0.7857592079959564 -0.7735148434109647
P 0.23163037744522622 5.732953549030824 3.5183353385047518 -0.4197655012003867 -0.6400550489562009 0.16616268400442352
Ni 1.5270102221765711 1.2415970448632037 2.53277027725993 -0.7331269265122212 -0.2943031231288028 -0.6390386918765445
Ni 1.7509379696860676 6.51872124957537 4.827724567447842 0.7345916839832058 0.702604589553648 0.15403144795852824
Ni 5.9240999160861465 5.623851039565581 9.2662321704238 0.8491376722526021 -0.509046287145091 0.27040960434065686
Ni 8.551221081606942 2.3624110663210667 9.976362214754392 0.868190575118995 -0.8569720806953564 0.5947619814463563
Ni 2.375022766744005 5.184105003528218 7.042466634816777 -0.9754526281324684 1.003434458057375 0.5501808524018718
Ni 0.6374116125371148 0.13253586250915325 9.131915300758147 -0.7860098905541819 -0.6244325119275955 0.40847115923349003
Ni 1.5169570244200787 1.0182840612452912 11.352465982838005 -0.3802880119310547 0.4421554388598128 0.35197425258802606
Ni 3.950689742810362 6.974622919057743 1.682727203721176 0.7133371454798036 0.2107623249916693 -0.6631306998287418
Ni 5.431411860208839 7.661513080157364 7.926767426214053 0.3350893039072294 0.9265479320119656 0.7423895827610699
Ni 4.814487254358762 2.818150004185079 5.257986062328427 0.7455720942541094 -0.754426716431262 -1.0670214387804011
Ni 0.8785473246236863 7.608390247408129 7.1601243070850495 -0.3015423211897194 -0.8889805152811527 -0.682811723197437
Ni 4.955557486186377 4.363612183754636 7.161513854292938 0.9481043180265025 0.7734819332905002 0.6814361830061489
Ni 8.148008293891507 7.207410499122422 8.971994419072562 0.41803257766968005 0.24707324360756155 0.6236478112427711
Ni 4.795791199538236 0.38680311213286983 10.245855719469372 -0.7940628427656453 -1.1412101062786733 0.6038472315770761
Ni 8.142412134349001 7.145210858326857 4.805362530891472 -0.32544586728019437 -0.14110188438105375 0.6424896265396226
Ni 7.065870153730654 6.070287153246651 7.140368688616086 0.23972143122818074 -0.2619643017867811 -1.5768354573294519
Ni 2.3046594230940225 5.319316897094855 2.5719904054139007 0.2047891381273699 -1.3273767442088493 0.6686241188431452
Ni 2.335298170573117 5.031598355188048 11.405724425269206 0.28091513185767103 1.2096431022400909 0.4615263871872568
Ni 0.9625575226022884 3.2707518380729197 3.7990898712102776 0.04511694694329649 0.9555201508745996 -1.5049335289828274
Ni 3.5872286732022114 2.7303653367250598 2.6800550487798223 -0.22892845437773474 -0.31306986221334465 0.08404987656306816
Ni 1.1652487939157412 3.265842767585711 8.13413723155537 -1.526214549848791 0.5673239398400617 -0.4839507776290439
Ni 3.422679885103364 2.638250200087559 7.113904911212485 -0.5195726405977117 -0.5994904972702771 0.45829656739604946
Ni 4.010719628694454 6.933117315730354 5.993454323702293 0.08442217230082234 0.9285770466268524 0.11618120987997411
Ni 0.9792103915478452 7.418419164263188 11.438420823656013 0.055078943252014824 0.015487039892005585 0.4166043298635857
P 0.1064807222805462 5.509197573785151 7.987501578379826 0.9769104436249175 0.9786485093619467 0.4993964227601528
P 8.623537204677248 1.670195965042872 7.803088684066443 -1.7498820129379022 0.5633240746520491 0.6704706851335808
P 1.6687223398321631 3.0663699660576103 10.462673903385609 0.5060121283044575 -0.3822047693377934 -0.03445509635407615
P 3.9656791329904557 6.422456456669677 3.7626226196002386 -0.8256750703542877 -1.1953940485202446 0.5926004550186633
P 6.969641523406819 3.8688628607114297 10.339816051846173 -0.22134190027972847 0.4716287657285813 0.16910402602093455
P 6.450925449237299 7.7754794568824925 10.195681041206102 -1.0943913461529218 -0.8977006687629702 -0.25263711084858426
P 2.3341319273082 8.680429986585168 5.797067094471217 0.8109624467344615 -1.469251759310502 0.23638773886925743
P 6.866171336065942 3.9294351853233893 1.715184929067722 -0.4175967756838421 0.08998629665216115 -1.0625392346393314
Ni 5.423338563809065 2.589738096525205 0.6756074355599607 -1.1480446127020034 1.294860516748699 -1.1349939501656323
Ni 1.4884699505615289 1.1179842994274838 7.078615655706467 0.22398910809458844 -0.049886086197165704 -1.1608440784595169
Ni 7.042364475523028 0.6301790961655376 9.17153140918346 -0.5771177860020319 -0.265467172733717 -0.2398805825138643
Ni 2.6326811624814446 1.5742566353738996 9.17637448295878 1.2973532012635656 -0.5215559895763275 0.735303879558882
Ni 6.589473340980325 1.6389424536721937 2.4128235135600535 0.36033110919315364 0.9472327140548267 1.563655211193752
Ni 4.187735466888807 6.687030946187437 10.529666894406436 -0.5356669750564129 0.7977603462218906 -0.24073804541815316
Ni 8.289702330256171 7.362213471410568 0.3904862710950956 -0.4019796379718754 -0.7620713774607133 -0.029261982188910893
Ni 7.688264350086736 3.934163442901308 8.207561737759622 -0.5061849064368961 -0.7171482916957779 -0.402986481969835
Ni 3.4446938568093524 8.334471606596233 12.366492804134074 -1.8127292872814265 0.35944639259535516 0.10901477403852193
Ni 0.16033403918331046 4.664683759012469 10.26101959410693 -0.6866079570150756 1.006417451945099 -0.1925144345250749
Ni 8.80119492869958 2.1948517432825505 5.5464151989687425 -0.25182027137424373 0.6317994938156279 0.7992117339564365
Ni 3.6323776566517822 2.9802306960721254 11.666750461442161 0.11959897731227144 -1.2679575217102679 -0.871293639524351
Ni 0.9874102569841208 3.3538172886004842 12.544924407408166 -0.33465504458328815 -0.07243054715658492 0.34230124827463626
Ni 3.07356631984733 8.435419453852523 7.948190139706664 0.4740103785868804 -0.3449911364019736 0.3268491753856242
Ni 5.5477649673365885 7.926440154848239 3.5143655910813028 0.344334219544265 0.43249914671697126 0.9682705085617325
Ni 3.055918979900681 8.69588044968395 3.6346703643415723 1.3900977773871543 -1.6107447084823872 -0.8138258843251855
Ni 3.0485146912652787 4.100665010420481 9.182210219606095 1.5058791807255483 0.5227111862266933 0.3735545498619631
Ni 7.2307263237752935 6.044168728499793 11.532684921720419 1.1446774960019834 0.28171217383766967 -0.7999254721940094
Ni 0.8371628659455213 0.07060111262569786 0.27646293830354074 -0.43441333302054863 -0.12699449844539418 0.06272643249494358
Ni 4.876623610636075 0.3335356290562033 1.5889657655445948 -1.8014120624963945 -0.5066698164931145 -0.2886245846867868
Ni 5.73755523757224 5.554681061116908 0.40133142939427563 0.9443700477950512 0.322730011010928 1.7829338011865488
Ni 7.977022566221957 8.597048113466347 11.435773722664017 0.4668526844961766 0.2553583664344893 -0.3277182082541388
Ni 9.106280550543637 4.914250777059206 5.921155377858368 -0.6377130310865855 -0.39105656330146843 -0.8993240632990059
Ni 7.912038406623336 8.457722726213376 2.7174218446135763 0.09912091196357768 0.36047174853607594 -0.5031867430405206
P 8.454893004182995 1.417672655929252 3.373472555904792 1.3081922008605986 0.8112408972068286 0.5815747933321209
P 1.654953436789773 3.1734021677114894 1.504109363150518 0.22468947659572272 1.1352960547870834 0.1803160926866701
P 4.76783752376209 0.9639045787764947 8.186310796530835 -0.5292271329683402 0.5453659475117317 -0.19439339671534264
P 8.51777973403386 1.4287384059777652 12.346314083457374 0.7584823745578743 0.8625935406471917 -0.996403776462839
P 6.25534012525892 7.635900931556516 1.3614561143020747 0.5043691933843958 0.35924893187256834 -0.46483154030108975
P 1.7612081429337074 3.465975536232719 5.790212477080054 0.8968879430536876 -0.7833356861561284 0.35099723338673744
P 6.633112536637329 3.858366671327178 5.735737163769334 1.54314449283491 -0.19809887059138787 1.3763673151749392
P 2.4683403092282807 8.438312460401155 10.179524503696545 0.578095833644585 0.31067462250829075 0.08135253223656312
