# total energy = -340862.8444186683 ev
CRYSTAL
PRIMVEC
9.30198266717658 0.00000000000000 0.00000000000000

0.00000000000000 9.30198266717658 0.00000000000000

0.00000000000000 0.00000000000000 13.61439189222962

PRIMCOORD
 96 1
Ni 7.5972921332583265 1.2360753809280152 1.9282610367183128 -1.3884990654414668 -0.4922438708757716 1.470529854691977
Ni 8.700684031471795 9.250942824235329 8.836557164089793 0.08011068940966204 -1.427932588846741 -0.19057453718988468
Ni 5.1140068979860525 0.9438349871785104 3.0885885112777705 -1.7920666167257524 -1.801565557355123 -0.4657959610968881
Ni 0.45071920497749257 3.563589612166512 13.462020204422934 -1.6680052327667532 -0.2926686728491734 0.6049744032029839
Ni 0.022663350903373767 1.7938780817454965 6.52909521718162 0.30086046463134636 -1.3395357481688865 1.9531398020224107
Ni 5.001601737783963 4.06547809434987 5.392714767152471 0.8020247779251994 -1.3790808574513604 -1.7668014144010602
Ni 1.6364048148586081 8.812791528224158 12.830053724908398 1.7800243408492376 1.6336208417496123 1.0008957507959215
Ni 3.2508104403860396 2.8745359339862815 9.245847198055364 -4.116893576384084 -1.3611034470373333 -1.0802258532858169
Ni 8.99783587214175 5.933948776199681 11.939291200617424 -0.24510429280664886 -0.31136959169278633 -1.6457253383226302
Ni 8.92383859893688 5.7181985870464835 4.113180522564728 0.1460620565998065 -0.4726566927724634 -0.26105618815021486
Ni 6.794437997455425 4.9291858016557555 10.686521551151285 -0.6085803753866873 0.9635317083251664 0.4571876506025868
Ni 6.051749086428021 5.411679649693022 7.0347472816074275 0.48814604665731415 0.058896003005259864 -0.651382043933246
Ni 1.285729365135128 3.7593498402741714 7.633371733959737 -1.5327415523340313 1.4378249082597883 3.012929756051379
Ni 4.5496369973090305 4.333477520912463 9.849536580044385 3.161194219619143 2.268688207683235 -1.6508855423673312
Ni 1.1862539610304328 0.9401886099193894 4.656272137577872 2.362023880423603 -1.526252602175578 2.0433803807772226
Ni 5.201733897809446 2.591160329848874 7.809474081807957 -0.37386796733732386 0.24816904777490162 -1.3199763379797202
Ni 9.175196778263333 2.293580597969942 3.8826615753138096 -2.354479492417442 2.4281685945714764 -1.8150561356423904
Ni 7.364798375058145 8.29015962438815 6.800320571380599 1.1277627225245157 -0.34081335087520015 0.02876935882320852
Ni 5.772457052741516 6.097812505272835 0.6362388802163601 0.6943917147255525 1.6366668276647878 -0.17230890611147745
Ni 9.106231877755365 6.226542645295734 1.0111766916872011 -0.540099814016786 -1.063821958006497 -0.8766448765339354
Ni 6.747955989384435 0.6227630977283788 12.206201364993682 0.15305931385324606 0.6220023052195482 1.415180688497711
Ni 1.680161341968061 5.482681684435041 6.11179989681503 0.8269127994161307 0.5997697190735929 -1.1154491952644854
Ni 4.247006288767592 0.8708404677199015 9.299909391913236 1.820768098425503 -1.3699508701256342 -0.037582329129148176
Ni 4.528623818155066 6.567860300318511 5.421631841094894 -0.5283460159149675 -0.27516768785093254 -1.0245000204784227
P 2.654144055413947 6.14301083971689 4.184683003981594 -0.70311649619306 -0.09672361537599472 1.3691018918617774
P 8.943958787741675 7.493658742840298 10.007558663916702 0.47515863325871077 -1.6827289121301732 -0.5222509587608232
P 4.186766648129663 4.958700993092467 0.9975223111293855 -0.3773538690033953 -3.143736686264328 -0.9147473398326118
P 1.6105732086122329 1.618321760287865 0.7564977044997647 -1.7393931975914367 0.47616264904319283 -3.6227427182935865
P 4.740616006255496 7.962441468224645 3.498394805288957 2.3067456766765884 0.40203594513110763 0.1927653741936164
P 5.897336171883609 1.3693076806279918 5.897278499590225 -1.5093128889974459 0.5115633971399899 0.43199649604893986
P 6.083422337875233 9.055889546820765 8.496088780097011 0.43171933112815325 -0.2624967772514834 0.6018721101285763
P 6.87049100885995 6.393206271192856 12.222742150815543 -2.1558622874287385 2.0688476718103916 -1.0369945534010077
Ni 2.203249042961461 0.32911903477376836 10.249880897147465 -1.1243200153915538 0.5814030436409472 0.32312313268428866
Ni 8.66912240381823 5.754615849723675 6.497101047327675 -0.9225979462252821 -0.1405994908233385 0.6076141548186761
Ni 5.0534323859671835 3.7050634686307267 2.8363410623952685 -3.0126888436851664 0.6326978372601814 0.3942442170008307
Ni 9.043210944259076 8.899104626661364 11.671046201708808 -0.7816747535139377 0.5710965195086164 -1.5238208528056336
Ni 7.020206422088402 8.396964990942301 3.8125339269553566 -0.1435179500217141 -0.4884309248875846 -0.006982087744787976
Ni 7.397066953404805 4.83270563601391 13.424907153432013 1.1314656252973998 -2.88914990788854 0.3917021673052673
Ni 2.6506093019484727 5.072566564594765 11.150636541564646 -0.51664595386922 0.04139578933796741 0.5420476817717762
Ni 6.304316523518976 6.421112219604496 9.03777765610333 0.09825367886727594 1.4583117153592304 -0.7136353934465128
Ni 0.9502998652272072 7.240933172041676 8.141910203649589 -2.3606357418268247 -1.2225150731067527 0.02357187378266908
Ni 3.730588109444574 6.470375520533846 2.317686686406198 0.5526000033663256 -0.02836261030309309 0.48043633671788233
Ni 1.3808235353391953 6.49289562090204 2.4851847001608274 1.345042794030045 -0.5632831941117847 0.004299398706302272
Ni 2.4554444007402614 2.8217471815742607 6.113570064142608 -0.35273298513092155 0.5545131612286385 -1.7846163310952943
Ni 3.5211539666152105 8.520802288010358 1.1817127330255786 -0.4024491214091263 0.9209012752491496 0.3543651214177059
Ni 2.4540211973712682 8.120082170802002 6.141915066142592 -0.6497936164002035 -0.9419678661114614 -0.9950331213675573
Ni 8.424396538230944 5.104974672683484 8.995764320571324 1.719369446171342 0.7964200301439123 0.09078051041868238
Ni 3.6165923101830217 0.9338911675611624 6.020134437472473 0.6961053549825496 -0.20504753399507913 -0.3371230465078065
Ni 2.1539020241868765 4.563478347721205 1.0884361702613892 -1.0521954295111622 1.5091822769568526 1.931924601397376
Ni 2.7828555914712374 8.352352681414892 8.349706267307187 2.238102621586894 1.209533059024788 0.7900195259342072
Ni 1.2745204758564521 0.45329771461072815 2.4107409317813744 -0.7454042012176776 0.005564638571971062 -1.0711529444502714
Ni 1.6631387134369602 3.9249065302176316 3.341435007852843 0.38802908932905433 0.13348884792048624 1.4766426524579344
Ni 5.021982382107264 3.062715046108778 0.236968942127129 1.2117202964840939 -0.7738871391487189 0.5090478298069878
Ni 5.217128679349868 8.228115399086267 12.833974510660232 2.097752013549568 -2.0609605557528314 -0.19275560400160352
Ni 6.822195114142204 8.187791303631448 10.534680634852146 -0.07603420534744325 -0.11090813440649286 0.156304303153105
Ni 7.039703378045335 3.7901207993894075 2.0445953544567605 1.4603266889067301 -0.2233807850866282 -2.0936827285762005
P 3.8416165761916883 2.8686291749058173 11.393135512468682 0.44912389975784583 -2.956757579735185 -1.8565686530638799
P 5.228253850783308 0.9160285699828713 0.7824855840572452 0.7975973382814651 -0.7467494023916622 1.2876840536049177
P 6.864965631074445 3.868899291755469 8.316909336337266 -0.3795799301204366 -0.10261247005660391 1.2529206819818035
P 3.526046809570052 2.7220764358306844 4.306014346882287 0.7738737694122801 -0.3465579666684612 -1.7567684556450904
P 0.35137867962345376 3.6064810548752035 5.586638783854644 0.08099052091145406 1.823245870542034 -0.7332876204598017
P 4.387829006435535 6.723454566679016 7.873325682368632 -0.12470570241121749 -0.40856114784413505 -0.326550927418915
P 1.3129934767333007 6.816399978855387 12.792586268372647 1.329577094294278 -1.1055031397953672 1.7886280233578487
P 0.26035412689608384 7.848306139221035 6.130165731663012 -0.9291719998983738 -0.17944397449436195 -0.3247516694266471
Ni 8.745538192552106 0.788111423257032 0.18566385597232765 2.4327839818563004 0.20515603454848538 -1.134707015052833
Ni 3.695082441082163 4.566241036613958 7.129871218156468 0.333633031076677 0.6120626775083329 0.8606389880239823
Ni 4.981537360875993 8.488310462076406 6.664272561485888 0.10612691096776561 0.17281875586836043 0.5929928053610755
Ni 1.939072731331263 7.237268190816947 10.717371577120353 -0.6085968304469197 1.0734746506049127 -0.08685674988424397
Ni 6.614900427357733 2.274539439170399 3.7161030618223716 1.169327690450496 1.9433742379952146 2.5764438567725176
Ni 2.731973745534013 5.761406297170507 8.872363286496768 -0.5585240821602446 0.2997816297448708 -0.06492112615341723
Ni 2.8285934409179165 8.71201384652692 3.8993391002828868 1.5256982723340047 0.09124408031866221 -0.6658771522256274
Ni 3.333532973460947 1.9454073816207051 1.7523493795175733 0.9216263263406321 0.6061167443375433 1.0150645860971357
Ni 5.975351901659752 8.210897428916287 1.6036934621304832 0.19957751201944338 0.8875509819234779 0.44943706012289053
Ni 7.226012791624251 1.63921401366538 8.679365747281862 -0.5287545642072958 1.21627114907957 -0.2812447472829479
Ni 7.66281530012886 0.8191419076924961 5.1056695307989335 2.0452097206764774 -0.6902401544510242 0.5486479606971131
Ni 7.812586525254134 7.84119942435887 13.557483663344316 -0.622297982083096 0.6674828061498504 -0.5434779864603995
Ni 4.641456869566133 6.606723984473122 10.717576220742039 0.2197575865117441 0.2955855893856522 0.24123632521081034
Ni 6.844594288733947 6.122574383496765 2.8760400646056685 -0.19769726427759501 -0.21602845848661506 0.46731574017552424
Ni 3.882563904494369 0.6316734670562157 12.821802866161354 -2.304689308368192 3.252175018974089 -1.1629467266248166
Ni 6.189260298217782 2.736308469520621 11.084007368938734 -0.8259378370973711 -1.1082560199501559 0.170828464911209
Ni 7.474980361370106 3.2648564344198987 6.259938623958225 -0.8877643834858647 0.15061496607781158 -0.30913967392100306
Ni 0.6804316703193145 8.092641321530555 3.8155152124440006 -3.066345195558042 -0.41008555490846144 2.0302968081203874
Ni 3.6300243733518247 6.509090372963595 13.044153742312185 -1.9088846888587772 -0.14290037104237324 0.4755756661914713
Ni 8.534150633333928 3.51638204943682 11.10133882329892 2.0692783315899073 0.4107910656159183 0.4043309118128714
Ni 0.3927911070663285 1.9727924189953285 9.178046905794442 0.47603177989228346 1.5221594059428107 1.0487439806274519
Ni 1.3074680989477958 1.812575067181296 11.900299149100118 -0.583434215138363 -0.1465752487907992 0.39173790563920924
Ni 2.656023055940331 3.5820726519978225 12.854640725855612 0.2579094149911171 -1.4337605083824274 0.701356833189476
Ni 4.812957526521272 4.505685128560697 12.087578759485481 1.745166352629788 2.7266073371352073 2.0740217598121635
P 8.40012766509562 8.194646864957907 2.0757318814961887 0.13398661349251118 0.30222237797587953 0.07160085216643797
P 1.2403356890521924 4.341877211384366 9.793118193942291 -1.8033319052269265 -0.8954668943364449 -0.35574940335974214
P 3.833840118567644 8.539582991291393 11.129220586555274 -0.19771654755130463 0.23915450298111715 -0.6567301956190368
P 9.025109285722724 4.331068307366258 2.327652830782275 1.2864329548066362 0.3276374756148745 -0.29687165518692743
P 2.016651267915624 1.5301761712382962 7.841685918059514 0.909963288180407 -1.4871877749636324 0.13527345062473475
P 8.060921560169325 1.53732939601448 10.734608151255943 0.8003962411828409 -1.9595361924670576 -0.87545445577026
P 6.91704743279337 5.164749214181219 5.05867219288061 -0.11411532848988089 0.5792026935555186 -1.1004349812438403
P 7.681019280476053 2.6802919290756546 13.210739231553756 -0.5438397406751925 -0.550621025263084 0.1782183296173769
