# total energy = -340866.28510890296 ev
CRYSTAL
PRIMVEC
9.26930620179080 0.00000000000000 0.00000000000000
0.00000000000000 9.26930620179080 0.00000000000000
0.00000000000000 0.00000000000000 13.56656658215072
PRIMCOORD
 96 1
Ni 7.899645632345629 9.225916489357559 12.331493685708248 -0.9591145530940773 -0.6246029760671887 0.8942890719782597
Ni 2.7755361368142295 8.928510802777643 9.148058025745383 0.20619990243196745 -1.639180852335893 1.8967010023083914
Ni 7.213244245500389 2.6677248374341134 13.287814485721672 -2.0269060372712837 1.5780402762708305 -0.6120284818362879
Ni 1.8470853594855434 6.026847217707438 12.581077168198929 0.08810090670399019 3.274537702940006 1.7185821743833563
Ni 5.632178702102023 2.1721228475831404 6.546871975300371 -2.3694327712931647 0.1904855770205042 1.0618321812699778
Ni 5.461938626062541 8.375550346710165 1.097658252667373 -0.528435233194664 0.421475541912958 1.822083989023449
Ni 2.4756648148087153 5.427410460798081 1.6917911126198644 -0.43105495807127703 -1.6765526081161322 -1.6436041782145692
Ni 4.86504165902767 8.212197365111352 3.59996954175414 -0.6641054050371853 -0.44420615074125436 0.8496670623935109
Ni 4.652320353080263 3.9420412336924078 9.121209480594107 2.27894793773803 0.7358109011022876 1.1088836262318258
Ni 8.619333097436417 6.799110187061319 13.545959099336718 -0.20128241052569204 -1.5742191027525276 -1.2914946856002596
Ni 2.9634805875262265 0.2731785011969062 3.842106063715033 -1.02683792458298 0.051368584279963145 -1.1281365609241667
Ni 4.7922034516053555 2.1995136471419268 13.15294886259461 -0.09085790062383708 -0.10390676338799525 -0.14138136329468556
Ni 8.44398563372963 8.859760359350394 5.989096114708091 0.1641716217163237 1.0947525861470824 -0.25140246711053477
Ni 5.051994293985762 8.665846475502743 12.393817719208556 -1.1632580872176481 1.1103123882585524 0.8170942706638122
Ni 2.3502603724294193 2.562916793234047 0.32330227399356837 0.9034630251680441 -1.1917273983019347 1.100606216714382
Ni 4.5924220969892735 4.385271644014737 2.8570513416872996 0.7228036902093423 1.1351086213666257 0.6933218787001414
Ni 8.192222010441577 8.585435244987524 1.3866798518696524 -0.2344504126372285 1.1760472685625165 0.40575556007453994
Ni 0.902673763963871 0.6491758535024015 12.53295649245291 0.18843640780095935 0.13853412365387752 1.1512366372767397
Ni 1.8981499668524988 2.0231650983751215 7.910597317516087 -1.199093608859019 -2.410662467366913 -1.926175871839057
Ni 6.413803670628281 4.689110229035872 6.510215577352764 -0.18189063626264157 -0.49418813908633596 -0.7668155770139181
Ni 3.060261412633938 7.608357687799145 1.9491357851175086 -1.116946605745618 2.0493882775341996 1.083673188404469
Ni 2.453752175161686 5.853807811222354 6.670775717020252 0.2393349944230394 -0.2675456525293005 -1.0744439564967174
Ni 2.975892188409209 6.000568734882004 9.405008752733298 1.1320430950674247 -0.4469616019992044 -1.6391772527914672
Ni 2.2251710864579066 3.860638187423284 5.139164702517315 0.029424218798388035 -0.9254685829048577 1.5287825676862832
P 8.517834195518073 0.5543582674290557 3.2002038347181405 -0.12677081247036234 -0.29583627194387757 -0.04622946328118491
P 3.188910112152176 7.673900951311896 5.15551205077514 -0.5130800908948325 -0.5595358112542106 -0.25329634169913795
P 8.60490078782118 6.622909947192294 10.212138217024702 -0.4816360134529383 -0.502817789736876 0.43760072960959473
P 5.61492852342896 6.909702278274814 10.8679453321191 -0.22413951762952367 -0.08271521691204464 1.7302187301810203
P 3.5666343361862 1.084425391262932 1.9516866981593286 0.2071409261889981 0.8848456671771728 -0.495465720247179
P 1.0647466543887176 7.671361161437409 0.8222792181996527 0.8983642704888981 0.23285812844944412 0.06826150338055986
P 8.719886530131413 6.492648388410696 4.856397104148305 -0.9910661663000092 -0.2974771499814103 -1.0340624673558771
P 7.351227136272671 4.946676437949575 12.852761457250699 1.68301533302234 0.47192392837149694 -0.4434692725752298
Ni 5.601747570138742 2.5385755953858666 2.022544054865667 0.3738689957785884 -0.02019035890494587 -1.6460097023322686
Ni 3.019355964764928 -0.05441082687312196 0.035970469295372585 0.19073857357157475 -0.3880460586099188 0.8315145598542002
Ni 0.776424887797839 7.242322058771426 6.276260144965673 0.2694495544202327 0.08125663008864716 1.2281822986948592
Ni 4.535406595098886 1.9955889126941102 4.093142046473351 0.4560748771543823 1.1416199401225822 0.8274781850012976
Ni 9.097471714573768 4.609357119254554 3.5206863857926622 0.3356780865311638 -1.1394692123281667 2.696951204831671
Ni 3.766091265088387 5.6566033237052045 11.421421161606364 0.6898717153680118 2.046857540692546 -0.1371426426229896
Ni 2.9845682589293525 3.9203974039226055 7.727068764235497 0.04853522859622609 0.8178512034344947 -0.2445039402184886
Ni 7.694302694062789 5.925153660360756 8.433343543383286 0.23440541833190598 1.0727786529791525 -0.9375697370437659
Ni 5.048156801255699 0.302399061782056 8.549840182589657 0.9666329729583094 -0.07172015135312165 -3.344438027475569
Ni 2.740507429019761 3.334076715160688 3.084820439175733 -2.1633326276638547 -1.3161783043898687 -1.9549927960707492
Ni 8.589745472329263 2.1655416402441428 11.678846477067177 0.7838146826750758 0.1936575469905826 -1.8072813767929778
Ni 5.223003722432479 6.073647944263212 4.562069754127938 -0.21551269519246108 -0.8666090895644882 0.2945990571026669
Ni 7.711015252981398 4.488531714094222 10.445740488848953 0.29255605853070904 0.05409832450630038 0.8237374870119425
Ni 0.7263660001439556 7.891683298396052 11.2676443001511 -1.0239755154335202 0.012806407736048912 -0.005848488360977024
Ni 0.9578530163136167 5.192099855857523 10.733053754934925 0.019032076930786578 -0.9126763162361959 -1.3763341479441589
Ni 3.554352505588775 7.815712065508129 7.4526982302726825 0.2652637984736593 -0.7501746260231273 -1.8395438363711092
Ni 3.615483579392563 1.722719079390709 9.31279676860783 0.39202612630358935 2.3454868020005284 1.4478781787307324
Ni 7.880374744940309 2.7200315318199784 3.664872296214602 -1.5931635050655142 -0.779995823149618 -0.8011840271914589
Ni 8.840183584843404 1.2624794923542095 8.308829881321284 -0.7035785234311431 -1.1918724085202312 -1.6886707315359046
Ni 8.727060973061533 1.983946664218362 1.1333506427794078 1.7395351224859397 -0.5864807152741707 1.4524431723935953
Ni 3.8961118219110924 6.823951927439507 13.492140581124106 -0.6124516854166355 -0.7191676361186518 0.44427634185755743
Ni 1.0316459622653926 4.117499929072531 13.037483897158422 -2.4893212548213968 -1.0527317616306064 0.04434972975996878
Ni 7.452364535252677 8.362489894399394 8.271101024656604 0.13880717480960608 0.39185360528146707 0.6617780424555892
Ni 6.9047524688114 6.475185015697074 1.9791182826650044 -0.11831805371731882 0.3902412664890247 -0.1830736008271492
P 0.9346890203415671 4.933727217312139 8.178862159543412 0.45466719817357826 -0.4789312129272655 -0.6157794642382879
P 2.8332746445812953 8.036154703446218 11.469704050209328 0.9946801089035129 -0.0395160558167513 0.23497466057181465
P 6.424639489472349 0.9144884215332887 0.5960358484971339 0.5741610173665531 -0.36942587240557023 -0.17435319023501583
P 1.0122453045745161 8.934165079505513 7.886923509707918 -0.3045155448854304 0.3833725643936494 -1.0285279106908933
P 7.237177593879674 3.899495118641704 8.32517815650972 -0.024156285531229366 -1.049953684664837 -0.29388146221035194
P 3.50380697936405 2.4066733694225744 6.30808723442931 0.015285722514476898 -0.8493261341143243 -0.7371283343621305
P 4.7798381972529285 6.437078898273666 2.3680982251099367 0.16992935013570734 -0.40355212466531787 -0.5728225010607877
P 6.442492173042644 0.03606687007892973 6.513321721830649 -0.5775988394035084 1.2912604581022664 0.7648761938993601
Ni 5.692160381948015 4.729125823518201 0.6811558865168746 -1.272186472189951 -0.31486526355087063 0.7954885194685785
Ni 1.0323133523054036 6.936193955140808 8.79588371707645 -1.100494373726866 1.4593856651496993 -0.0456548217246375
Ni 6.115693516783907 6.835677599670257 13.166081615493047 2.5323175558772646 -1.315157319324522 -1.6164397019846353
Ni 0.09872552552985475 4.549866712632459 5.966466957698661 -0.7555500314024278 1.5040148738233001 0.8441325057285268
Ni 0.07686850171949332 6.432027126443026 2.4439897419653023 0.31598549319824293 1.890853542388679 -1.366419459933608
Ni 6.469456584520312 7.165507319027377 6.229468687716011 0.15841980683421103 -0.0898903945042452 0.5370042058105978
Ni 6.968006213714667 2.1649391353469105 9.47388618565427 -1.2767221552767754 -0.3611073252375458 0.7544033193924943
Ni 3.098274836996233 1.0757585900489 11.642501527804908 0.4682860745085935 -0.25401547925334966 -1.1609217257749875
Ni 5.572521447969925 4.360819214493222 11.87252306667838 0.49246010065163576 0.3031119796696844 -0.43179929243646925
Ni 3.326679808883899 3.4503601603264995 11.39305337718345 -0.30795593802554705 -0.10913407322520559 0.07873154967394827
Ni 0.36860693454298415 3.160221609737813 9.253307288916346 -0.9647884635504029 1.4038230973930468 0.9717890632379522
Ni 0.7558646399124435 8.146329675884708 4.051343037495215 -0.19276023198729383 0.6433977401761887 -1.3013582086579008
Ni 6.240504723572081 0.590502072748709 3.0107605372079522 1.6384822836069717 0.7351115610424178 -0.47455905200149884
Ni 7.63545186956237 2.116673858425557 5.963007652657937 3.1744824520876165 0.2593955126183403 -0.20444538163470594
Ni 0.8246836762049148 1.8795557387933026 3.8425806521879298 0.7700155720084545 -0.09933662751880956 0.7196746576620573
Ni 1.4283351866030634 0.37350205510034284 1.7970005177745485 -1.042080195454031 -0.028768073271627875 0.35126334256393055
Ni 5.854753280445703 9.086524664056366 10.477893857887706 1.75134522774699 0.6842266012670926 -0.8704433757089138
Ni 5.312702797671185 7.169975124573007 8.840028787431345 0.13799804864474943 -0.906604141900187 -0.914929888157063
Ni 1.781903598911132 0.19416137432082176 5.7636063395924175 -0.5585204826158188 0.9451156677118239 1.9523137065766893
Ni 4.290492989027058 0.2537036890571397 5.840610173181135 0.6658992637128145 -0.0124312837848173 0.5653907273730908
Ni 2.1907078063362255 5.917923601593969 3.940490478779993 0.24223159924454413 0.9531431660019907 1.0580050942144037
Ni 7.212641740603156 7.951192243630369 3.945509808039243 1.3572827877396625 -0.5921991058151865 0.3415566567991279
Ni 1.1684053046309875 0.9207655956318369 10.022477090820898 -1.1919893937140698 0.4351448118699344 1.4367972383262222
Ni 7.984812016895925 4.431201055796052 1.3119507060006388 -0.0011202296473722642 -0.1445697883249962 0.14238049398316124
P 0.7064323573516815 3.9988064643177905 1.7473606027568942 2.0596235821089626 -1.4265002272755885 -0.6340191271747662
P 1.3486933084950796 2.813901794808753 11.216755809600258 -0.6030324489852646 -0.4748220758548984 0.08812636062528693
P 4.527805764087649 5.676124482375528 7.261952595253862 0.624369262789828 0.049192659674566895 0.7413937945067037
P 3.634717389573437 4.45150083617972 13.462035728735941 -0.321116386666905 0.06833349426907587 -0.1267978090535558
P 6.181246049602768 3.920582790044831 4.315443180286749 -0.4097914207068104 -0.6504790725030023 0.5329356921681789
P 8.00221977377288 0.29000321871946216 10.187202856654789 0.45263602667616243 0.193130470842519 0.05389109359150074
P 0.6104032729695936 2.4824684854943833 6.057282057393163 -0.2712297862491071 -1.0732044276626616 -0.33310441226671667
P 5.2630471248331405 2.5715557865297454 10.837542935004766 -0.36267312706276894 -1.919305627081785 -0.4697462039938878
