# total energy = -340887.52631392394 ev
CRYSTAL
PRIMVEC
9.09579406016171 0.00000000000000 0.00000000000000
0.00000000000000 9.09579406016171 0.00000000000000
0.00000000000000 0.00000000000000 13.31261402400460
PRIMCOORD
 96 1
Ni 6.296336137614997 2.547604613297749 11.394040340558572 -0.19892856558153485 -0.769772602759713 2.0790459524996328
Ni 4.699287496813843 0.16399898852024403 5.982835037364759 -0.3776958257238463 2.966704149424936 1.1727356876907802
Ni 2.5835784793445793 2.1863105720218554 5.313343653434559 1.9852078862015488 -2.2207556456680138 -0.7853090078324153
Ni 3.6353615454531027 4.695285347367419 5.1165697896863644 0.0736459076209248 0.10685813270683533 -0.17166047389420114
Ni 4.016175161074508 2.944308581380295 3.09891070491622 -1.9905424110405847 1.9475268267110073 -1.6690326455900029
Ni 5.256796010494852 5.06666662440714 2.6012315967209862 -0.7998689079244612 -0.6090822547237704 0.5489243542869514
Ni 5.492859157274472 3.5868627707978056 0.48954201070711906 0.04206530460116627 -2.103331050299242 0.3151164603297283
Ni 5.556557004031982 7.946158576343765 12.482838741149417 -0.30514315116710033 1.403137384179932 0.18109642249612037
Ni 2.117992061812565 5.590256921529708 11.88333221692529 1.074481494602872 -0.5038583151862484 -0.8268757755306081
Ni 0.9542579607345366 7.659732017098583 11.26458808797574 -0.4159571831978901 0.284576125649026 0.19455177667007784
Ni 0.5338467146584482 0.5810247799964258 5.038318672214586 -0.09397562031721235 -1.4426765799251347 0.4813251670807388
Ni 8.777468686925328 2.3792869416930458 1.5988978157612856 0.20621430060967066 0.8174025459328502 -0.8163993014793165
Ni 1.5655226181163715 1.4070375000379955 2.9320365358504885 0.5612671921230205 0.6975433729806567 -0.5793171076461958
Ni 1.791362092219218 6.720427542022956 0.7198957274696473 0.916205669545693 0.8366590801696171 -0.12562744289453848
Ni 8.26857719322417 4.089787423506113 3.6331585440987304 -1.6406204129958972 0.058324703882822126 0.4134493291743718
Ni 7.675495028440974 3.89207214505859 12.815880336071817 1.9294033776374189 0.4265642692897751 0.15914125838126786
Ni 8.069015468554774 0.3130135656813101 7.349628195980707 0.05648019447491563 -0.2895290987789272 -0.2908115650357766
Ni 6.834952686750047 1.2004720138373577 0.5174679180489596 0.18918562726215804 -0.1509201560230562 -0.6595478675734899
Ni 2.129852977444693 6.5831538160106255 9.254982419387105 -1.381087346358428 -0.1686952206182901 1.017354410572577
Ni 0.1238310517694454 4.9768092735407325 1.4764620588215709 0.7746376441614982 0.42249575564735625 0.1736420231006042
Ni 6.290778607360986 2.4573652390750924 6.956679881321861 0.5475007344665473 -0.6904062477152433 -0.19780782171353029
Ni 3.449934684964939 4.586244966540769 0.7040799605209167 -0.0795113652627663 -0.3130606062419641 -0.8184240452188293
Ni 6.291187918099825 5.982103735511367 5.018881869596261 -0.02132704361255037 0.34401925940700756 -0.3142847084570523
Ni 5.518482009525779 2.996227374653445 9.190868894834818 -1.3143065412884525 2.410824961086706 -0.05167531688710455
P 0.12937766707042067 5.92167127887037 12.758609577493495 0.14716300297346913 -0.5500042176146914 -1.2662719064777288
P 4.045691013241882 6.292688724142234 12.895503099308415 -1.1447176052112995 1.8274452533353625 0.20148989855080784
P 2.636525097361925 8.492151814572109 1.9562088087585678 0.809126164856671 0.6060007875849692 -0.11770253162050698
P 6.836207906349152 8.286777877411202 6.067344061243673 -2.0880900649797716 -0.3372955675299288 -0.5554811815688627
P 4.8769283574698745 1.2295785552658933 12.922128308080168 -0.7971201415347304 0.941486812709985 -0.021192832027531243
P 4.143016011143548 6.104924244545591 8.512351754323513 0.18812864675255342 1.012354386254824 -1.0706027283737563
P 4.846184573085983 1.526101446069099 4.192834585536745 0.6371345328752963 -1.7843504790284175 1.187189401222265
P 0.08615900094614368 6.001141232764469 3.587655924051733 1.8611524157798205 0.7249184225594999 -0.08665903205114107
Ni 0.780041666593457 7.972781965956678 2.8463568832584962 -0.15071806731457915 -0.5573922825486465 -0.0018846186172225606
Ni 1.8721418404776002 6.86012984508573 4.929461116851282 0.7798171314799086 -0.01813630458939457 -0.860744403253595
Ni 6.0761724390907155 5.90552624417173 9.467624805690368 0.7010354452943152 0.530234491186932 -0.6411153718999152
Ni 8.741322000788767 2.580649633613333 10.59672121288902 -0.37391758962833666 -1.0746375605647622 0.21764825347822514
Ni 2.5977679182909905 5.653754660814897 7.050666722753442 -0.8655022296535546 0.6174326835709948 0.48142544010402893
Ni 0.7168086149193833 0.15958752833498163 9.250949344240412 1.0694130789410292 0.519301389214196 0.4719218714889679
Ni 1.8020405546058116 1.2103864295114526 11.57811374687031 -1.2389660195739243 0.8954265280168127 0.4398121354386168
Ni 4.488883585462317 7.270313780167367 1.6685634130910658 -0.28420897211759444 0.022998260667386198 -0.030934227685011244
Ni 5.779194758577689 8.22092432742914 8.118311944361098 0.5004161222739187 0.36967912606695685 1.0033498687633686
Ni 6.923482051663777 1.0052944619706343 4.79541639777868 0.7197582185147992 0.37298402207047376 1.401212142132761
Ni 0.5861830048852141 7.714807050957889 6.936378068675458 0.043638562625557105 -0.34549687239379856 0.1384618756550454
Ni 5.546506151444941 4.9744534628438615 7.250449475221811 -0.3977185487026763 -0.6948732823476614 -0.6172123400300725
Ni 8.200076767130952 7.61594486383703 9.389280001538367 0.23983070311253538 -0.37952876516752704 -0.34093573538567734
Ni 4.557720555940803 1.0018562517643887 10.69596633294555 0.8035221884063323 -2.145301738304073 1.100802391885588
Ni 8.131958364393983 7.578024497832165 4.549000418044699 0.3442694277446006 1.0270330713129217 0.5558853589858169
Ni 7.465536811005073 6.568727886415108 7.204094579258609 0.005657712506409612 -0.8461266533404203 -0.18754989143094794
Ni 2.6057267382128555 5.46018706452094 2.6423009266766497 -0.5356248089645679 0.8801631740998389 1.7074652385345883
Ni 3.630395241821859 4.562850583867583 9.90313416055309 -0.5150516127989065 -0.1998477349616945 -0.5388857391040267
Ni 1.5048809582088571 3.70513538273382 4.091511986085754 -0.5119845438378087 0.8156225712142922 -1.1679881457034658
Ni 1.1746490541137289 0.2977781104023111 0.6862440176811619 -0.8544698830987929 0.3023828148131437 -0.6394161298206213
Ni 1.2034372427453899 3.7815764371605116 8.819233845137019 0.505083188732285 -0.5311891417907174 -3.1977013134062413
Ni 5.704600150372871 3.703734630427572 4.726231058382471 0.7282680557580231 -1.0105409871951694 0.5019171322994775
Ni 4.571628025267126 7.096929751195259 6.387645177235153 -0.6689156819416351 -2.172679358986078 -0.7508950491289196
Ni 8.573932100192097 7.786709304080569 0.17177407339934156 -0.917215084646814 0.284018196263027 0.9534002763181195
P 0.2184254922533465 6.049458091535838 8.232574220635911 0.5295744890054299 -1.3403495023194334 1.1002038390696407
P 8.59050463721797 1.9688119411971239 8.399673965397714 0.5998851616055345 1.7033704996399244 0.8484635290037129
P 1.8255713741919435 3.355856885591394 10.819414451779325 0.7463717073372694 1.0110112419633686 0.3324654931311371
P 4.15207542216318 6.516581698287047 4.015403837726652 0.22619537171728785 0.31520053540310233 0.02403312968980377
P 6.932978060804836 4.396697711281628 10.699348149227777 2.393107746312601 -0.06950180354556416 -1.0208611381742547
P 6.4176558406068125 8.276772503795142 10.356002838639675 -1.2693592871538009 -0.6217559935366969 0.4790083460221042
P 2.244732858145444 8.72793299173164 6.127756507137438 1.2741338257243089 0.9337485635254629 0.5086590790090013
P 7.19297224211523 4.382571942894591 1.7024034058194168 -1.6837457834304617 -0.9763211467803509 -0.32377439311504236
Ni 2.917121252527204 1.9956081508997694 0.6735662997301954 1.585296957833244 -0.873834917888966 0.1250576864339975
Ni 1.5095743880142085 1.509983698753047 7.321139258978107 -0.15232217857690541 0.07593881742015954 0.5741075384207983
Ni 6.689601895491298 1.1569668301958937 9.607420795433367 1.9677722072236046 -1.6281508197739765 -1.5392284456099556
Ni 2.932602294249506 2.0190207251613477 9.610189555186755 -0.5075247082942421 -0.1828314029093561 -2.580163985936582
Ni 6.522357527601772 2.380178329524295 2.8672044435566844 -0.05656015578323163 0.6990104444444863 -1.2086357440214992
Ni 4.224905446293893 7.066722618668957 10.55607756610175 0.0025819017945632955 0.6332814776777932 0.2978589588008612
Ni 7.28762307652315 6.659049122785532 11.540106061241161 1.6149903711326186 -1.4138195464841266 0.0587021418268989
Ni 7.6768957807472225 4.172049786218512 8.326507396881732 0.9969573349734636 -0.256289619999507 0.8253171727942367
Ni 3.0854844031028885 8.62304938885275 12.523682495409007 1.127101434791433 -0.9227293295968237 1.0799669431974754
Ni 0.17705418193036185 4.847658091745803 10.467934772441367 -1.6637690831982186 2.777018185487592 1.6290874726556333
Ni 8.89130255129349 2.7273466024131516 5.917870146475688 0.10453077012523933 0.17994765360365783 0.545452593688267
Ni 3.94251741967192 3.1585145347059234 11.764077259216062 -1.35485489502446 -1.3861837870447287 1.0724652355037918
Ni 1.471053699592381 3.4180448305122995 12.963770673070206 -1.856710835068699 0.45723495890075444 -0.6218094724824518
Ni 3.2841820273236255 8.354550639968707 8.127484143228765 -0.16443258868719424 1.0657603126797903 -0.039284142311603314
Ni 5.540521118863698 8.338032677708014 3.978674111182099 0.137985193128943 -1.3942555083092698 -1.1390565502707801
Ni 3.0366490840623235 9.010875861799594 4.151472371007957 0.8284585466366958 -0.2445535625095014 -0.8971609942094163
Ni 3.860000374722022 3.1962438890326625 7.262364056039698 -0.49796534674058107 -0.452975155183136 0.4799444846831282
Ni 5.220567462210521 5.035049643780393 11.694066931286237 -0.3037514130258962 -0.06215256226934457 -0.18595297925747328
Ni 7.79226683433458 0.210916914144204 2.6071020222953543 0.03959961666949309 -0.844858328150958 -0.22966044744775288
Ni 4.608083968406366 0.7718645476108779 1.9335375417239977 0.102474658927159 -0.8225131276865383 0.2606486682991511
Ni 6.193371747311553 5.895093368228439 0.35713726332813067 0.6167510841229379 0.7894561972315695 0.7582172938219458
Ni 8.063330597182013 0.10522560474067372 11.62972692145846 -0.03331378366078134 0.3110358625024514 -0.6187807129584569
Ni 0.2243877853490981 5.271740400359565 5.706185547301306 -0.18976978190040222 -0.0027773056348210233 0.7388003227479147
Ni 7.195346244400494 6.470174956296925 2.6096452063526723 0.6320990273339179 0.6657930771522534 -0.5172532484359156
P 8.676841915730364 1.9913786065984351 3.770558701650391 -0.2644749840237768 -0.6644663879210299 -0.08340530100053377
P 1.8615452402387742 3.5240926950483296 1.8341850912959508 0.32495478657638877 -0.7507770354938167 0.9912065485326154
P 4.762348637977604 1.182325904415505 8.206587536616748 -0.1759652719171421 0.48828977132403006 -0.40648112538665476
P 8.952026073348774 1.7382062709353547 12.740065072285839 -0.563879432934887 0.11353965849206897 0.34989140191706836
P 6.521238744915613 8.1265827500239 1.13516784982476 0.503303728234359 0.069731403057867 1.1129346563727478
P 1.864528660735199 3.8160131139881477 6.371696611691154 -0.3651123326318809 -0.7230008938218129 0.6419759201279976
P 7.419966882081021 4.285492531436229 6.128807980946544 -1.989330650120671 0.7317662987192687 -0.6138305680420332
P 2.786605701602811 8.733317701895919 10.340945660926925 -1.737809655154401 0.05033165837501654 -0.5075468197814291
