# total energy = -340895.2159922241 ev
CRYSTAL
PRIMVEC
9.06078693738388 0.00000000000000 0.00000000000000

0.00000000000000 9.06078693738388 0.00000000000000

0.00000000000000 0.00000000000000 13.26137756124723

PRIMCOORD
 96 1
Ni 6.061177225436097 2.09735473331935 11.393512898707181 1.8002992890481897 0.6143537875353549 0.5385355548534596
Ni 4.740993376100402 0.34783908281965814 6.205409551255609 -0.6096185868432147 -0.718168505430176 -1.131022110002078
Ni 2.9096361669565876 1.7172275359989078 4.718742801446389 -0.763834125788091 -0.493392382657918 0.8456566556825371
Ni 3.3197273869104214 4.404484807433468 4.9139502088906974 -0.05197767861887178 -1.8608487684964725 -0.12798874403786345
Ni 5.054587214425683 4.407248347470717 2.8737137707871443 -0.09853855709754643 0.5282645119447548 -0.555119941574702
Ni 6.979333955254522 5.93005857665236 2.9410290757010427 0.46693547401797003 0.6582476607048277 -1.2838047731551696
Ni 5.076133765929224 4.812147736469325 11.490108136835413 0.06072225758072123 -0.3596770205489225 -0.17981369912895484
Ni 5.627219892504835 8.124517764329758 12.459263506324854 0.46608623864379733 -0.16918347310861828 0.7339975020426327
Ni 1.857388850216006 6.526031842062511 0.31053944702509445 0.2859041004318302 -0.3157990882190497 -0.48669620158466503
Ni 2.578881198039336 1.5178811610496301 0.2949884182843351 0.6864686032237339 0.36199846959324755 0.6733354082758854
Ni 0.5500350752827556 -0.08132237554860042 4.542393610000532 0.2311187771608342 -0.05002132622344934 0.5439623822959857
Ni 8.94023323624279 2.2183162398678187 1.2561983836470072 0.06944935304107393 0.4605714794731552 1.1153733477212275
Ni 6.942393126625451 0.6135593469127675 4.83428958167925 -0.4119699164153679 0.6127427342944931 -0.8189536924700542
Ni 0.8382387762559677 7.3058937797873575 2.310383802728466 -1.0589949689314988 0.11718908231919817 0.8905905400807501
Ni 7.739968902949715 3.8192395138400492 3.9543702791106523 -0.503649541609552 -0.414527392729899 0.10525067901039939
Ni 7.666957081244281 3.6788607407347738 12.836907141926574 -0.6006300101913591 -0.009114817817074624 -0.34056935318519416
Ni 8.035205586798053 9.035788296022577 6.8808776314749736 0.44733415484727473 -0.47125312755671744 0.43826458844583877
Ni 6.900930965279698 1.0744281233346376 0.6596098907990549 -0.30055784578926303 -1.1095282017943602 -1.7789527050516136
Ni 1.848400549504689 6.561332668243248 8.93002625967898 0.6276510188648933 -0.20870595668327283 0.9698242262020976
Ni -0.12509775581733573 4.983251638316612 1.5767382212921426 0.6418869599586171 -0.6006693480697268 -0.19355444575381506
Ni 6.300961892799293 1.8834657952232339 6.996622842943296 0.8267821873755373 0.8609056114218077 0.5289985618973018
Ni 3.441839613408827 4.357921423002562 0.2857427912220087 -0.8010714128729945 0.3013044941473004 0.16057259151115572
Ni 5.710271066214442 5.45337963298132 4.957315135507999 1.1059818792039986 0.16346045458191202 0.7357394244344038
Ni 5.356791643482692 3.0147956609641926 9.182509620033015 -0.6074640023940571 0.06179954980530002 0.011094053030632507
P 0.09741433327370007 5.47126562653388 12.656009435403014 0.31369078362679526 0.9125773287644865 -0.5632289438350817
P 3.968597526869634 6.341481732296279 12.657786255735163 0.5871003511360404 -0.02480574618977018 0.16174424322175368
P 2.3879704157939257 8.536403020111052 1.4743866651781234 0.8416400783239764 -0.449476140890942 -1.3411300892391997
P 6.386921579138269 7.812527685304782 6.0844389839201325 -1.0289901950392923 -0.37662110460242876 -0.26464364839115717
P 4.698335190869676 1.2695884146865075 12.777443915033269 -0.6345215207324815 -1.2306441299717903 0.19376321933051144
P 4.065910379328852 6.218590278115239 8.233008003641274 -0.7725720198817211 0.45405784672435345 -0.31133745290327025
P 4.691630208484218 1.151979399330768 3.747108400631731 0.945183544835282 -0.5221733114453523 0.690559999684288
P 0.04408616526308831 5.665374866592894 3.691185223222207 0.45715448337180625 -0.09851978804446904 0.3474959051016983
Ni 1.6570910926309537 1.0222289293851448 2.626787391104734 -0.8177110783122047 1.166002996952637 0.26469635600596353
Ni 1.8308679266454166 6.603193504217325 4.706820617902084 -0.3290811500399365 -0.9894486853012442 -1.0771073622614935
Ni 6.021853409824086 5.563368526463856 9.15511161228011 -0.1988133801599092 0.2101725139264703 0.8309139501557238
Ni 8.788881850071583 2.2801651719801668 10.307445288382867 -0.680320581344467 0.45235243399747255 0.5900272949748483
Ni 2.3998491075605957 5.282157940902937 6.8928260913016 -0.494754038892135 -0.421695628343564 0.8165368554984452
Ni 0.6207336780652079 8.690943803308857 8.970817922786187 0.832691610881437 0.5628106253507404 0.29944404389979395
Ni 1.7270947330499402 1.3069913434529552 11.343954924170339 -0.6657254571391116 -1.2850764407787416 0.2095464503066972
Ni 3.991140764943985 6.938370137194175 1.6500735130937412 0.3603480784740181 -0.2202828628875948 -0.15718182066205186
Ni 5.613384070744571 7.951773860034136 8.235527808508026 0.07601157963962393 -0.1169769663083921 -0.29715679052751404
Ni 5.38487102241855 2.9218591686295374 4.86664746423999 -0.1060988859433076 -0.016893947541861225 0.5137447210620248
Ni 0.6905452297996378 7.236542516032902 6.605598237089082 -0.6442238356219099 0.42732737270804466 1.4695034703099918
Ni 4.942505279144443 4.596709403794947 7.132990405640405 0.514082821127734 -0.45048401333016613 -0.5687053935686205
Ni 8.110129234562045 7.000391224259664 9.195373219347386 -0.029023640925859694 0.037644806935967424 0.28498313127945757
Ni 4.574102740211545 0.4199982844676993 10.481792951978795 -0.40777901826247187 0.13709996231051225 0.28748815708949843
Ni 8.01297947626896 7.267983446948496 4.7866017535807295 -0.05335039059668232 -0.3647356660187525 0.07807231882339458
Ni 7.267974386161489 5.953045793290073 7.0805411339695095 -0.5013664020023301 0.2510288858211999 -0.5919826189290063
Ni 2.386167319179458 5.223036305679808 2.567760894145184 -0.6088570260868417 -0.6246556836819952 -0.20272248540632828
Ni 2.598651835289431 5.37050967501186 11.291360679907324 -0.5791502430510285 -0.5704853682871788 0.0006435471212698595
Ni 1.0207520211029424 3.248681755985587 3.7915868979722385 0.7703583000598538 0.7683659522201735 -0.47702525415380426
Ni 3.6386670895700544 2.669688405427258 2.3766380894838006 0.009809272780937945 -0.5350391116644269 0.35280883267417945
Ni 0.9856867753843975 3.432932859780576 8.176183277924515 0.3864874558735473 -0.17394541327363594 0.005991698807060649
Ni 3.726520480393571 2.559690451157714 7.064017882782859 -0.634294749433656 0.10718389147737026 -0.1703795502992485
Ni 3.986302304682046 6.924996415571289 5.938219627509904 0.7653767876848625 0.8208192849238832 0.9715764330065138
Ni 0.9805764915122376 7.145309451655634 11.269863962732323 -0.38970544859021267 0.3387474694851069 -0.055010551907924615
P 0.18259297977263966 5.4988557229713395 8.000151214023917 0.13407454522062714 0.19601961946485597 0.5428742914381296
P 8.742427195084767 1.4307163900386735 8.29515050525266 -0.7627668608658412 1.1732511938746182 -0.2955773618555361
P 1.8883133162721801 3.405170608389976 10.405566363043144 -0.8280068038112578 -0.8060554963511473 0.09341563404868428
P 3.8701248936734722 6.141328947303344 3.92466448890697 0.6161895551925131 0.6432247049334341 -1.8535339800026143
P 6.901565220370214 3.9771690313786117 10.530913290503182 0.4957212879014108 -0.15535350920406146 -0.16138840254423176
P 6.418253780609774 7.8456539226037485 10.396403189142585 0.05068544217000948 -0.033489390006697164 -0.42761765025495385
P 2.3216182725389114 8.4910084772041 5.739391529577448 0.283990171238569 1.1091013986695866 0.2672134660008624
P 6.945963076706357 4.0065803460045535 1.733262410765861 -0.2136401607600966 0.12626841891264706 -0.044178751399743275
Ni 5.352288432340027 3.054898704258838 0.5679265053075202 0.01355099921155731 0.016302079594133215 -0.33731047992826424
Ni 1.5240334354276381 1.1562289084372273 7.079135805904665 -0.11642392201839948 0.13015515556156296 -1.0647529544611984
Ni 6.7431645419072685 0.9750131682897087 9.39798057154062 0.770490454762344 -0.8814651807407142 -0.7497097705715668
Ni 2.600400567181854 1.6351186841380672 9.210106059021381 0.85564359169192 -0.253944259695782 -0.6713541161797986
Ni 6.377217476253369 2.089544334918992 2.66373365620601 0.842743081580168 -0.18919179790974516 0.8819688598500101
Ni 4.3361302302498235 7.0637533078022425 10.327337340178861 -0.541981347310215 -0.5844287178411484 0.24522642020680996
Ni 7.928976919923577 7.20802821932069 0.44418877361999154 1.0993857140437195 0.5020282039560451 -0.3824582801094961
Ni 7.620946404820826 3.7141887492765324 8.402316057503699 0.1498932574204386 -0.3589036327180077 -0.2352698232147303
Ni 3.200016268968971 8.446329736470728 12.359458031359909 -0.31608936576595886 -0.10075999022889744 0.26103330533207947
Ni 0.19417991419767203 4.851716193330536 10.374071067405506 0.3017233268522739 -0.2873464893053116 -0.5276883277263106
Ni 8.687038604108677 2.292460659949176 5.962991819188069 -0.5004040380890608 0.3249061927266404 -0.25394708790925946
Ni 3.7090965869783874 2.8176419964706994 11.415155494553 0.06186125628117088 -0.03971737319427998 0.28704567023544114
Ni 0.9470787619459689 3.3815853798097772 12.453892271786883 0.9173737217118654 0.32018924686694533 0.5585037704452704
Ni 3.0174595323443607 8.485907254118946 7.817250167493026 0.6358371542201113 -0.6450794987539858 0.8621981049809861
Ni 5.546062423279768 7.721811085786934 3.835641350480801 0.12081716599008871 0.5865449928532027 0.049023995307186534
Ni 3.2070293181126797 8.383384449130489 3.644425219713242 -0.0531902108697342 0.4037117901716338 0.19777105493832392
Ni 3.289437175944764 4.298763544631406 9.105235604119311 0.6724008122767581 0.2148416372673655 -0.41548641420905863
Ni 7.376993775434236 5.937950522135784 11.431811033229957 -0.5432607282432708 0.9312515081352221 0.2765846228031172
Ni 0.8059796562736071 8.888188075672423 -0.10720360755646902 -0.19932065881363092 -1.0189731771229227 0.6825800668026052
Ni 4.6957981705076115 0.38715293156596153 1.7169901433793144 -0.37660593509377716 -0.40500274106891543 -0.9027891390294709
Ni 6.145424423030677 5.640983227969038 0.35818197118857775 -1.3122568578482756 -0.009306622112906551 0.6707059410728384
Ni 8.256234425055982 8.739645533473501 11.111483218000796 -0.2139882881281347 0.579643380637363 0.5049448633822078
Ni 0.11501400595682706 4.869620308457111 5.868385423807955 -0.11384896220237167 -0.5340870321638028 -0.5565129652674867
Ni 7.777607412178355 8.619581044838764 2.542484922709408 0.19851538930351617 0.6674103010407021 0.5303458199538157
P 8.678992625246128 1.5955683488508712 3.583489614931237 -1.4726093629288253 -0.27696334629877456 -0.31353523188553745
P 1.800767992206914 3.280702577269653 1.5038269743224892 -0.15608627360502797 0.5456359133436667 -0.19989401481859767
P 4.681663342776105 1.006399734483259 8.371616298965307 0.09540592500583568 0.7853136358181055 -0.6893767780094644
P 8.598641566064718 1.3940473850198232 12.502734444150143 -0.3289669930595754 0.9000730256498886 -0.8780618114861201
P 6.089292847519984 7.651898053238022 1.5441148576720856 0.7776548337212671 0.10601995307625613 -0.07810445761291064
P 1.6679549762527974 3.2031059973384863 5.9456857160039815 1.2435035024329615 -0.07654482643527463 0.5549235092931797
P 7.002547691567418 3.8784698785072655 6.1889923112769445 -0.7065998267559702 0.12608612769851188 -0.526121754570139
P 2.5210099514232263 8.522159462935457 10.149369892173487 -0.7733248388873456 0.13445404004723296 0.4116600984844329
