# total energy = -381168.28174500994 ev
CRYSTAL
PRIMVEC
9.27288058109143 0.00000000000000 0.00000000000000

0.00000000000000 9.27288058109143 0.00000000000000

0.00000000000000 0.00000000000000 13.57179804755721

PRIMCOORD
 96 1
Ni 9.189610234591123 5.941978498752679 0.3061348835389713 -1.1410712667079639 0.9564516615499333 -0.09044549567676681
Ni 6.286605110091077 6.528423293071913 5.389972256077457 1.3713930018887994 1.9661261869797497 1.174036923000707
Ni 0.7039989575711942 7.418434382975301 7.853239759153357 0.28944373815397245 -0.8575937734397552 0.37732764375115013
Ni 7.072073742945384 6.271481041663983 9.136073257850581 0.013941292671440507 0.07769590932058232 -0.6712857248357085
Ni 6.941001574204143 1.3857392923021707 7.4301525223200695 -2.5984560993775507 -0.06657023172106599 3.35365337542625
Ni 0.0050518654071615545 1.4849776615889605 8.047764395971187 0.43615551252263596 0.35454689841120873 -0.07943371794729545
Ni 1.2896722482159124 8.106899410792316 11.875934101120857 0.36524268756215805 2.0353798790702493 1.1581516192290182
Ni 1.6274183820724564 2.6125321364689595 2.719828639086923 1.1874596241645163 -0.29073391772030577 -0.3658517819010667
Ni 5.096393780298834 3.703783283395513 5.332739109088577 0.44318619411717225 0.12377367751525135 -1.0601380813970065
Ni 3.8298759151990787 9.179910801375463 9.149997415514667 0.03343385417841339 0.5030512459039207 -0.6458891391394748
Ni 0.8934170189857129 1.4877131613964358 4.591393624484814 0.8578670817058001 -1.3916363255188677 0.3822788171088384
Ni 2.344110058750337 7.56461207438223 9.984147744773265 0.16461693678385841 -0.32858955511549864 -1.6379708911881918
Ni 3.835866196133415 3.2883582278873673 1.174644944955602 -2.729100021650074 -0.6194229745281461 0.8971414538253905
Ni 8.887360688066837 8.513116495762077 13.475479131087242 -0.43777067952855575 0.24815130716308878 -1.0011911705491532
Ni 4.868772377674762 5.403567226476576 7.3159866696770965 0.4859485247853631 0.8305619661329439 -1.0305904496468767
Ni 6.6979686438511745 6.626919831902437 13.497248145826326 2.3902098559395157 -0.47170435616152306 -0.8740812295718173
Ni 5.882492969040967 0.09911411268536525 2.98066550039024 0.27370087349741895 -0.9323344567867556 0.26234096839990945
Ni 4.095831406650621 2.3610701575566853 3.355450301640003 1.1702789986201716 1.0542952494629845 0.7171174384578424
Ni 7.726516571461967 5.45217566712331 2.1485654050551437 -0.45980117696603395 -1.6480033357235295 -0.061087868450256086
Ni 5.950936101512074 3.120342902424151 1.1741442093976235 1.7952388438061468 -1.262073295015349 1.2918284147905945
Ni 2.2749714602264817 8.842340852252283 5.144457902848284 0.18128874101258455 3.4552996249148427 0.41632973604596035
Ni 6.028911755346181 0.895758421363298 12.045391359533438 -1.2761382577488471 -0.8923496888637019 -0.11280020922288314
Ni 7.0630419571403635 3.471636714988226 8.828088434611299 -2.0767221894624623 -1.5917324290459425 0.6348017709770616
Ni 4.304712317373311 5.7850720843720245 4.680763794127145 -0.9519296053098638 0.3256227591776908 -0.10536380754949595
P 7.427030343387266 8.059487171756308 4.108820857939814 0.8400007429483404 -0.9491895806708813 -0.9646182565211256
Ni 7.885221924699063 8.787751403551916 8.397468836782716 0.5676761809731578 -0.009437748374132133 0.5601389920558483
P 7.295754171270552 1.000951834637751 1.3339001800184043 -1.1241318106401477 0.4093520191765466 0.17902565601002068
Ni 8.210635127220208 0.6073922318280033 10.607324274134436 -0.15654418707805295 -0.7151137777642523 0.2575582022992855
P 2.7816416618551663 7.120802731041262 13.154356490467519 0.42954057830927966 -0.07834845530291668 0.22930769209402446
P 2.1279128451527387 6.866336338781116 3.5124902455027853 -0.36491050103371997 0.10108163523437431 0.8844710574465735
P 1.0182272113880118 3.0804973340420414 5.974495709514965 0.7797268857589474 1.071260159452097 1.0581701590373582
Ni 5.072339927754457 5.340966008848551 0.6895518094354423 0.5304882590689509 -0.3421719217856236 0.4209908889670556
Ni 0.06701232697858737 0.7343583689938209 1.6990671494026972 1.2988493261931178 0.29264527581040567 -0.07452573912271682
Ni 7.268899908753776 4.025478060754633 13.18644065770096 1.2793102277189257 1.9732391438754469 0.6417416926300045
Ni 6.792153293154661 3.022458373720044 11.28793609928382 -0.5152115354155385 0.2538650697184144 -2.5586657068534904
Ni 3.357042455256761 5.719689002533008 11.080559249811207 0.2464199262942788 0.059618740103897325 0.9431269194165692
Ni 7.2296570776173805 4.6539290046598465 4.554275210317548 0.47589808252789656 -1.1122561422484845 -0.4755874932660132
Ni 4.585819695894057 3.451486745219941 12.51094468083559 1.0996970746365513 -0.11458686880966072 -1.1778817506680939
Ni 4.406630549183356 0.8110998024063176 6.972700916888397 0.4723257917956059 -1.4620426431565723 0.28726524244541496
Ni 2.493950538035072 4.790648357749402 6.519131866607199 -0.1566226057244722 -0.7720194898123607 -1.20831821278108
Ni 5.059246620201386 7.718912809285254 12.03936584165243 0.9982156328605969 -2.146354862158936 0.4520577855751892
Ni 9.277980787693638 2.625551260976402 10.139055853362356 -0.11543584707351733 1.4371391950466734 0.16397261833164017
Ni 2.842239937251276 0.6426505061261867 2.6278527899669633 -1.3674954666066061 -1.7064285697399582 0.767819078577768
Ni 0.7573931319489052 4.595333671495649 1.8219597100755522 1.3132333628289319 0.3272250706678042 1.0162897167534886
Ni 6.62479634222138 9.191464810731784 5.803924778129918 0.6187100076215215 -0.33687750615590367 -1.895629623621084
Ni 2.9966334009613345 4.829965371931423 13.38430353157198 -2.631124536144849 2.0055918491745395 -0.3733881994874279
Ni 2.594960027536193 4.438436529995698 4.089888417407872 -1.601450170554339 -1.1436323425669206 -0.002786818716517781
Ni 1.2744832696238957 5.28061810123143 9.666147283086342 -0.0686926773807075 1.0443085705639177 -1.1971642530467896
Ni 1.4168868985845784 2.5964807799715355 0.46209917324016997 -0.3858883888369677 1.0889460067676342 -0.6023320804841304
Ni 4.583983665514802 0.9839360985471831 1.2171824306058816 -0.26645164813417344 1.1163125717060454 -0.9196913141014483
Ni 4.733379046525778 6.847864760420129 9.444641345286099 -0.757535951484205 -0.28513019838028314 -0.31178611040491466
Ni 4.559206528275567 3.028773205478996 7.414775304249775 1.0274434193774629 -0.036419162058982435 2.0532472462689735
Ni 2.0617230226925347 0.12146731890875667 7.702443245868112 -0.9340375555207913 0.9864132409090303 -1.0461471664345532
Ni 3.3281110674624435 5.689264680945459 2.2009655266214603 -0.29574371223007134 -1.416274435782522 0.18077452038032737
Ni 3.497535870792562 7.769181095577881 7.019144139890909 -0.5047867405377888 -1.644939352086225 -0.32668796721741156
Ni 8.792879306580843 4.538555822949302 8.353835296633305 1.919579963789094 0.9939584002461398 -0.08684723680254722
P 2.9303415768133942 2.0362689651619577 12.439978397525111 0.7676409011286909 -0.5027118602866311 -0.0749815957132128
Ni 8.325915580123718 3.016347545336565 1.8918271570226879 -0.07980781345726254 -0.255733747496037 -1.5378791306709128
P 5.6340446763572665 4.287965494823139 3.0770255675067233 -0.2743552192519662 0.3759125085711784 -0.08853645157951204
Ni 8.995714299084977 5.2316480182372676 6.176796584090589 -0.04583119940150171 -0.21625394423385982 0.29303094128459856
P 0.05753451561173748 3.7661712247673607 12.0537248974215 -0.9013110118220476 0.16008433902082753 0.4758515455606772
P 2.8912192931261425 5.938881356597776 8.211575397323523 -0.30417795904035355 0.5655401084667615 1.8543117387089032
P 7.449071980819026 8.14005923218734 11.82409035239674 -0.3777408200291688 -0.17607402958086452 -0.314382153266865
Ni 5.751504256226053 6.6040621809687865 2.871711006702526 0.07211121614395323 0.3178569991893429 -0.2795820148685443
Ni 3.8826756979237076 7.770191839574542 1.5876970702917714 1.466144581140088 1.2512111554898646 -0.8929279299646752
Ni 5.89170093957935 8.846383828238924 9.962785809497056 1.9227403637949465 -0.2166792046967365 0.7103055577423315
Ni 5.611715579623704 8.16136831204354 7.559505498978918 1.5183382324245078 -1.269773491873084 0.978428680041657
Ni 5.945363100209386 8.58872756501684 0.6367900455216968 1.0723986439319144 0.43493758095513485 -0.15618834640053103
Ni 1.4372501446090402 0.6364144938532129 9.858011530430392 -0.06793214506559914 -0.5202115597332911 0.40595019258384923
Ni 9.235891182181327 3.331300938424381 3.9750308078644325 -1.0179694184487567 3.135251788721768 0.6502448450050092
Ni 3.4356764836208025 2.1306668907216206 9.999049264063478 1.9523216769964893 -1.054454657858984 0.792404738336932
Ni 1.6051449226231136 7.8389966143930785 1.5853491768976942 -1.7617561386676692 -0.8168818975426899 -0.09342463290974878
Ni 8.237452298214171 7.66567720116757 1.9680196358975488 -0.6680103965185462 0.5504657306321422 0.6532378661950621
Ni 0.14479881404634695 9.070500081957146 6.056143424107582 -1.677696749022904 -0.14129317445625345 0.9169296921959113
Ni 7.233625870558396 1.9802607657139841 3.6915968635752265 -0.5056974252775162 0.05932074924750429 0.579313250991454
Ni 4.7711011252268305 4.341497835123329 9.447301734759879 -0.32162803619600094 -0.681634157949568 0.870733653255823
Ni 2.399617522640332 3.472044721739172 8.570495226977998 -1.1297607267911511 0.3748935803883608 -0.7565897855208518
Ni 0.472006318983583 8.719734823593159 3.6115774668341105 -0.38010366383439054 -1.2991773989564979 0.22115215286642556
Ni 2.4281687223258133 0.30353662236590473 0.21854696156781642 0.16274105991738425 -0.15261348456507912 -0.4560465950196081
Ni 2.093556822146987 3.6789968732755733 11.072959196786776 -0.13516469296101238 -0.7079535125703872 1.3798460177521592
Ni 4.070442259284968 8.106343037950117 4.319862349866374 1.8117432692190734 -0.6014512205410738 -1.3207420125011513
Ni 7.984321200775303 5.678137224101491 11.368186390754449 -1.2417597802689775 -0.40970426030964285 -0.052915617052108864
Ni 7.950224818429243 1.7523055393845928 12.847946202371658 1.1729130938089092 -0.21205456144053159 1.8953074643949743
Ni 3.6503436719023554 -0.04198574924843261 11.493439826854367 -1.8862160436166675 1.7330831962130087 0.01540219348768315
Ni 1.4753895029417412 6.965769438562675 5.657403990136967 -0.18275966913115624 -2.183859029751981 0.14017268769856506
Ni 9.166984405675054 6.258211549377552 4.073860243112207 -0.36368434193610266 0.18737814173977407 -1.4612929094747413
Ni 8.177085844835645 2.330330558025223 6.07285037327073 1.4358914386825012 1.7629591578368347 -2.4495537451154714
Ni 9.184222690902502 7.416765264448705 10.128334548693193 -1.085202737675118 0.3944311362006562 0.23036287283141615
P 4.932106152878347 0.8723861255506131 4.815165854328945 -0.8022716038286828 0.6167598258736862 -0.05136472762522121
Ni 0.8733811056500779 1.2768571270839422 12.142538694221631 0.06590868687766714 -0.01271204825002972 -0.9893427558509995
P 7.88633467038346 7.162957246718495 7.100791854483525 -0.39512764804704853 -1.1061181476715467 -0.39324071543698086
Ni 3.266019858273101 2.2458175232952846 5.74613618558691 -2.645262518208128 0.5114243004589644 -1.5747631481814557
P 6.790567630554396 4.0894702104881535 6.775380506538521 0.10014832478682753 0.0028467254201757423 -0.5454775333889316
P 5.752793186643813 1.659678734039261 9.514929781017164 -0.32568292299166485 0.9663807477381873 0.16390088455344032
P 5.530781876845241 5.441252213654814 11.143274523871883 1.3356204722748803 0.1027839626374617 0.5700235981594118
Ni 0.9762210618020318 5.902170021893383 11.915645212732768 1.2807806416168652 -1.4341217483765882 -0.11045587736042267
