# total energy = -340872.8962758406 ev
CRYSTAL
PRIMVEC
9.17126304202914 0.00000000000000 0.00000000000000

0.00000000000000 9.17126304202914 0.00000000000000

0.00000000000000 0.00000000000000 13.42307050748454

PRIMCOORD
 96 1
Ni 1.857345800537776 6.394754702707758 12.475831123614721 -1.4017266198753344 1.17847773238088 -0.5975140902701966
Ni 3.819271510829412 6.005342884050483 4.527292999297185 2.861126426092421 1.5792342965789319 -0.4469533744690883
Ni 7.9922511142201795 8.168504442787194 1.132650956292356 -1.2328416518437413 -1.7378232820011554 -0.35810273408326715
Ni 5.231746866534206 3.8313225501538506 8.8163257622096 -0.2309488272418732 0.8434385649852958 1.4303694804230076
Ni 2.3166884980754494 8.57425028049837 11.000702286064492 -1.414376447428861 0.6807766950452793 1.6505469280809897
Ni 6.91832375366175 5.323496179625289 2.7434337762289127 -0.20540928820987206 0.02261722317888363 -0.4881069658892625
Ni 0.961744473940064 3.018115848587155 5.529955979363515 -0.7333634680030596 0.3599570136831865 -3.235624056593944
Ni 1.665262872371079 3.581818345571393 2.6137264406446894 0.4185046322100921 -1.5944215458423314 -0.21526124130328736
Ni 5.014011916304758 3.967580001632681 3.6980696043696066 1.5316259506723493 0.9311293807350608 -0.14368224351372028
Ni 8.009172094093534 6.297264179101379 8.74542548085082 0.34857499709849005 -0.2765100608114399 -1.3654244430101905
Ni 0.25411643264658273 2.519400919831967 0.5787745502763094 -1.103893629216402 -2.0544973166259903 -0.6360441280245949
Ni 8.863429367970875 7.028461448674825 3.374841286611021 -1.1204584755536187 -0.17865464582384716 0.5137575765778314
Ni 3.6053242921380106 5.032987259046206 11.973298198154234 0.25238257163561695 1.5836175132482921 -1.119165724884124
Ni 7.132656165390919 7.792592722977388 10.343884874957658 0.4616081482677856 0.1862327152814212 1.337099113702936
Ni 2.681888182930199 4.058650641276269 9.721228583543114 -0.7278757054156109 1.2520681041735209 -0.3481461370911875
Ni 6.737980041884155 9.181167767814992 12.541590912171866 0.34230587626032666 -0.056204057995393526 0.5005796444349766
Ni 0.48056224828725724 0.1724866909334188 1.8853640084039553 1.7702014412215448 1.5710070235731333 0.9382004286492294
Ni 3.9021980691030596 5.9748025789132075 7.750252671116503 0.3283892661792344 0.16011802047224036 0.7658275020690359
Ni 1.154084197465273 4.447558040479325 0.34304558242543964 1.929013598398168 1.2324143344983358 -0.532751858292147
Ni 7.371035628192141 3.700265204684881 7.683163966579061 1.0574759611838112 2.1762166827153746 0.2700892448867606
Ni 0.055721841418181914 3.9770264023207873 9.520044094169739 0.7244736217125974 0.4261672909616725 1.0075052856926392
Ni 8.54827726423748 1.9052748199514105 3.6635581424382044 0.40322096657814427 -0.4984258313167674 0.5081428014942152
Ni 8.501944044551738 5.863481790998417 0.3801350863310422 -0.5577481232261684 1.9111374894486957 -0.7347104689492573
Ni 8.58384342139134 4.554770102657929 4.472097588363951 0.4265285309558332 0.1844941353237597 -0.7116816121542517
P 4.202621124773252 2.825959550318026 10.591916174733797 1.1107649024149386 -0.24790576681118595 0.024330863435880676
P 1.8601522069557959 8.351306052996257 0.39879677188459434 0.2667200713042116 0.39029834497920524 -1.9419364771074235
P 4.834227651558207 6.251132727197326 2.618089210360546 0.3005187650212115 -0.16650669760740358 -0.11616372637847737
P 7.213143167758706 2.301088180045868 12.896416064542748 -1.0158004358218957 -4.324567235148101 1.0612164020628496
P 2.3893157282202195 3.8144474265945147 7.003675193820771 1.24438359104507 0.3243099539035383 0.45592472472976314
P 8.111560072037241 1.6136103202590257 6.591304952986277 0.07593856030984342 0.08768695909502318 -0.1844303719653598
P 3.1714226776185965 6.735879822702042 10.386476219419373 0.378761033763567 -1.3467700611337967 0.1100892380496233
P 6.628172512332023 6.809149041243092 12.36094271446918 -0.13370482058603422 0.7807640687742102 0.6510046059891692
Ni 2.8581598540228232 8.524312754530662 2.3731183609820987 1.2442437230330958 1.006421822820473 0.8739860987548497
Ni 0.29886944375119656 6.7634394674280225 5.707247494879943 0.13521714346550262 -0.5427513927070201 -0.26409857452096447
Ni 8.874875103950249 6.025703087475334 11.120839408912756 -0.3281128725893962 0.056362180839812606 -0.05982648523932922
Ni 1.634786766073431 6.653457683882614 8.604429237881169 -0.15386766868715437 0.5921399704424769 1.2470027738354716
Ni 1.502500471388727 1.488661035817511 9.755780399030852 -0.8355686753189158 0.4074059511937693 0.850031130601149
Ni 3.5930989988202966 1.9851381764485265 3.1287029354776266 -0.24437435661915977 -0.394598772126772 0.5598173470503713
Ni 2.673037914324352 2.9992230472109425 12.168361786732227 0.771467988184265 0.6059195407250726 0.9929543844616577
Ni 2.457467382116645 1.620277828317524 0.9849395146976268 0.3966651677374975 -0.4805093560476628 -0.5802787002285167
Ni 2.6517697558819067 1.3458461314338304 5.893090295834808 -0.9383552090595387 0.7369380727281953 -1.701459912880773
Ni 6.623871190076954 0.1711100843865404 5.468975335853528 -0.7620886038518939 3.358932107326686 -0.6305291117436367
Ni 5.737844661846603 0.9911475424896453 3.211361692877398 0.8392376395300708 -0.20073605110391882 0.2505974547107362
Ni 4.461122338166421 1.0142132684416718 12.443507924988351 -0.5831999876403697 0.38840215639775694 0.24454044988337884
Ni 3.170294612293706 3.773167572713771 4.827594077172083 -2.1268571584456404 -1.293333024360579 0.3650290288894552
Ni 0.6469344583092581 2.501351874633721 7.583457665879239 0.9533144014725323 -1.0351968380706364 2.198464438369981
Ni 7.535953275933429 1.3093078204227475 1.4809672634512465 -1.2203404340529371 0.5615109327027104 -0.4772258002003846
Ni 7.2536159505127 4.008419634898833 0.6227498382951452 -0.06393407964979958 0.14677939438180526 1.371607946113083
Ni 3.207649165694344 6.175579864218084 1.0959778277180543 -0.7202577838590369 -0.45478932557373936 1.5474922282806445
Ni 7.49979098669731 7.611983044578479 6.275821766665659 -0.4367761768257703 -2.55296222871081 1.140683544351242
Ni 4.786142720676905 4.212636143755205 6.451396421785179 0.07211944367406936 -1.1196151537167167 0.3608769543942946
Ni 8.691963438587539 0.6978817403116846 10.9591720567092 0.35797546447678347 0.5471191827574127 0.3398743840006985
Ni 3.415561693460722 2.0981739905076626 8.563261273406633 1.3490650278155605 0.3607373434926368 -0.7820776453793111
Ni 1.3078220758485017 6.918956570795225 1.8018596605736565 -2.5372499601818754 -0.6373240231782831 -0.5496329503182018
Ni 6.025574689796078 7.681070167280911 3.87192464771338 1.2718049204808162 -1.3840821673206938 -1.241684446946352
Ni 5.111098904347761 5.511727177414311 0.3411177829840416 3.7691143357140118 -0.5948702248894465 -0.19171276455938593
P 1.0775408381032 4.359275464728149 11.51277974472509 -0.3565045363582118 0.7483720255967499 -0.3589347430662592
P 5.518550596940478 0.462024374781559 9.082506073948545 -0.42291253146980073 -0.7823447829977688 -0.44004944826040343
P 9.134641951610368 4.850524985560891 2.26292838977104 -0.2678282167667258 1.3351170502759007 -0.18072052721394039
P -0.04849396920236001 8.142568111577521 9.669295390789259 0.8835611440377946 -0.3149128289593544 -0.4594720757613894
P 7.13825063570135 4.6398335651649045 9.867728501321436 -0.7315230723602111 0.033475248939310094 -0.45979192099465327
P 3.408316395845573 3.986390261643658 0.749105077324511 -0.16682422884782236 -0.42572017612192486 -0.03332432518374261
P 4.75107181171446 0.8583063864053001 1.2500275290366187 -0.8836372486913685 -1.1219864821623708 -0.21933129760760292
P 4.796010999453995 2.0502633136196358 5.488800854656906 -0.3146904285359032 -0.48829568486130104 -1.0012220237870886
Ni 5.8490553946077455 2.102420285185908 7.4311055653056926 -0.14987011749198703 -1.8594004660857202 0.04045785090473032
Ni 5.21121240911608 5.923214225640782 10.116256883541551 0.2947360969011634 -0.03877634943724935 0.26407286348935166
Ni 0.017248393955457762 8.074517341571939 12.331962441134863 0.09922915540666781 -0.17079555479074457 0.8850914646393919
Ni 5.257472258699388 3.5023126683236323 12.41325284612428 1.0397512902105381 -1.2777403121286446 0.10824318597982004
Ni 8.106149026982889 2.0016189357072904 9.058827707641212 -0.46015264676818174 -0.5643003225223894 0.6303406498819144
Ni 5.560252328910204 7.889826451225255 1.275544733536151 -0.4534487523854448 0.4594566491424216 0.015773203673856706
Ni 0.2665434937459847 8.533153851873706 7.374084155948186 1.8438375786504566 -0.5259258365092491 0.6210671949997885
Ni 2.670213165380724 7.898438266998199 6.665010723636796 -0.6885635380795497 0.8097547995796055 -0.7052955061222498
Ni 4.069967979576388 7.464674221420845 12.825850534276313 -0.5799809664824398 0.8716803334398083 0.03803278640300546
Ni 6.19452769317112 5.658192244393979 5.274877481248795 -0.39533462185153206 0.2717499204186352 -0.8421735822299431
Ni 2.2364307772777616 5.784544732044504 6.008622527629188 0.5276937270429493 -2.223836341475867 1.232997203584999
Ni 0.30157680053093344 9.014663491608616 5.005731183119038 -0.4018492830415982 1.3376405880287028 -0.898494368308859
Ni 7.45852030407937 0.04080845097261916 7.961182544345394 -1.4637025473574987 0.835748909650522 1.0385832380443663
Ni 6.92660540397375 3.0374580418407633 5.352476452959606 -0.6159478714953521 -0.2354310313829429 -0.3555344591354586
Ni 3.4071699879950743 8.36504460467663 8.919979374420256 0.7889383770548865 0.5008326409860472 0.23633683102666395
Ni 0.5460707442435734 5.001172148379177 7.42044764080118 -0.14900931215358854 -0.8334976517225 0.1644485295267942
Ni 6.357849541184515 1.7322864609426134 10.618078119008448 -0.6088138315537321 0.4943755725067937 0.9455149600327715
Ni 4.259492125420773 8.711122206585067 4.679657939638656 -2.081994236494679 0.36768986355107 0.7413670550338265
Ni 5.285252013732665 2.9543388870482317 1.5256120536547735 -0.4614099162140505 -0.20420986858513215 -0.6692933769960281
Ni 4.9952475126078015 8.309989514064297 10.982098379466606 -0.612350898172713 0.729713272844982 -1.4729824299975276
Ni 1.8175700337568856 5.569111768778856 3.6275581845537155 -1.3026391322528532 0.4963159840626163 0.5521143219791588
Ni 5.876449956603254 7.524801020363781 8.312799588987438 -0.7583543336204424 -0.14129548844909862 1.2313316429571182
Ni 7.855003166358518 3.6789236761400037 11.683305619671016 1.7502548228962886 1.9966140711559615 -2.1059887996370636
Ni 4.299011096843151 0.3118275209669494 7.0043593700259486 2.4088948339435285 -0.10535532290906371 1.0341174889635287
P 1.529482326558056 1.5338661901783617 3.450373055685814 0.08747484308421709 -0.35223830488269015 0.6355041963607249
P 1.594983485504129 1.3591903188136312 12.014534029973518 -1.9514043073885423 -3.191770549744103 0.1419367215775233
P 6.871770423668714 3.048390187103115 3.0500703624488055 0.18185258393585454 0.8915637026272969 -0.3221324866362452
P 5.1951810417347115 7.404749190259596 6.410375197515508 -1.1594037464685647 -0.4178166050041321 -2.5631481681048762
P 1.9770032663413903 0.6517411171448275 7.824898496204432 0.08603913907895505 -1.3396815297181315 -0.29497263839200166
P 1.979259396991171 7.676255254308818 4.526326348197644 1.0795591662360955 -0.11001750427142343 -1.0458157512370634
P 7.7674451203688575 8.889154760136057 3.340505912925456 -0.1822855577082151 0.6752745342801273 -0.18274449962250464
P 7.898768432459143 5.3722139276400664 6.412106731932901 -0.014999558732625783 0.4121966877141934 0.14067379570469965
