# total energy = -340873.2616458129 ev
CRYSTAL
PRIMVEC
9.22262281816769 0.00000000000000 0.00000000000000

0.00000000000000 9.22262281816769 0.00000000000000

0.00000000000000 0.00000000000000 13.49824073138844

PRIMCOORD
 96 1
Ni 6.161514283085152 4.003475924074683 3.2398612157943485 -0.17516591594429834 -1.556610645642145 1.9209907280936913
Ni 4.10511844804818 7.843194960782213 10.017193068248913 -0.10379980549648575 0.19148136527487022 -0.5845624152055352
Ni 0.8016663269775725 2.0807343361499435 3.594608472884281 -0.895609076341264 -0.0511649529095893 -0.08906378483789176
Ni 0.7866703425858743 7.871600638473744 12.365913761386416 0.8880621172319415 0.6243350671177827 0.9603183435941911
Ni 2.7413969080437313 5.08780733421314 12.06821026976975 0.9275012970641704 -2.304290787378193 2.5521950115274823
Ni 2.124458790025123 5.904774914391368 5.017647154839581 0.9912451150800348 1.01702016716161 -1.1697845754822562
Ni 5.02409745710499 7.536966999071299 12.484617214957824 -0.30962047021216355 -0.8830932032624405 -0.5360323288156317
Ni 1.7693785962583506 8.302924253498922 1.3759701051155278 0.48044456424799836 0.6977567745430435 -0.3964569083814333
Ni 0.7690947906453706 4.2976222501440695 11.144781345295355 -0.2927833440501667 0.6219074315128967 -0.513716953147883
Ni 7.273947024368446 5.564801376487819 4.970524164526308 -1.6281904147626607 0.11952955752691673 -1.5376590442403066
Ni 4.8369427761328305 1.004076148037252 9.15856966845077 1.0930638855907497 1.4472348887197786 -0.1786677584499697
Ni 1.6493000496532397 5.998117078000456 0.5786550114934308 0.48768787607397296 -0.17646175193758643 -0.24253807474136943
Ni 6.202388946568551 0.8383603756240975 5.889390657587068 -0.04817038905763962 0.1466284706262378 -0.2042011268343838
Ni 1.846396717817435 4.422348998553249 2.7177491813655315 0.1469205479453599 -0.6901527369435404 -0.42812492890867554
Ni 9.281555185707948 6.825026645370721 5.376281747366846 -0.7474176321032805 -0.16580144401026284 -0.15922301946179673
Ni 3.8701168008865188 0.16713882308451936 5.178708269612829 -0.8138932472280113 0.565711086826987 -0.17826872323933815
Ni 6.5965453924064335 1.7768212527184368 11.059351269638073 -0.21491671347967503 3.113603357214057 -1.8241341866842584
Ni 7.5795201798728336 4.335342776688993 10.894767113021265 -0.8590199643633206 0.6998925899391236 0.4506621907792432
Ni 4.0475877281002015 7.294873155109382 1.2906211885373653 0.7221807119133626 -0.3286785152848791 -0.6693699958702343
Ni 8.74863515982241 2.6002354461130226 12.417517101771944 0.47563660133639374 -0.8824321726396739 -1.6402576303398397
Ni 4.62503457602948 4.994492838471933 4.98338880082888 -1.833478604013636 0.13353538488770553 -1.2445429994410695
Ni 2.677530246350921 6.927720548323709 8.220765442087481 -0.29575733907682616 -0.5198801445358014 -0.7421191027085026
Ni 7.182504721020544 3.004481441104975 5.283791754088504 0.37073482102498084 0.27358003164883854 0.9501917966831507
Ni 2.069833196204687 0.8494413567105829 12.450182708854944 -0.24592550315636358 -0.052353573901051775 -0.3086182541998943
P 0.20534261505510393 8.317809566419095 6.996097072481182 -0.1068301076823773 0.7395109756616941 -0.15641897435409835
P 6.4767158566122545 6.723052106982648 10.610764749579449 -1.682890891629334 -0.9329088412329869 0.5370684833896299
P 2.3028427568788903 0.6279840531391111 3.1542014968336516 0.5666734507402562 -0.7054016926828109 -0.3915556144250741
P 6.633334434066018 2.9780862951461557 12.889618542742937 0.5568978594107311 -0.41461532445801497 0.45937694494442183
P 8.884226157686339 2.5787836258823402 6.825330991917416 -0.14094967507390566 0.28521813010839914 -0.9153101543146172
P 4.246777931600754 5.113058874966196 2.7612679707561254 -0.5237954204298075 0.42198564878015715 1.2024141885918196
P 8.552599093260334 2.549898371814198 10.126838984138226 -0.650594515034944 -0.9699782352814584 -0.29551514115903305
P 9.32582377431813 0.2905624149164869 13.62080466534179 -0.9138477108364778 0.6455050163271787 0.6224067397468184
Ni 7.290123504456415 8.005467005906402 6.1577486862664985 0.41313488325774655 -0.5855183513609014 0.46965184450786857
Ni 3.0430504489315933 2.3788740578168728 8.261759999665033 -0.3214004935662271 0.4399165222269649 0.6830786037055785
Ni 6.374805876582571 5.1934616990294336 8.776960600697084 -0.6183544240543157 -0.5388294319447947 0.36494495381608116
Ni 4.116305489294877 4.3840658920280715 7.379461205320807 -0.6179695299110712 0.983531548485861 1.0945412414672246
Ni 3.801777167219555 2.5084611283505454 11.053102020545936 -0.7593066702313825 0.7220012489127049 0.12361863999462581
Ni 2.4725482358405375 4.468526670047242 9.206798451217034 -0.016909374160828942 0.08857733211977648 0.8646285687993496
Ni 5.282220219192842 7.332344670843374 4.947402127337854 1.4208718253452175 0.4175402114142938 0.010722528623826694
Ni 0.4217108754609306 4.033255772537656 4.877252092849187 -0.584250026171439 0.14166469886305924 1.169717726800063
Ni 7.807355849253222 0.6380284114423082 8.868438872273233 -0.32080451185344105 1.004336143936038 -0.5882637753165223
Ni 3.3531334669006436 7.483807802248576 3.535823476259014 -0.7182219843759308 -0.31501721574770264 -0.06485659146406894
Ni 8.765660121192074 5.670326624587334 3.1606803892292037 0.11032269421666806 -0.9094184714205306 1.8297461335543972
Ni 5.503166589470772 4.697312269558225 12.483901539441959 -0.281083024894103 0.6089336449610481 0.9045279760974487
Ni 4.170202495927771 2.3324197076440663 6.219570692522877 1.3063124673393827 0.059403538769297694 -0.15046069988813443
Ni 1.9030143981253287 1.8326181196125169 5.862555592528935 -1.22829645567522 -0.15376559589165134 0.5950946821954267
Ni 8.553134005372707 0.29545132717112355 11.005061379281265 0.12295169583458826 -0.17021217148344878 1.722176062382202
Ni 7.4280293805997495 7.503479656312224 12.473454152529957 -0.9263401868765337 0.5615070760479685 2.3768817713720423
Ni 1.3702603794470776 2.0256845016886604 10.28268931712715 0.1304336060339302 0.8035494420998418 0.32535690711081383
Ni 8.809513691784034 0.6896806317277601 5.35272716917718 0.24463840891382382 0.2910367936727052 1.2263303330877846
Ni 1.4924970197469345 8.563749244016522 4.792402120155152 0.8722207793243107 0.3300414570706767 0.49724698051731786
Ni 4.563879365389043 0.7043944038670683 12.3991733053666 -0.66924144071217 0.42743253082734134 -0.48676664981128426
Ni 6.064031161916487 6.38512599130232 2.8164487664587137 -0.15526017815930682 0.687920505178912 -0.920746237728524
Ni 7.966049516798088 5.628363691633935 7.029923807752935 0.6156583652793913 0.09008965499924486 1.8068381186079723
Ni 8.94065938554169 4.1095268616639435 8.61017684858371 -0.23200092265547145 -0.7247163338510229 0.4467075770068694
Ni 2.933670144573943 0.06004941818744525 8.133229841684427 0.017412024828860336 -1.0835358914956565 -1.4685225944539613
P 5.168154822540615 1.862222738245574 4.1459036520920955 2.0956876748213715 0.22866414497275458 -0.05185889365282037
P 0.628390770796967 6.069998198756234 9.1889812665637 0.8166574402367097 -0.22701838183921547 -0.905268453807899
P 2.652398599692017 2.926365827453263 13.113824187857292 0.09635466207235019 0.8888265062017918 -1.7854663378004154
P 7.679161394736245 7.630465947265048 3.5401562643692355 0.25218151136840444 0.7602800898882455 1.2185995401024303
P 6.012817938468086 6.360409362661636 0.5662201494052841 0.6069832061028966 0.22620077103392655 -0.3364015949607497
P 5.066595302170763 0.29980993862470073 0.8640896482292386 0.6335416733177154 -1.2102108018181028 0.8871827999507818
P 8.953349714276607 5.693632191966068 12.663037150039838 0.8217284270017139 0.13514258147382532 0.12607430062396996
P 1.4147687562455618 6.505139979549041 2.746378968786902 1.1993607464774765 1.5903748865767835 0.09871184945061709
Ni 3.7776415638043805 2.0902428600785052 1.2056476327001262 0.23548579588027832 -1.0938992370078515 1.1237967958982324
Ni 5.934471759250696 8.953654060823302 10.754290891951753 2.0545981038699135 -2.0290056001127894 -0.051295050729550366
Ni 8.713921208253927 6.7960768329441885 10.893363429857416 0.834629451334098 -1.1762997508929547 -3.664685895494592
Ni 5.196145482213926 9.090637674703926 3.0981565413909022 0.39310573252101333 0.30260135858185305 -0.657586630082061
Ni 0.8888948140471423 1.2272728382361988 8.067587825135897 -0.9257516613629153 -0.284646059655013 -0.954931111140349
Ni -0.09123571660105372 4.17939745068701 0.5866473362620936 0.8844828845211153 -0.26399315929135175 1.3064723899560144
Ni 6.6677809295783135 4.358786683407134 1.1276242452746859 0.4419137551626518 0.01761745597144708 -1.3111885644847612
Ni 3.7116813667752133 4.43557423940054 0.8844707219729125 -0.06977819713540241 0.5512046656806959 -0.7920977486194745
Ni 1.3889823033801323 5.109996964253992 7.132132600755736 -0.8406430045180296 0.06197901280595778 0.30990689110433084
Ni 8.153923562335162 2.067527540547907 1.0410828435908364 1.716748720719043 -0.13619519110805575 1.648693934032651
Ni 2.342518479420763 6.488299470631919 10.5371045849189 -1.6910009223309779 1.7217662285382926 0.03776436323296722
Ni 4.477131376958346 5.302519211595135 10.615475665217382 0.8276684466352326 0.7960621325838613 -1.8597447367990165
Ni 8.57573865343178 6.488723711272766 1.202071099645329 -1.5343968285492673 2.0154543437909163 -1.8837305581906527
Ni 1.4433496637670085 2.061200821425702 1.1238623375050831 -1.1921886542090694 -0.6035173590414832 0.45527115030616433
Ni 3.1749616203673003 2.603712374843447 4.012743737552677 0.09203366609949311 0.4072257168621632 -1.3937793400037997
Ni 6.927619099474811 0.720455601172199 13.006485772149285 0.021539159623356455 -0.9230306628873264 0.9074955433662049
Ni 1.0713275122342159 8.712934387632826 9.74356984431166 0.23703462842463696 -1.3002120108685995 -0.4345619427832709
Ni 7.336199727101509 8.965182339107203 1.7170162340306103 -1.5336118707541266 -1.0904081931354574 -1.1079390029303695
Ni 6.09524973950929 1.9631458976541554 1.7987757058822977 -1.9602699853092886 0.34753421453880146 0.43352475976800825
Ni 7.377738419414061 7.439354761185854 8.884703889538422 0.55142886587636 0.5573951107621239 -1.4978046312475302
Ni 6.452875377121148 2.8304689973764625 7.850550002327342 -0.09150067641415854 -0.19958342555671435 0.030897203799488727
Ni 7.574263284975374 1.4502205176242133 3.5028064872539217 -0.3507203255762669 0.47165704786335544 0.003300782238458831
Ni 0.05173245710230785 9.055139800212137 2.734797199291764 0.8797566826900397 0.19587923723224976 1.3328416239781626
Ni 5.052429353815505 7.090997859314253 7.560485609032719 0.6152994392780758 -0.19997140502375235 0.276738117661846
P 6.059751865017503 -0.19702473170770382 7.8409658528932376 -0.007904085338425095 -0.12018981681873495 -0.38175148385045865
P 8.580193180160679 3.5727241116523865 2.8171229401727564 -0.7262034599195106 -1.5085767821623697 -0.37108809059934156
P 5.9778457534660445 4.60344441645939 6.4708272120648385 2.9408537640207353 -0.185126626701436 1.2509386185547682
P 4.89165137355691 3.4915281420432165 9.475657268305119 0.03743191959421295 -0.11050112877606132 -1.3913334495664684
P 3.5131367468585597 7.447655121550262 6.055972434264909 -1.8511294843261799 -0.1644690983520845 0.3217007984154653
P 2.901086618832325 7.436154511134243 12.740219434281684 -0.5480267821733464 -0.6699436089855171 0.16748243125711154
P 2.9440455950294533 0.5685580842412592 10.22981694386813 0.31665243735828047 -0.6531879867937331 0.6700713928126331
P 2.5662685269773373 3.971187522257134 5.750223126668343 0.6910580223666292 -1.412961312248889 0.14337062581057244
