# total energy = -340895.70860289945 ev
CRYSTAL
PRIMVEC
9.06764505970363 0.00000000000000 0.00000000000000
0.00000000000000 9.06764505970363 0.00000000000000
0.00000000000000 0.00000000000000 13.27141511649181
PRIMCOORD
 96 1
Ni 6.343470648675701 1.9989079661230957 11.561738118197429 0.256147695105004 0.12468564780655945 -0.8362675011581533
Ni 4.641763819792225 0.23237654210519032 6.079940398149283 -0.17808308959109329 -0.06373456204448379 -0.21826274713377247
Ni 2.840240353163638 1.4808008578854415 4.7738603674854465 -0.34479316145855454 1.2162007008529505 0.4835090621059351
Ni 3.378069589589484 4.451379542348881 4.7875833416463704 -0.22906112330085712 0.12526723134164233 -0.06044972064562493
Ni 4.916604144106749 4.464500424872243 2.5788881510008075 0.5579406988529488 1.0435328687401577 0.534183448532351
Ni 7.355265696778227 6.007251434381467 2.5582646988853033 -0.9576757637650216 0.7040276951534198 -0.5736907625983539
Ni 5.3041915681417215 4.375764449493096 11.672010657558081 -1.3169601768612158 -0.0183209097963749 -0.327544658790752
Ni 5.912784707271314 8.01702243938707 12.189940946715428 -1.0108112101374205 -0.0018599360268742161 1.205492313296511
Ni 1.8330153982136854 6.519863549661859 0.3993925912479417 -0.2430170712603169 -0.2550804301827543 -0.9276704756521829
Ni 2.5825469458164103 1.3825982609759628 0.289808286153719 0.11521858885638867 0.38536259824048474 1.0460996010260695
Ni 0.4666536626325622 9.139279540633758 4.862911896915604 0.11626142829860622 -0.7727424840213143 0.4432029062877205
Ni 9.004851701374015 2.2202038458623226 1.3149227982082616 -0.5265184757879254 0.1183198534895317 -0.09309167505036227
Ni 7.031215262267237 0.7900203966996967 4.9509814003766675 -2.0391059217715855 -1.4961799511599136 -0.8076331252509122
Ni 0.9948385516832539 7.42574850248251 2.7931683936921248 -0.5569307695311957 -0.2500001874463694 -0.12264753433060814
Ni 7.501091565983975 3.95383785329781 3.7649415764225957 0.5619212807672516 -0.8836387913532653 0.13362588771898276
Ni 7.648377326057905 3.97221797000469 12.663239379709513 0.3906608705249465 -0.9718551405891971 0.09031051276079931
Ni 8.086172301255186 8.847863560996009 7.1180570065758015 -0.8854946136150815 0.39759230753745717 -0.6823851771829796
Ni 6.71194347674713 0.7041035521958184 0.43988869446102863 0.5746230446046362 -0.41646189074845047 -0.3428756327208675
Ni 1.8521481294675173 6.440177084136421 9.233202209035271 -0.83499326243142 0.3483453975861872 0.95561708146378
Ni 0.060468498407252984 4.847481485174066 1.4202806739008678 0.2314008271776273 -0.7488109129063814 -0.16527976717883794
Ni 6.392463135388713 2.033555438218305 7.014619658124695 -0.3653115931268805 0.18850505625536568 0.04081137758940714
Ni 3.4051274426991687 4.462097498909085 0.5718138636610293 0.8416421352065053 -0.3584557465473117 -1.2802900751336916
Ni 6.09366609260375 5.719752677445923 4.800868348546839 -0.8048481063066074 -0.2996528174764904 0.3650930493581712
Ni 5.34775253541348 2.9804442823801067 9.302426425593566 -0.46493824108228315 -0.21333368526327132 0.02823019849028686
P 0.1502916844391648 5.486133867956005 12.447671531407748 1.0070262891736916 0.16331415881203487 -0.28134476319592194
P 3.993436259641641 6.180189562567762 12.579603047959347 1.1586730389501272 0.47660076502187587 0.41663055511583086
P 2.373546792892442 8.37387961402904 1.360094179257593 0.37085977663861935 1.252605978954862 0.2316419966541559
P 6.433249403246408 7.826973664814054 5.882846970063896 -0.46593917154297176 0.22292235739297095 -0.4133773382858558
P 4.68082723507256 1.1234903009862716 12.664089018059503 -0.22687131473838992 -0.7758434915441412 -0.16718855416577658
P 3.7596270296036995 6.188359510842503 8.298616345804843 1.7094773838686108 0.1950623977579092 -0.23003017208234577
P 4.796938431141431 0.94211926281606 3.8619418035859803 1.0961188703669897 0.7143517027872471 -0.10619813052533322
P 0.1667286047916867 5.50105014421788 3.620322610785515 0.6694730971070019 -0.3120709886351852 -0.056390205864270626
Ni 1.4192224797125632 0.8065080958650249 2.7307131742338226 0.5188725292068934 0.9732551062605175 -0.7078141587790455
Ni 1.6687368711399064 6.48160715479934 4.979806537524916 0.4983862363280836 0.5006290096156734 -0.8613856363820198
Ni 5.85509634886521 5.694979870912526 9.498895999693048 -0.28201504979006914 -0.2512340598534705 -1.3068781100348654
Ni 8.670010769141667 2.2002912971261073 10.247191627262644 -0.5240113930953556 0.9700437984120712 -0.21702064719655528
Ni 2.2630938073934246 5.402339759180337 6.972297331179606 -0.9222475048643989 -1.6149780298374443 0.2753677196768806
Ni 0.5887758006673885 0.059050318706731976 9.064655541392213 0.7030254791411505 0.27539265937754503 0.5766218202022197
Ni 1.1742963167280824 0.9511143667989042 11.501592427957304 0.9251747058135228 0.6903311715029337 -0.05292821545759917
Ni 4.115903874956453 6.972556665830725 1.440373668775449 0.7425158239262889 -0.199218843128444 0.13366162605292464
Ni 5.726607817174784 7.9859929577043145 8.012484082992499 -1.0464793529629912 0.20135157320073063 0.018480575302690757
Ni 5.209062902936058 3.0195893064667385 4.713834370161221 0.8323082594000892 -0.7829567055501548 0.17771207940491976
Ni 0.9186612648285418 7.5250029462286925 7.1775135557849845 -0.06936784907086117 -0.4235941309178576 -0.367937717895818
Ni 5.320912305787251 4.794462964017121 7.322887856262561 -0.7110015553680916 -0.1443964959719255 -0.3659481982696149
Ni 8.230592685463613 7.363671403826712 9.260581056783053 -0.24624123462456948 -1.2932870016139921 -0.13580926852354674
Ni 4.563247080490362 0.4501133711253988 10.331159834825076 0.008688528912933424 -0.054843687312757156 0.07643863987471351
Ni 8.146399600301606 7.044408685951751 4.739341655951282 0.5337787568947646 0.9788914786106884 0.09954617242645437
Ni 7.384717408205927 6.335083076917505 7.166710363360428 -0.10499459713553531 -0.7090323474568627 -0.1937555060210276
Ni 2.4033702777710455 5.454007201210827 2.4399228621110085 -0.6438551394285814 -0.9382029997523906 1.9830414746778493
Ni 2.536220346775734 5.256396010587718 11.418924520708519 -1.427219621940116 -0.793782335410749 -0.30693443873956816
Ni 1.0043686467295938 3.196553469096968 3.804370417802234 0.4112808607681433 0.7965976933723571 -0.9507510116207304
Ni 3.836556931005363 2.3916458125998585 2.4312705151146075 -1.4985808472919222 0.3833645939738494 0.8466025645355743
Ni 1.0029631617322743 3.34956091325676 8.215510471295604 0.15216148462932502 0.23956227994249707 -0.8145331948048553
Ni 3.676975444116174 2.9457605397043216 6.912509812922668 0.007935967017625042 -0.4545085611085269 0.41699179510999157
Ni 4.114833892829462 6.739772079694054 5.996410157847305 0.026104924617167943 0.8117386627788536 0.20000225826168783
Ni 0.9093941314913777 7.364224530180496 11.460292024619942 -0.4726525790074053 -0.25412063737264623 0.013506004906234804
P 0.11330475989680436 5.55809469981876 8.176518690411905 0.8518154761950815 0.7577364975307853 -1.4845140847862108
P 8.574709818678267 1.674449487580624 8.019399069179311 -0.569999944010328 0.3565945249688568 -0.17745933996416532
P 1.5771989934112651 3.265685195674795 10.460927811245321 1.6024580429935626 -0.4838273646773022 -0.185888444568125
P 4.061996724575396 6.254009261685035 3.750913022620319 -0.08437280712012567 -0.2440077173083604 -0.26857409379381486
P 6.9665176141648235 3.991341633613378 10.38769569553338 -0.11743539400204937 -0.4979550623279359 0.12508236902434589
P 6.233888157110507 7.783947688605792 10.11751614082287 0.7971782484661755 0.580908877613348 0.10441635603456212
P 2.3938583180149937 8.508497873836806 5.7975775554233 0.33113160481106196 -0.27131334710184885 0.4348794740236898
P 6.8179170455450135 3.822592757483609 1.5390459697033867 1.8728571058112586 0.9344160219061327 1.1605352889698464
Ni 5.279010717576845 2.8368037156540633 0.5994964775211352 -0.8896302330500098 -0.23843510831658934 -1.089854891735149
Ni 1.5050840115810633 1.1283414911383096 6.950478763434123 0.19399230462218203 0.6782842676407287 0.2568524344815125
Ni 6.822523409278165 0.8994423909458419 9.22461605584842 -0.2964232547955991 -0.47088443136338903 -0.24301321460557507
Ni 2.5731710007375184 1.667612483142051 9.32615554617089 0.27253616376535644 -0.4104817619056156 -0.4359199994730621
Ni 6.628965456034421 1.7962279618644927 2.594495381822654 -0.44396703814725474 0.3936860305045155 0.31217614675448174
Ni 4.093651873773087 7.015428492071538 10.491066850174935 -0.4444771450144539 0.13056884606021382 -0.4216676033191061
Ni 8.167128237100782 7.0584181976992255 0.19392881993013208 -0.6063741117639879 0.5049340647489304 0.7051011307232565
Ni 7.591214891070153 3.9428025291575666 8.189365730051918 0.030140271028806155 -0.2935428479240106 -0.10775673326170473
Ni 3.35024098664256 8.4218927950665 12.426636408202704 -0.5226204262850999 -0.5856453638570688 0.3350116565917586
Ni -0.0408996134219948 4.695988337753322 10.123687580107873 0.13545857005234735 1.0354773454255328 1.6289584032769364
Ni 8.571508939942436 2.226560265108264 5.751911080949106 1.2077965359496554 1.824070937546491 0.9617033968671762
Ni 3.484623487676583 2.6331716086553407 11.508692394105053 0.42125545548235194 0.3929159851077104 -0.13076399279015544
Ni 1.3333790831343515 3.4122183412017737 12.667366971779058 -1.2714318534121136 0.34822532706855513 -0.003806775340599895
Ni 3.095811931547171 8.390618486964858 8.213267135886978 0.5400828447359215 0.3492720231655146 -0.40526602203263107
Ni 5.687925242990497 7.797340600483474 3.586971811945897 0.08040276672878412 0.6867048876042561 0.19205703527268214
Ni 3.1989473274149836 8.479816912246347 3.6739658926928818 0.13182277307197296 -1.6834377652717394 -0.2152563562072809
Ni 3.2598365645569176 4.269754610114637 9.213069316522056 0.12391200286532854 -0.35525523733214304 0.037580015136303026
Ni 7.246979878468625 6.130680220081542 11.405786409659383 0.6865619342684885 -0.28428559099180073 -0.1619231920017792
Ni 0.5356185445397397 8.899195500156171 0.2326068602918478 0.173583659058843 0.4752589062820008 0.28074235372523265
Ni 4.5957727236218755 0.2918249304337437 1.683532547721365 0.13482042224771618 -0.4757435592279033 -0.5964751074827211
Ni 5.920075093967087 5.508141042720485 0.34628430040407043 0.07127843583001273 1.2797668556403703 0.7935594207666655
Ni 8.040244678600844 8.865581739607377 11.094929398832905 -0.22826382421054237 0.3305636481227339 1.1063192079387592
Ni -0.12794900680435822 4.8475902969157945 5.8709293640511415 0.7221120634589564 -0.48532246116559 0.06508721941763629
Ni 8.231417841171716 8.81113053051768 2.275822060882052 -0.9505946885485242 -0.06074796861233409 0.4518757514713702
P 8.585473113464191 1.6108127539600587 3.602843818005948 -0.5616821681732521 -0.4562114027322466 -0.7144766584008856
P 1.8997351311832094 3.31107782726564 1.563584830992069 0.0091793525064229 -0.7747345747506788 0.895563053594677
P 4.50147828176946 1.2205050363818868 8.142743525779549 0.6291204043215681 -0.02906992078276284 0.004466520411785856
P 8.313824600240352 1.6884045934572343 12.476059608060055 0.6761839334682741 -0.7088305158587017 0.43070528804134206
P 6.381237390700445 7.696064071870181 1.438767788820447 -0.09167011211248728 0.2511818664592964 -0.5345110070750988
P 1.795828985478157 3.3320059522579832 5.855839895767018 -0.39947204105867334 -0.4180228074776672 0.8963562389199337
P 6.885316851900337 4.048585677407426 6.014299714951894 -0.39952192046000223 -0.807438492741603 -0.4323075995314555
P 2.350723530065004 8.58222689650264 10.344231752064664 0.5645972849375179 -0.021029052756157334 -0.3876999881244097
