# total energy = -340895.11453607597 ev
CRYSTAL
PRIMVEC
9.06218187908295 0.00000000000000 0.00000000000000

0.00000000000000 9.06218187908295 0.00000000000000

0.00000000000000 0.00000000000000 13.26341919942633

PRIMCOORD
 96 1
Ni 6.57768506154005 1.845939270252113 11.473282351659948 -0.6081738839768881 0.19403678470687227 -0.5035266428784424
Ni 4.753948136988254 0.3635239903513619 5.9526092828752155 -0.32709960083353345 -0.42395717068423117 -0.259672677539127
Ni 2.597565700754185 1.80814997165198 4.799076896724179 0.5964571097605921 -1.1658279048273537 0.10143541902936724
Ni 3.53007328234946 4.489522730788426 4.990679515245155 -0.08780085896506815 -0.5012393895061625 -0.006167305152976475
Ni 5.154732194515709 4.364546179950432 2.9401025840004995 0.26992083762969643 1.873228115997432 -1.2366144886226123
Ni 7.1657662949590035 6.151390961912026 2.716082728320674 -0.06551222277019685 0.00026019563992213255 -0.8160599158620269
Ni 5.077141792929536 4.493093230464314 11.582241495957001 0.22488668020819333 0.30774176513221196 -0.019379947188508558
Ni 5.746166435244508 7.993451618303022 12.116173473758359 -0.7487504919820911 -0.023875521066016946 2.1695328429372958
Ni 1.880973665549023 6.369010198502816 0.37742628363252834 0.2637910705828747 0.33160005980704826 -0.19004386149739527
Ni 2.6069088103121554 1.5672953006221628 0.32256655295252223 0.5360379852425865 0.6257180635082384 0.07567116558106968
Ni 0.49437011641796663 0.3210558872267087 4.5669001710995145 0.677575414499162 -0.38750124185004237 0.8022042409258572
Ni 8.645720286250691 2.43798067716945 1.1917276705011182 -0.5285334493354252 0.6406967963052579 0.33973297332682784
Ni 6.970648456071842 0.8635978440688307 4.666535236420622 -1.5688843208031755 -0.8130797501877804 0.6624208182459107
Ni 0.8577844543681147 7.276805210006349 2.424951072007035 0.10815525425170405 0.23405343430912595 0.10925542929441828
Ni 7.598657663023693 3.9665170257262004 3.609612959266301 0.1870971201642455 -0.6179908700673099 0.6426688324299641
Ni 7.48109397699503 3.9224113863288754 12.647532698113054 0.6064854405308716 -0.2646531614728539 -0.7031226668406472
Ni 7.842466605358941 9.049041754715326 6.770312612836008 0.07570150459837285 -0.369391419623209 0.09447441433050181
Ni 6.862337257781963 0.6713327800496115 0.5226939660042295 -0.33047417373272114 -0.1803114647009798 -0.17457867598226062
Ni 2.0127921637354826 6.455717155098997 9.220609701450888 -0.029850764812845366 0.2441660972630956 0.6242589624642088
Ni -0.06694415026832211 4.869907816817344 1.3790774070477445 0.5651662700671105 0.08893934344488554 0.9359396576395106
Ni 6.495518258085036 2.086821127827686 6.9758293054746465 -0.6690285533704154 -0.10482130478246462 0.25838892573069694
Ni 3.4141860999757183 4.166736873033477 0.241289655761905 -0.13452885914922638 -0.020827478268312518 0.04516836900652221
Ni 6.019898702274632 5.6383174082324725 4.82529832010535 -0.09182643518469347 0.42713222597810313 1.0242153993584684
Ni 5.302844495791627 2.752456514105138 9.414785979636719 -0.05728314999218522 0.08510300041793085 -0.37478893648969647
P 0.07159848690166225 5.679196910866813 12.650742522948587 0.025685063470929956 -0.8328469055123786 -1.5745186362708172
P 4.019422043766387 6.06423089621992 12.745416043669318 -0.13713750041666703 1.2958395928325166 -1.0331772365374465
P 2.3168918023744913 8.729790147908588 1.3764375934548863 0.3149647652432124 -1.1723685341593486 1.0780208752146982
P 6.33135683263146 7.599491383760195 5.994309819191372 -0.44574624153486464 0.45657212850577494 -0.9774318633460264
P 4.644132616499906 1.052672113834547 12.696461230727405 0.886709459858789 -1.5818143986012823 -0.4913982350460247
P 4.010396110575564 6.07792385309877 8.318976067433741 0.37148712580997306 -0.1444378907328222 0.12162654926526152
P 4.575341593556594 1.0360430100141047 3.7396208335054446 0.37378363515363366 0.16468815634142603 1.0511541327308411
P -0.012844736651277855 5.707407483179094 3.677495045363188 1.3627913762627175 -0.3711248573745479 0.020306829878152122
Ni 1.244817557052442 1.3923317543217384 2.4928730317043626 1.0891365255118857 -0.2949016759447502 0.7145998142423112
Ni 1.8895283652800843 6.338588453802421 4.948542181760528 0.013198500968145012 1.05041571190292 -1.0996999028500287
Ni 6.1889174572365215 5.658797939368276 9.277377021424737 -0.7747340605300463 0.0020427414616416436 -0.6136750163007754
Ni 8.840357829496172 2.171208165852731 9.97479438590855 -0.31863372945436735 0.26847459210147306 2.238472603331803
Ni 2.302356062577222 5.266940131030542 7.058261630859872 -0.07709709939431883 -0.7178995680395056 0.21925904960877077
Ni 0.5291698012031876 -0.10673347241786753 9.101848901190792 0.6636086679064249 1.0709359433434589 0.653083857115701
Ni 1.4156487483980316 0.8711484540433224 11.449553934524557 -0.4547702994103458 0.8090400329007679 -0.3620360076994023
Ni 4.07198269889367 6.886134547499937 1.536673281701369 0.28069761653022623 0.6389764711800415 0.24563188317534468
Ni 5.5284293902887764 7.781079385043041 8.068694914772303 -0.025851928066097412 0.4727631364433406 0.1712177299298277
Ni 5.347983223927661 2.9382131190704928 4.817154137215196 -0.18598049006129908 -0.6662494479633816 0.8938612404122218
Ni 0.6718112632549081 7.5834966326740485 7.053035470547474 0.31104768957699336 -0.7306080167451096 -0.4107951793809764
Ni 5.3220925701865145 4.609931941939498 7.219080017403715 -0.46679432045441543 -0.5534800919784338 -0.23503302461357586
Ni 8.546643451335761 7.0393579193778875 9.326451455167977 -1.6501116403157838 -0.4231583289320196 0.7584409797969777
Ni 4.794519525437367 0.3244542054461451 10.400484038002611 -1.1807742417245408 -0.34841224626838063 0.4059815600424169
Ni 8.22971176310016 7.378220087856251 4.811145910603233 -0.39787024378919217 -0.4488441637338979 0.6934008115671929
Ni 7.492947310944425 6.1862531757524835 7.193786561450997 -0.5921127167489674 -0.40278876413673215 -0.4174214264482424
Ni 2.3582606628324307 5.254389009073423 2.5208452686321876 -0.2005786995904481 -0.632263320825924 0.22130719038705113
Ni 2.2872403431371686 5.175384907107964 11.39470960955381 0.8320197816253929 0.46476880538395443 0.6019317597219181
Ni 0.9640711612174004 3.5017811503999114 3.824334110079556 0.018648725449438852 0.3946175411798494 -0.6015401807104543
Ni 3.6107810745155953 2.755392661046731 2.706970704401625 -0.7826674564445101 -0.5610759020478208 -0.37166273215588896
Ni 1.292593380126759 3.1244318953136903 8.326217657004813 -0.11582742608498116 0.9571137206139646 -0.841441589159925
Ni 3.607183388293952 2.7112326485578944 7.068421243008699 -0.21479304341761718 0.5346737579052082 -0.3758433458961398
Ni 4.150279950669486 6.766631554540716 6.267456669269562 0.190437240281072 0.21628454036147912 -1.6016034083027513
Ni 0.7759955438991024 7.357186763623419 11.455150738077421 0.8105132750121847 -0.41467985914736327 -0.1759033083309551
P 0.3585316343324618 5.565801828520659 8.060909594286123 -0.13978419401089473 -0.9526114618682368 -0.04649094447268767
P 8.633712895208681 1.6225746103249956 7.975651680578709 -1.1811159413346757 -0.0019000452361902758 -0.29301937132037276
P 1.9491031492122846 3.154790204740656 10.470302712375481 -1.7709820281413113 -0.3765581125749773 0.2338711430949908
P 3.9811343251607365 6.202365735203572 3.660757195359723 0.1290560089601132 -0.1466120155660056 0.9242794476927632
P 6.82895217959422 3.884893953186297 10.412234969296327 1.4341405174296655 0.22557136498004376 0.26227514815898056
P 6.4528081947031595 7.805221037673917 10.1480542420083 0.08819732307253843 -0.7522680182170464 -1.0994204239363967
P 2.274797967363072 8.448527207704194 5.755674476513394 -0.20405868771924857 0.17267066032627035 0.2882157792841423
P 6.906560705544229 3.9594938347393653 1.4677562944293903 -0.8368328867433201 0.91501576300265 0.6623115463615561
Ni 5.356755416024766 2.8432777012923163 0.36122491479863916 -0.033760898500528956 -0.022185792068419852 -0.023984535840055467
Ni 1.4627902187380537 0.9934326306333311 7.167883220655164 0.6572464731338229 0.4120917867052129 -1.5922101400133095
Ni 6.688542732949025 0.6904675771705182 9.046818801490717 1.6519332669055549 0.08594040871756167 -0.018345849497039376
Ni 2.9750599507511017 1.4735560908572283 9.30871857758986 -1.0506144581772874 -0.33873769929309405 -0.2128325772571367
Ni 6.112505139299754 2.164774016690598 2.616355228743997 1.2374747797403784 -0.9813270846353744 -0.48933878141383474
Ni 4.21875379724565 6.7024622443758375 10.491683118175793 -0.24146078251679062 0.722617285230149 0.15433483813156001
Ni 7.970515235867305 7.344064724205435 0.19941240689833786 1.1188451083199118 0.773419712593997 0.12354716332674207
Ni 7.726099127343519 3.7656628256846303 8.369297457408964 0.15911683290123566 0.41765154018117756 -0.551556649703476
Ni 2.9507008057541815 8.39390943728141 12.570206912238902 1.3951512806506616 -0.7387357880585665 -0.47784852138604805
Ni 0.24816150831070138 4.735261917872314 10.169753636612139 -0.8299001641792287 -0.08731132092315931 0.2063819365357865
Ni 8.669164150873844 2.3442958404960264 5.794416210433162 0.49412360439698766 0.57468655085272 -0.09789706685880559
Ni 3.7318427627647988 2.554040040999643 11.482500403107446 -0.055068915949685805 -0.1497269070459034 -0.04532366363746388
Ni 0.8496058351866711 3.495990416153992 12.415887016348814 0.2989372794667045 -0.6989070860974028 0.3946118847528946
Ni 3.0525144196084972 8.328154245280794 7.83910544208537 0.3325714225813821 0.3987873562868229 0.6710214154307282
Ni 5.6335325761795065 7.836539938384243 3.693742631324861 -0.8146416953582616 0.724392889073333 0.5133482569545547
Ni 3.0180871905001263 8.439782202152843 3.7072978430385493 0.08421288450349369 -0.10746105639815685 -0.7069430690280019
Ni 3.433271055096073 4.158145924574741 9.35330994993802 0.6254211010931101 0.9826892550902238 -0.7698854741884934
Ni 7.197556429129091 6.02672252525926 11.346802384841677 1.0505483808260423 0.33324736560248414 0.6591246639931423
Ni 0.4062657713699537 0.2141475146978142 0.5667298266007826 -0.42235460208380166 -0.9404182622361547 -0.7518322162312084
Ni 4.600987568385941 0.293545821576727 1.6468793822304049 -0.3527820932013021 -0.0036990461181420167 -0.3830663460071403
Ni 6.181069607695104 5.851478051319363 0.3378127678122018 -1.4543437318504178 -0.6224532767140377 0.4839194101704762
Ni 8.01101412686107 8.743029995691513 11.345727610066143 0.03588617237364788 0.8709177442421709 -0.153161129538433
Ni 0.055733325016949296 4.924969634154133 5.857271504219858 -0.5620752898466126 -0.46697352634475703 -0.2432369005806069
Ni 8.024788643377185 8.680944987367889 2.770807432490095 -0.4775101642100227 0.7689853309717273 -0.827057295413795
P 8.278457239639756 1.8126629382473916 3.3938569072779536 1.092704445368802 0.0852896625074402 -0.44947434111872914
P 1.9093292327720006 3.3210903051269973 1.4526623242259415 -1.9958741076661435 0.18706061049935524 0.5630643932327593
P 4.700735004762839 1.1162433199928044 8.062952210090552 0.6741522477502261 -1.0056083257802422 -0.22035999598243336
P 8.491753815455425 1.6093528869059082 12.397768996039161 0.4094540919720496 0.04180896561598606 -0.16614057251723646
P 6.346572236072617 7.825692506627802 1.566781474907384 -0.5358886041489158 0.12403798692023155 -0.6164847178354286
P 1.6837987113663622 3.3957173732258212 5.899343589994673 0.9346155395114485 -0.038763751031759046 1.0053717842894039
P 6.988328772994829 3.956766117981898 5.971496682429747 0.3896139173176709 0.45479163956658447 -0.028748532887602103
P 2.455307568997617 8.396727775858063 10.166172262317952 0.27887136195476486 0.48113284856427463 0.6124527138579
