# total energy = -340864.1564039766 ev
CRYSTAL
PRIMVEC
9.34992901414555 0.00000000000000 0.00000000000000
0.00000000000000 9.34992901414555 0.00000000000000
0.00000000000000 0.00000000000000 13.68456621751402
PRIMCOORD
 96 1
Ni 4.365416356168906 9.481856401690427 1.2795078508552815 -0.5801244340388396 -1.2384026908712866 0.060713001609340594
Ni 8.17554043467918 8.038049730133462 5.0804633890814666 0.29228814958130306 -0.14070233494978995 0.5110568898172166
Ni 7.226214103183746 8.78747458164335 0.5026671378106123 -0.19522257748485733 -0.17050759123668055 -0.18859118821126875
Ni 5.8071940931535195 5.85721621279443 5.285280126692288 -0.1359563356243723 -0.07944374524962448 -0.8100563899804243
Ni 5.335995076065047 2.30577661729445 7.870691612694113 0.7285426495756486 1.759160610026351 -0.6069297271571419
Ni 0.558664797014608 5.407559431902716 6.841762791481518 -0.9667823540519801 0.6799994505596224 1.5313606128261046
Ni 2.8932794000302655 6.322459325170518 1.5035368223797743 1.7797569461204639 0.5238915796880397 -0.5106390855535077
Ni -0.24313929121310168 2.0269897871387434 10.731997995841377 0.8993528596544124 0.0056628547127321825 -1.1874544819581936
Ni 9.130663722095615 1.0070434426250299 1.0827021323301298 -0.05253740777708371 -1.4110846640514665 -1.2307310332586416
Ni 0.4482365266910683 3.522922312340209 0.047400399575992534 0.7654726898327785 -0.6188365058970567 0.22275549279780343
Ni 1.7413120593801674 1.5586611982240577 13.217716799888203 0.1906285303562717 -0.720565544907443 0.008714239944546282
Ni 4.262155741343818 7.905645386911979 6.162119264367144 0.6461578194198291 1.1766854163671479 0.43744414942707244
Ni 3.1104408487741515 3.510776754692818 8.033086787870772 -1.2745565150840243 -0.9249718457740974 0.010670078119336462
Ni 3.565520588430674 3.15252487877485 12.227597663573832 0.13341557148038957 -1.3088848560522488 -0.8450185078779059
Ni 2.126379531397226 2.4317856091450203 4.480108194073054 -0.5698269087675735 0.14964463174474227 0.6142324314661421
Ni 3.045926339330734 3.504035455952426 0.8294247132055068 -0.6547111083064789 0.6616620857030153 -3.0407598908897695
Ni 6.656363986220274 5.341315185611903 8.74874811111238 -1.791783795378011 2.9999847658549363 -1.1441139101890296
Ni 3.1083464646994665 9.221844228775646 3.2465673986926524 -0.5065158074137533 0.2583099928636455 1.1020933427828696
Ni 0.3233644861953269 2.5625537148081556 6.420989810962645 1.0282512599907387 -0.6845533884788919 0.13137077313621892
Ni 7.6067188098952405 1.0840494570853176 5.858513047933532 0.5572303030494855 0.6397359750538854 0.4880424311999143
Ni 2.9841326591986257 5.7940854928289305 8.105314053667794 -0.7392952601064623 1.8271901999017626 0.12348597107150347
Ni 5.865565699306455 1.74952129695862 4.084378063132912 0.7895618695714983 -0.25376736779828557 -1.4268421839960395
Ni 8.53866362355657 6.138060027309202 9.971204565776091 1.2592530519577345 -0.35871671351818224 1.9227053967919532
Ni 1.5214017315382582 0.21429569553455122 11.146640227977343 0.7421404428647412 0.2410643184093203 0.5313863454031881
P 8.487042666072933 1.3042215829365629 8.152059958220446 1.176963609729199 -0.16036870303046574 -0.41192003701403895
P 4.45664361249346 6.295110783123851 3.567853395692432 -1.0718700251219542 -0.9139035037750777 -0.08497084571544075
P 1.9313026147265793 2.976222619345129 10.36243270594855 0.380636396409409 0.41725353341181043 0.6860047762134379
P 2.132541134545517 4.274319998849019 6.013148717112061 1.1791189655093048 -1.9150584217696567 0.17053921580556436
P 4.85824175881428 7.130209033188818 0.5544863137870337 -0.4548497464980295 0.046376016161378195 0.6062470992678205
P 9.385552133970544 3.7585311708133498 2.971890797283515 -0.7496683758106703 -0.5577375817032072 0.44523587755734934
P 7.6947016408898135 7.332457345329478 11.568658619026342 0.16906494525288301 -0.08808830829849991 1.057093638143728
P 8.676275877178051 6.996748148001087 1.442284503131257 -0.7576526795677275 0.5201138578131623 -0.7783253774257305
Ni 7.862439365442699 8.455785853744041 2.905794279869398 -0.8001021069811898 -0.18571438088410597 -1.9667059707426195
Ni 3.9739722326387446 5.512016837627623 12.675205875042494 0.23053102297816427 0.7697494628312614 0.18220945305464104
Ni 5.529435755177347 2.657764040846173 1.424262515167172 0.4358978879858751 -0.9039188817585401 1.7114265371751816
Ni 6.7950982313103365 6.379447141845536 -0.1401629142267218 1.584085454023646 -1.102055547566399 -0.23084855421858308
Ni 1.5379511056998303 2.377079175122783 2.1177551569753983 -1.3367584425340655 -0.11794498664861622 -0.049939565142920445
Ni 9.125371662335475 5.2155492919128585 11.98739238005107 0.2943164928652415 -0.017650366091911535 1.383956954596739
Ni 5.455505867326752 7.809574867414716 12.240871757640036 0.24475462277671398 1.0034825376864913 -0.5430203300976906
Ni 4.505917737821982 3.994205478788825 10.06618862353461 0.40398278444483326 0.7457055345081803 -0.546148334203711
Ni 3.76358948235087 1.715076158873178 9.78814604771973 1.5227965253061775 -0.45698659033537425 1.403645691274918
Ni 3.1126941816402187 8.40707272414981 8.677862560113203 -0.5491948343395185 0.2728958610976203 -0.22093232354613565
Ni 5.535027012662442 1.2368366453193587 13.407015460495657 0.8640102184890603 -0.01839701444994896 -3.1224412672206614
Ni 5.450466255647041 8.29077830843137 3.5924857833922417 -0.1454897290361043 0.5974706386267711 0.048679724593890354
Ni 4.947056733481385 4.824133218169413 7.239067450449234 0.501983980981671 -0.30681796776636194 -0.6733405504822081
Ni 7.326753888697524 0.5804295615193019 11.54982879720488 2.914115833805259 -2.9889123100908592 3.222099796855264
Ni 8.297528957100667 6.095854448232741 3.519629267379923 -0.4976619565675494 -0.6522081393789672 0.47388953673830003
Ni 1.7232199469492961 7.925682284555058 5.542057224205994 -0.9419115589522294 0.6166896347573831 -0.25281940206271947
Ni 6.486952624393422 5.073795019786533 11.15400236199702 -0.2157122127977769 0.6549476497973171 1.0046487900804504
Ni 6.860725382293429 1.4168788763110174 9.616295289441604 2.140305313530746 3.0064958275005766 -2.539098326244524
Ni 7.758795403532513 4.077569444904406 0.7061851702965509 -1.9040211901188886 1.227706130389389 1.2963011058499674
Ni 1.0281462321632608 7.574704653325059 2.9157706540108657 0.00566156916115154 -0.017986666385407735 0.9539337802240861
Ni 2.361324544918123 4.966065138944931 10.949363273035388 -0.4524514214691821 0.8593714341654684 -0.023244315239921258
Ni -0.26578481902063167 8.669197980997085 7.196960045626273 2.5514630184574636 3.141155812911029 -0.8621037454949668
Ni 6.776903269661512 8.443397197945124 7.05644650906562 -0.841183707512848 -0.9482812099239991 -0.045382541899857326
Ni 8.185582258322981 3.186567969917384 4.608428488348901 -0.6098939519917883 0.2137923700672447 0.24243677327681473
P 3.418932403060544 1.2999954150715738 7.5936887489734515 -0.3417240356149276 -1.1633889563685575 0.9058477233501366
P 8.834280325740995 1.5373153105343011 12.77471997335541 1.2437374728206385 -0.077709279057021 0.14778495282818419
P 3.616300052312877 2.623655500201305 2.5770227297884007 1.476078552424348 -0.8183047460321454 2.7826987808121366
P 5.778443061771127 -0.017363752969184104 5.434456372383278 -0.15139426744599732 0.07090202632720047 -0.413671729597823
P 6.123567637506695 3.008302225417645 5.890713268088922 0.1911826030875288 0.378025184038807 0.2122157696087442
P 1.176099507153498 0.5854673032132313 5.693299804184955 -0.017493271688756966 1.092444763949512 0.0502036174375845
P 5.126612768169991 7.093454462663879 8.05076750342983 -0.3497404781615009 -0.24176957200646101 0.2134694395101872
P 1.106788484181896 7.083496788380222 8.431225460496801 0.01151082885307695 0.3688283480308874 0.10144698899359303
Ni 4.424928653648232 3.630717642684145 4.7878330541892495 -1.0367847513830466 1.471781210600575 -0.5730896386792452
Ni 0.41486289045812136 3.319767057095778 8.747079148802866 -1.046267236952185 1.1442221536321195 -0.2185741077266042
Ni 7.683210578265762 3.264032130894009 12.227994100559394 -1.065129878184643 -0.2890315903172183 -0.6313477509901901
Ni 7.758533605523177 3.8753024329059356 7.005608140631316 -0.4614757364549794 0.9855799463744574 0.35720156242523643
Ni 8.237736161754196 6.962592857711695 8.060455899761028 -0.3543149849060607 -2.0857367342562467 -2.2618061358514208
Ni 0.015019725792739943 8.612350413255639 12.88512767383536 -2.9115182482814115 1.5607231251486218 -0.5102871015307276
Ni 4.0894812543291765 1.4145226942269968 5.550117797914859 -0.5498530367488078 -1.1653864464145607 0.9490779947936816
Ni 2.7097776953438153 4.5873649685120705 3.0333207651812244 0.8632887669420036 -0.09646521950828547 1.493843332606937
Ni 0.7617499277922524 5.377387211326788 1.968442402322397 -0.6628105974851617 0.4167190010645791 -1.6746610475203738
Ni 6.312183753304095 6.395659918566534 2.292548337879878 -0.2476555984735928 1.2848542974656065 -0.857527181867878
Ni 4.859288950851623 4.764602220832277 1.3042243879152344 0.5761417952420078 2.4281775934325407 -0.3099341447978405
Ni 5.464603348151164 9.495600797180545 8.519107312259202 -3.64193240384816 -0.509755911617606 -0.28911412272869563
Ni 3.6582905830245274 0.16955628572487705 12.16363573492869 0.4960989829558036 1.067053577569917 0.3449358576840059
Ni 1.6037278555454015 7.951581587621472 0.5328019586709216 0.46551956750704987 0.8015689213347035 0.7163525352673599
Ni 1.0774951569230227 7.263464219940641 11.557683672477838 0.27470283239937204 -1.6123444488693393 -1.1760449545696716
Ni 9.278448698365565 8.751206207421465 9.662494223153324 -0.5551070860588955 -0.26052705511962226 -0.5544172590807226
Ni 0.9050731179888112 5.39335688989626 4.533504703055722 -0.08826468597536413 -0.2830671452036673 -0.647181375588337
Ni 6.720971994952739 8.058067927918731 9.62792660099923 0.7668821685857955 -1.3329753213425495 1.311203991103729
Ni 4.44293661671896 6.935141466447075 10.206893833637814 1.7917735109653656 -2.3948239576727595 -2.1971848003266095
Ni 3.0291619168043504 6.171831970513495 5.4715269705052 1.3465677153150035 -2.433748916872731 -1.0993959984563646
Ni 6.439202537476389 4.232067670128034 3.0199784166340136 0.4937939889717109 -0.5262464530734614 1.1877553010280641
Ni 1.673655973824723 1.3624435902270209 9.061549982623907 -1.51820324950854 -1.8320174460870768 -2.0367173669347505
Ni 9.231811252988209 0.5580794914651649 3.9564813206364544 0.6439932076683426 1.5180240436181984 0.23032944849031947
Ni 7.863748355489378 2.229275498995024 2.2327190778106774 -1.5174283190157285 1.37382166593495 1.9747915759642312
P 5.47558016468545 0.8877056250480652 10.992716088388475 -5.012728909803541 -0.6010197894306101 1.1008193611664527
P 7.224194518540299 3.6750924052665304 9.533216496157621 1.355119975760389 -2.875901013298434 1.6742123900187293
P 7.853865480636958 6.081408808074758 5.897322732831754 1.1291344060610617 -0.7068682499260085 0.808418340156369
P 5.592828273152183 3.6511939869857515 13.101425189148436 0.16180312148414716 0.5053729520585619 -0.38714385851062355
P 1.2450739326845255 9.631174766300772 2.294299579563755 1.7091030312483277 -1.98265889452745 -0.04079235142601362
P 1.762199800553587 5.186788910601562 13.538059389061488 0.09595691241329926 0.7532532649484511 -0.9241259528340342
P 6.300421542741803 0.5964216799181454 2.1554148006183254 0.49422027787585204 -0.3608712979673398 -0.552694362852345
P 3.1529549755044726 7.546832515259721 11.532189221333 -1.672787998867377 0.6755357583613141 1.5511005144571932
