# total energy = -340891.124442967 ev
CRYSTAL
PRIMVEC
9.09432068860087 0.00000000000000 0.00000000000000

0.00000000000000 9.09432068860087 0.00000000000000

0.00000000000000 0.00000000000000 13.31045759578715

PRIMCOORD
 96 1
Ni 6.46205123602816 2.117612513963171 11.530383314036657 -0.451515539918474 -0.5060290975853221 0.6287712485122655
Ni 4.55212571790513 0.5922339695321015 6.038595121774722 0.5771028736036964 -0.2993185740655232 0.22847799710387745
Ni 2.6923735656379506 1.7003650922726825 4.824894399094958 -0.8022422932526442 0.9208426540970721 0.7091264498325658
Ni 3.166105811568187 4.126284163400833 4.558938273345155 -0.10569445141603732 -0.10736129759549896 0.8945366692126917
Ni 5.038271711233089 4.4121277490842195 2.862267294034344 0.31136084994203794 -0.824398003414077 -0.6232418340536041
Ni 7.035311724830687 5.797129091532118 2.999485129097391 0.7334354588915755 1.6508940270077632 -1.8058541574281477
Ni 4.9026572048632415 4.561156378099956 11.389598686497868 1.0894967370647817 0.03603041126099601 -0.3245992030091829
Ni 5.878741523141761 8.032667658613436 12.583893038795216 -1.8310962198243885 0.48551683656458317 0.06619022267382794
Ni 1.6977550223070073 6.580022760748496 0.36470953252078614 1.2686938856556602 0.2702792494103796 0.21668229002053005
Ni 2.809826714093327 1.598190402152965 0.2746275602873337 -0.6001247884201665 -0.6200199846821967 0.47892118562493646
Ni 0.6968441186650867 9.149704849358844 4.675271910954626 -1.3845434232278284 0.47258393055299897 -0.3095078558936992
Ni 8.461837734398001 2.6231385041442783 1.1789540525827094 -0.23023817432809382 -0.6210921347004529 0.80020238000448
Ni 6.898505862483476 0.9180716482052056 4.724453995882747 -0.840182005721211 -0.5554765535831724 1.449457093182078
Ni 1.0804689282646445 7.776971745181662 2.700811276140227 -0.5309353739086985 -1.2574707632463311 -1.253143596625887
Ni 7.554461007027756 3.6672483392982302 3.7456695738662176 0.8216029571674431 -0.1540810702495411 0.8301395338835446
Ni 7.649514844244604 4.134687315485445 12.633980008606905 0.03568485499611918 -0.9165280858821183 1.5820128877653334
Ni 7.988760279539293 -0.07439336004604481 7.141672530647966 0.12575471250102213 -1.0998721667618347 -1.0211552723759059
Ni 7.158203276907923 0.5120275198621562 0.7243189701400023 0.09435434381286976 0.03321968128507827 -0.1910800160713935
Ni 1.8495392304154263 6.596337971614074 9.171423905428618 -0.2815910748787731 -0.7162535477956503 -0.7335264759434851
Ni 0.14265532925286278 4.922892067837552 1.4006062868872777 0.35633252955672184 -0.5487063247388744 0.37779069943049776
Ni 6.5331324445707235 1.9821707996816444 7.332584143008372 -0.13187033848045676 -0.28053743680327814 -0.13209762399991443
Ni 3.7492882039684545 4.062542071451648 0.4087033076390891 -0.21549598302191272 -0.30799296191106956 0.18771958423959284
Ni 5.88068770771547 5.566415276343233 5.046939508042444 1.1018693996975217 -0.2620995418130647 -0.516296283839285
Ni 5.450926501102442 3.010311008146658 9.428142929909656 0.6129435374513895 -0.8043092030840019 -0.10441918424803952
P 0.18677278712912107 5.5616134751520265 12.49854556978173 0.5574946124544656 0.7511493312315709 -0.3821942278148321
P 3.8872763279725913 5.893037794870128 12.699294508559802 -0.5488137968510161 2.3284280467460285 0.3108355735661873
P 2.5130517552435947 8.71824300482393 1.3106925595819263 0.7799945375980373 -1.2652398656687887 0.497611305835272
P 6.418889591229924 8.053175351200883 5.92930321648031 -0.03888330732875884 -0.4135830265387587 0.16037333101615606
P 4.6445876737971785 1.1189833753191174 12.552773183688792 0.8640289875421376 -0.6900848598200825 -1.2688126706217115
P 3.907038286284131 6.1976975295395125 8.025766888265164 0.5972209845098102 -0.3271808476934301 1.5272162516404277
P 4.699562840844236 1.4296089841957595 3.883791384380791 1.0473962083503057 -1.5678047145857514 0.45942116791879595
P 0.2267777933033645 5.6363687891515 3.4743887235000277 0.17426474428626762 -0.0884721740004799 0.14755226799208782
Ni 1.2368639568350748 1.1307150486839983 2.3473923424430843 -0.09192413710482233 0.21240551702204707 -0.05250038389156119
Ni 1.9867907144640935 6.806689603342518 4.600240129613842 0.5690846312849103 -0.9194097783052876 0.5107429581212236
Ni 5.839726888463204 5.567806707370232 9.197459125978217 0.5056570589578839 0.11065899451016425 0.4714413323081235
Ni 8.665514134925031 2.2773542524547454 10.570140392528902 -0.0942602414371667 1.361350530051133 -1.2697542085993743
Ni 2.448964079117769 5.364857852478232 6.759342752278765 -0.4695502859329978 -0.49172322248561123 -0.03345956521002625
Ni 0.65169263655504 -0.05073357599482477 9.030852084988076 0.45159781521963516 -0.5486320198575132 0.30776079129560546
Ni 1.370477712708585 1.1176374158943094 11.484768021584276 1.178903507064389 -1.0038684602710002 -0.2325549953867285
Ni 4.273766757942129 6.946778515367807 1.8084656415897304 -1.316174961955759 -0.30973179897904723 0.9447168896115086
Ni 5.543443022917119 7.801217203469083 8.124011013091625 1.6909294456630943 0.7073724432559366 0.016736338918074405
Ni 5.378044617113175 3.0747533627695613 5.097572137080408 0.08402853640682947 -0.06308947226131716 0.17142958883031767
Ni 1.0134801639191315 7.442637242923435 6.839671975274621 -0.7360122184798163 0.020011410124920373 0.34395498182797535
Ni 5.207189619046496 4.627945067395836 7.029105760563869 -0.4455148422503488 -0.23340448787121737 1.2367849527622055
Ni 8.217855305690232 7.352485244422612 9.348160200522482 -0.48739502742390256 -1.5956790723985164 -0.26544943212190414
Ni 4.763668705610938 0.29006062207043654 10.292457140574436 -0.454874686198694 0.8724503788366136 0.3844382866540025
Ni 8.419512767080052 6.9985615759411655 4.8511160532135325 -0.34375906376708537 0.6794402356220428 0.29504540061146606
Ni 7.324411077230838 6.178644928222129 6.953396452350461 -0.3544576811315121 0.2800422423344145 0.18744730441481264
Ni 2.753969397963794 5.223568490155141 2.2905037303758937 -1.6507454172450409 -0.19784895936411087 0.7883508799825326
Ni 2.3421058139725375 5.364394042135899 11.298594550172014 -0.7201852787498888 -0.7865076561262068 0.2502760668155754
Ni 1.2006594671718263 3.3048760471299823 3.350615022340317 -1.8840897413022846 1.2764933270954208 1.4121868959767099
Ni 3.397265248458528 2.534650766283588 2.6688529246894306 0.9249836728486391 -0.022938868184360497 -0.9992420172425824
Ni 1.1128356147031024 3.5814434259667185 8.259564587514538 -0.5642992940811249 -0.21171877536766764 -0.6202781234395898
Ni 3.633635730959781 2.8390740486215877 7.0152232804154275 -0.3772232569628019 -0.11815993087289973 -0.019981328217933327
Ni 4.254113931475844 7.158767124775072 6.064630342324319 -0.45948570260814414 0.1287212513285138 -0.6518736388576838
Ni 0.8033931769154303 7.380904995791023 11.287454007635596 0.41361773643143607 -0.2761285091023051 0.14835573772998967
P 0.05526709473311397 5.696973340549612 7.966588326311712 1.2095281739287815 0.5078000734428157 0.6748911827987796
P 8.662240179567391 1.6223176342746926 8.256729887834046 -0.3602089817929926 1.5181657114023854 0.037394124377742054
P 1.7345142655169672 3.293953768284074 10.342517736856857 -0.1793071918061815 -0.07944965878689543 0.5081746831734151
P 4.049628136429841 5.969320954703167 4.020822785874861 -0.4470757589795656 1.9537059589385255 -0.46235196841234566
P 7.037212437802206 4.145691443215295 10.627921157431048 -1.2313830650203437 -0.9373825607336244 -1.8567694562207766
P 6.274135292819995 7.746014678411077 10.505983599567749 0.016578473183971446 0.20067408751773183 -1.9409196058071347
P 2.433367319566784 8.78735984015191 5.808244169971309 1.6995377561573954 -1.467772346551498 0.22745932603137603
P 6.651540496672079 4.176366586052305 1.3674765869640808 1.4896565482190989 0.3551559927501174 1.3558617390224197
Ni 5.5945167264963205 2.5485286992718117 0.6332902791489654 -0.9885570267249102 -0.623421811274894 -1.3553534319274336
Ni 1.3344732980949705 1.1525777950166907 6.834507310697942 0.3328254475737172 0.6830827174706365 1.830896959329389
Ni 7.249428405220418 0.42592613168436916 9.560196100396023 -0.6678173066711337 0.7112262697843881 -0.00014526732861265307
Ni 2.4600682443724358 1.5051373154324532 9.093823887996173 1.1808241211258697 0.5263837499822741 0.6018392000081119
Ni 6.365651439386504 1.8972298467917323 2.61201705968078 0.1901287079017177 -0.1718867309723943 0.5549808448936765
Ni 4.149447397556144 6.973779552747908 10.21570926096702 -0.3608311887580237 -0.2846802553270581 0.7402247138992671
Ni 8.096964504109332 6.9218327944066695 0.6775114122782157 0.3502621549929258 0.7327916546599896 -0.09779885071804448
Ni 7.647486810786955 4.057940345310074 8.35493399765058 0.1535000009350905 -0.7329716318812796 0.19498706443528355
Ni 3.1578936402127704 8.298785663267033 12.3597580550111 0.34315176920038964 -0.1692832319112762 0.34579820568430125
Ni -0.0022808555658233344 4.918317624657292 10.156730774063204 0.7610953867006893 0.20111965969558268 0.653645643156442
Ni 8.654882874333136 2.224343458622273 5.842838055485007 -0.3282956780241636 0.9869876253552614 -0.5286743457886637
Ni 3.440254101168444 2.725285911302682 11.547833496092885 0.27044482845396645 -0.005702449701415986 -0.7844726279740489
Ni 0.9221095264796297 3.2730732085586736 12.688752372308198 0.5003616148868996 0.4179045367322481 -0.6917650757359828
Ni 3.2613506295142307 8.342984060595189 8.181272492296767 -0.8409669635163516 1.4003413094920334 -0.7219110031917438
Ni 5.534621532092363 7.797588569614363 3.9208216383398 0.06313960877296224 0.43352604531958894 -0.42480640605840386
Ni 3.131956638323903 8.896855458224131 3.5730593719550257 0.8347065844289367 -0.6130664361824989 -0.7269251685768835
Ni 3.5188290297518314 4.20188524920103 9.229124640310912 -0.9871526901782159 0.9941638313887264 -0.33056390523305
Ni 7.244035473200747 6.148479067329641 11.470606345798393 0.19891468162446388 -0.13021840469933058 0.2926013099463477
Ni 0.6653359360759658 8.893754294954809 0.305901109409157 -0.6945020150511716 -0.28710969070415715 -0.2723674993979761
Ni 4.6925693084274975 -0.008032103810746287 1.1444674800501786 -0.43907294327974705 2.169520244531806 0.3592358192464458
Ni 5.814772073181628 5.939482489346442 0.4029356896173779 0.7421095896268057 -1.2869811140006222 -0.5475583271773602
Ni 8.01431531996977 8.507218393383082 11.893878754778983 0.04458678547143934 0.44246088591537347 -0.8344903546530725
Ni 9.24101182655528 4.757366341547478 5.767167852849482 -0.7117777714124838 0.5989258830160589 -0.20498274219541474
Ni 7.906984150161768 8.6366578561756 3.035436796652466 -0.10033267288349172 -0.10030541918998209 -0.8418457665768793
P 8.5401034560865 1.7047667433646223 3.471646785888004 -0.09715633203803911 -0.4832876901237482 -0.03330169947592329
P 1.8771132099831151 3.2534385707332647 1.363070388711922 -0.8769621506640379 0.7666132311951249 -1.0811511933135638
P 4.599607164911364 1.2996875224200333 8.252630168180644 -0.05850622376600891 -0.5506197397115034 0.14251830511260616
P 8.569314413333009 1.3335729603716189 12.576544827881397 -0.28838032988646467 1.5843060546748844 0.3039002798989347
P 6.336176746847295 7.780463964229813 1.6862216051276726 0.41945285505597446 -0.4488017405317367 0.6195877822407845
P 1.7024567859733977 3.3509024028661543 6.060703414759237 0.549501309836344 -1.3592702504833365 -0.5443333924821593
P 7.139569014330682 3.8375213008568836 6.216023494653909 -0.35112604565511785 0.7300020077299945 -1.2095281739287815
P 2.431821285092343 8.5395032309376 10.276684860639001 0.1344496691718588 0.23221715243133556 -0.16366588572449878
