# total energy = -381174.2149490261 ev
CRYSTAL
PRIMVEC
9.17712567433429 0.00000000000000 0.00000000000000
0.00000000000000 9.17712567433429 0.00000000000000
0.00000000000000 0.00000000000000 13.43165106246358
PRIMCOORD
 96 1
Ni 5.847508394600274 4.981407992912226 2.801520391139208 0.5444645187433849 0.5211996346781733 -0.1294982387038544
Ni 1.571894774124095 6.86598578905797 12.862055327620759 -0.30632714417287243 0.981793739859148 0.10134260220524482
Ni 2.7121985103679322 2.4729783784402986 5.01618471021532 0.5194535985213441 -2.383346553160779 1.5431213529064585
Ni 7.158268060963567 8.617431024729774 11.788932739026297 -0.26107007210728583 1.2074512367950947 -0.6736899634018269
Ni 5.061460059157085 3.9221933381013327 7.258222559406664 -2.1259999526516675 -0.41171280609923927 -0.4508622226051912
Ni 6.844125875978152 4.726311433768771 13.225663137077849 0.31399931600614955 -0.2414309577201197 -0.824439912395606
Ni 0.027038565032354574 9.095155472791495 3.3394844090780227 0.8420964491351045 0.8232062970988209 -0.7012020527791666
Ni 3.2294671924602736 6.754942569802806 8.585162415841758 -0.4973768212269627 -0.5967995807016754 3.383230831973051
Ni 7.191021222081061 7.185606718001678 0.14850149264638768 -0.3383751737473527 -0.3525332104152897 0.22700064122740263
Ni 2.507117285517093 4.7554120989140705 13.02559904676972 -0.48949536159635704 -0.030848095729108165 0.9216178417001998
Ni 6.7036516150575896 8.515252908763907 7.109063984570303 -1.0864006146379612 0.3177217591630592 1.3278652538094937
Ni 3.018274001987621 8.477296317454869 4.729096691375708 0.19825082278821984 0.5780012170482498 0.49887911680410213
Ni 6.478793684628662 2.474795449300838 11.984457823033303 -0.6420702796140169 -1.7479182043433121 1.4898645504648471
Ni 4.523083988280704 2.658310429089724 10.062012453696434 0.5341178854017383 0.6814876050693748 0.18664229201501403
Ni 7.211697285963862 3.893927791381837 6.685993907770906 0.9686605449112995 -0.31240240383267487 -1.127213020668633
Ni 3.9643346986649455 6.021369038301851 5.394218043337467 0.043769431776466555 -0.24917820576570637 -0.5480213828567078
Ni 2.226049461043712 3.5372220980571276 10.29703955695649 0.411050232814576 0.1847602445009528 -1.059207856273253
Ni 7.281425085955658 1.4378261468432112 6.285609685351574 0.5753686645214091 0.35079411623699586 -0.17607094425707098
Ni 6.994337067116046 6.109019764508965 4.564276434061591 0.09719181326166487 -0.13894550015968327 0.9264245190602237
Ni 1.3518273032365877 5.7181109242285535 10.946030275324464 0.6232588033344686 -0.6530889993220236 -1.6035330212252963
Ni 5.907242304859106 6.187695261920082 6.748491050535336 -0.20573607542167147 0.689775813220096 -0.0545562379793254
Ni 1.9571229736839322 2.286187164827108 0.24968756133940548 0.04156188260218649 -1.2772996250468003 0.2701049286160445
Ni 1.4413685173087065 5.320897398689604 8.218786785316292 -2.087044911544709 0.3773975777571371 0.8224915304199835
Ni 3.8207035065523365 2.989944215389217 1.616432282170974 -0.6446015306763028 1.321031518717112 0.6327734276931231
P 4.482530270438673 1.4297869848541596 6.145960448018701 -0.7723773873724118 0.0134592108286994 0.9464624115477054
Ni 2.043158525792789 7.72323026458228 2.7968997084206153 -0.4952052674969407 0.44178365734269076 -0.24990042864371156
P 0.5411503159326484 0.5586758726112919 1.1639274928559566 0.2188525581989715 0.9703968108761158 1.5504880776841747
Ni 7.0312474661114415 2.8457899271197857 9.11140082045476 -0.7951542760576111 1.1932055255093579 0.7920447838943521
P 6.150050692880026 4.112811413072326 10.89473473201647 -0.3351443255148809 2.711845862555317 -1.1903390025948404
P 3.306261379131944 4.653041263311479 8.799396905724423 2.146817917838283 -1.2370024680896503 -0.6612921039581063
P 1.3131365418828875 0.8644861453023467 5.209922090163571 -1.3646204590516564 -0.7299598416381493 -0.7731728866905135
Ni 8.86873743101766 8.967171279755751 10.149022616539579 0.6075203095532892 0.42498689750032614 -0.09669456191027218
Ni 0.3177230993782555 8.859652076714966 12.744152207010783 -0.2899651578750813 0.14352643466214635 -1.226226974740701
Ni 4.4851182198461075 3.865221742635543 12.627699072239015 1.578685108943681 -0.3315249835947387 -1.1685080227626778
Ni 4.036595385310827 5.26778937308385 10.862955263920707 -0.3440251729442785 0.425624531084325 -1.0561353879955167
Ni 4.615580236782588 1.1695328811469528 4.1242956679959555 0.19696475698694466 -0.1401073816782684 -1.1028536179876618
Ni 3.5892196914703307 0.4590122890483925 2.0551098964073344 -0.9737132768438587 -0.33364434393058673 -1.072480147902127
Ni 2.3459027208348227 0.39172285131743045 7.019635649142551 0.3358650057309893 0.735501854502301 -0.7678427327268519
Ni 8.194952872528887 6.775627810811164 6.899811756153228 0.5905512857991184 -1.2783270378700502 -0.263257823787224
Ni 5.611885695891486 1.580778231664508 7.909711291351601 -1.6148610446436062 0.02621548205310324 -1.4331925516940995
Ni 0.2279230903653933 7.188882951825983 1.3770533859711822 -0.4899805287628916 0.20586694457258095 0.1694369838803211
Ni 5.5597229142182325 7.966938010907911 4.978548400588266 0.14429802272084824 1.0640489864156384 0.01773752648907913
Ni 8.566993542661479 2.865474861442292 0.0021272577044088485 -0.16033682135126578 -1.3012605067377718 0.8979536653140406
Ni 2.118658737760742 1.4786551784519901 11.231493025227705 0.01784885525596281 -1.1299797847804927 0.7656822347404233
Ni 6.73280734295624 3.046943342231682 3.9353661841276857 -1.0774398059002475 -0.7793255365554708 0.28806434130794256
Ni 8.16583385313247 8.382276359424457 5.269182460743597 -0.20404326110028087 0.6602947730418435 -0.12416654207829582
Ni 8.587669606544278 4.41433505041511 3.536795361718668 -1.00358023960662 0.8005340523122858 -0.7263770093828974
Ni 5.1309859623866 8.586889550871826 13.131225008807835 1.5190442573525968 -0.1761971854222901 1.2587701987840452
Ni 0.13067400853687677 3.1388981403256278 9.272862249814548 2.0298748900916204 -1.97906397808734 -2.401151956773316
Ni 2.4722992711489864 4.309936070064138 6.410886626347627 1.1315656412103738 0.915111665150566 -0.08245913503718057
Ni 3.1890327772505005 2.5348597360797673 7.972315806485063 0.12070815121605018 0.0790843050276767 -0.403642370386279
Ni 7.559978378026072 7.22700473139507 9.2615798916532 0.03011713110035458 0.28836336060560014 -1.0236790672390241
Ni 1.5698390979990406 4.050039874253705 4.0381986291458585 0.13701254480302855 1.313269872493822 0.6127391347500674
Ni 7.040378706041928 7.491379364477943 2.5688701633987456 0.23087992167715077 0.44958387011339995 0.449174293379807
Ni 8.565387545688779 6.688647014769805 11.707739038361987 0.10357689085240226 0.4214426317924936 -0.5450260476738097
Ni 6.409919357313784 2.892639153094795 1.363016972429796 -0.6687642439654353 -0.39980705580058884 -0.08615895248627096
P 8.34000651910303 1.2445375283347593 8.533893486197881 -0.1957429687647016 0.6021289633343888 0.02813866721774509
Ni 4.4648184181111965 7.842854096234433 10.931188110159061 -0.6426539200316287 0.8714116531594541 -0.6294173667366967
P 4.869300227092301 0.9108113574079785 11.323862629396887 -1.1336965715104474 -0.6075413925992118 1.490718156714394
Ni 3.6222022807267824 0.4234858005871866 9.303406476810165 0.5949162476360335 -0.3717246957420759 0.32635423802707664
P 5.619493532979297 0.24920943309781918 2.0109596630590145 1.338630719856114 -0.48640849514091716 -0.767851217367284
P 7.725285940707334 5.589273258515888 1.6443298261555837 0.6758818288468231 -0.4106686811054411 0.4731860829133721
P 0.5794492140250102 7.145153948540788 9.270498222270735 0.41831025681109896 -0.4685861222475156 -0.118742285738931
Ni 2.9807762669564974 9.108893629752238 12.978212041236997 -2.267903249888094 -0.022216645306355285 -0.45674927751358757
Ni 1.9947858969751053 8.066032612686197 10.82157193392821 -0.2565986665994936 0.6371520163767931 -0.531380174755601
Ni 4.809970110358034 5.3469329038984394 0.7954934330677683 0.570863577562204 -0.8178833422240108 2.8927152566422953
Ni 0.19120449329416705 4.828507903985756 6.3504038626432395 -0.30072059661937245 0.2492658803835062 -1.9864996084297788
Ni 1.8237976935732687 1.8771259701924226 2.7059672421138616 -0.36105641739495237 -0.3303625878555214 0.6533029151050426
Ni 3.8692872092578603 7.882939780672992 7.009468311736535 1.7342088251770198 1.7022284156156813 -4.187012701798673
Ni 8.77195546488006 2.166150362524831 4.621535273557355 1.3384263171547917 -0.26579190306298744 1.350529785286545
Ni 8.452609849703101 1.7110567060898232 11.416957226485168 1.7913965872419213 -0.4063242880938164 -0.9949403045434347
Ni 6.205994450283288 0.5222252476063675 9.749243166694537 1.448610943131699 -1.462477673811462 0.5544864217557611
Ni 6.295765092494364 6.490393571334325 10.90723948330218 -0.10837919733705206 -1.8655281762500129 1.920233538212693
Ni 9.248431823865856 4.990401575959338 13.360409036224935 -0.17345381834919807 1.9418889116989395 -0.4738787381050226
Ni 4.177510148258186 3.592312382783471 3.7643541201993975 0.6145545906922513 0.27519005644843575 0.9054689998544793
Ni 5.995361064469692 5.310646549441008 8.832546518666035 -0.964422852680868 -0.3231169620367016 1.7168466797494883
Ni 1.491255371843506 1.3028122756298248 8.944700170113752 -1.165894753509547 -0.6935234531879862 0.7429359421828431
Ni 8.216831139859822 4.947149783203174 8.484129605145563 0.5836602151062399 1.1488228856289249 -0.05664217397407664
Ni 0.8561643278461002 2.664651822850494 6.87411764001516 -0.46782944658714914 -1.3663677807600663 0.08826468597536413
Ni 3.1280507779157434 5.349814521323739 2.675222036068518 0.08395603129768123 0.4376218126555173 -0.6880079226863958
Ni 1.6043634443492827 7.297916380583883 6.495465768630385 -0.27279455963306565 -1.301176688774714 -0.4678227617189298
Ni 4.604631925991562 7.482165530417432 2.8271071349082435 -0.1757978931013424 -0.0030339017303173555 0.012860658012752045
Ni 6.871207573500629 0.5730417449602204 3.701911122475762 0.7424967977628955 0.5087315841181497 0.1316826479496829
Ni 4.432111142621494 1.8333877897816695 -0.1245748908908452 0.635588271434099 -2.7639796071360787 -0.26952745884601964
Ni 0.04356656816281332 8.776085171381286 7.561199853437878 0.0706117487802913 -0.07526236017842522 0.0661341726249119
Ni 1.0494501932168847 4.016919628113879 1.782729138987419 0.3032688169625229 -0.08077429113558993 -0.35448339216312497
Ni 8.478168144382906 4.287176798679608 10.763547722160885 -1.775222034364588 1.5935255163906232 3.5171287424064976
Ni 8.53517644835093 2.247707477361248 2.4123781475287656 -0.14345521510457873 -0.6399455199615302 -1.5400807663079217
P 4.290508095257263 6.442433913166764 12.703816904757039 -0.4181559906214217 2.0171666984963323 -2.906496369586788
Ni 7.498427396906701 0.541909264216318 0.5903920185407009 -0.5426305508584397 0.1681753435590781 0.4684801927972706
P 5.109906104979235 8.051890662200892 8.59977607058076 1.5564522656874098 -0.3600650000159606 1.6699433303297304
Ni -0.048619493495201206 6.734973144587992 3.947508438953843 1.3951733921378486 -0.2710914608990299 -0.388948258709214
P 2.1166673015145956 6.279466517502862 4.356636626605104 -1.0701995793980665 -0.3247370141386279 0.7417678900166709
P 5.659313080776666 4.484943854460501 5.154826299161893 -0.13346853620551208 0.20357223500113328 0.4106974774608475
P 1.098180729931341 3.398280417104798 12.068043082618098 -1.310360155046195 -0.13693978258356415 -0.1068283079101644
Ni 3.1774971304237454 7.100121793426318 0.9332200625961817 0.403710247509737 0.3915833823392159 0.4863712141450785
