# total energy = -340888.9736336893 ev
CRYSTAL
PRIMVEC
9.11681716041269 0.00000000000000 0.00000000000000

0.00000000000000 9.11681716041269 0.00000000000000

0.00000000000000 0.00000000000000 13.34338345626453

PRIMCOORD
 96 1
Ni 6.485029217275258 1.907311123855619 11.293947063608941 0.13440107532211046 0.5423896384922271 -0.3480525489361167
Ni 4.426397159068392 0.48641593776937564 6.279916325522358 0.6712980661308827 -1.3093623099092997 -0.8838457651577487
Ni 2.9249576267529065 1.9689681595838682 4.485418522901175 -0.5267236498201961 -0.898386381976085 2.0457344828316963
Ni 3.744377170040654 4.464514572402683 5.252716309725523 -0.861104100585859 -0.577267938426651 0.37494783066506393
Ni 5.327166063557259 4.6542902423301165 2.7490568411482323 -0.6075113106922247 0.05907392334402084 -0.7684199453865606
Ni 7.578792028215596 6.3113903140547585 2.7646958296279363 -1.908602381731668 0.3614672796801258 -0.5846056097386448
Ni 5.0028535200172595 4.537932302510563 11.057382063685274 1.46404116164384 0.40633997182310017 2.0023612580523835
Ni 5.9154560534245455 8.030940584616975 12.407225333765586 -1.0877553288936428 -0.0029649961655948934 1.1157091337940912
Ni 1.9298387795238883 6.446182458553083 0.5985245290227702 -0.5068528790381981 0.3151370291550185 -0.7456592546512771
Ni 2.758967733287842 1.6899297309967733 0.5596258044417084 1.305847611887822 -1.8044878732082408 -1.1919425996365343
Ni 0.4140302313853519 0.20319015497409146 4.729095552038446 1.2710263904435788 1.0401233288379765 -0.545932361538163
Ni 8.647966782766893 2.3793069916247918 1.2453554264485718 0.46733013835322745 0.4202882064730762 0.19640528493904885
Ni 7.040106641541774 0.7669887267162315 4.6812596114106 -0.936364146771439 -0.023926428908610405 0.5082901257053568
Ni 0.8241001173144933 7.347972446584987 2.52813082970427 0.28485071946665136 0.21281149421121412 0.8302135816545895
Ni 7.517317328834318 3.7725390188303276 3.7685048271535937 0.35579362633411626 -0.020345396425571413 -0.474251548063409
Ni 7.567833613762637 3.9478827668950056 12.751498237208503 1.1020172381292956 -1.2801453220257115 0.08169474606733027
Ni 8.226195461770887 8.966617782733442 6.768871296923304 -1.3065662352214016 0.857281384405659 0.6153567748785725
Ni 6.696092655711558 1.0878733469331747 0.1671486409500655 1.6388082994878228 -1.394886199914733 1.1182169878176096
Ni 1.9168290811675062 6.3680331002413055 9.282498181907766 -0.13720152088538307 0.3971948149887224 -0.1451184617396146
Ni 9.005573943263798 4.925068834399425 1.5424415066588577 0.8989196287717357 -1.3984397215939464 -1.3704913160101364
Ni 6.265769760042611 2.0136587982264644 6.994535318343308 0.7142398597997311 -0.3279231251760933 -0.23621444651618675
Ni 3.5257923572917997 4.652649215207378 0.690783073863165 0.5185143745365264 -0.29877118620248544 -0.08406736006456489
Ni 6.031020830134775 5.754662745848155 4.631408854148724 0.47672109264982415 0.5275919113577624 2.1440686372279205
Ni 5.657760094250409 2.8280732087898572 9.148450881386816 0.041167732487561365 0.8311831446567105 0.5388967948476203
P 0.11619748383421957 5.48713885757228 12.665299640859688 1.4226793108676015 0.8960104255447408 0.4617822119518047
P 4.249448851150369 6.235410758271937 12.711361448831507 0.1954449779083086 -0.4931630402559313 -0.4248316028693845
P 2.370235758362984 8.65559755888763 1.4934185564122302 0.7772311159202873 -1.3381198416579665 -0.7752709068701229
P 6.2354745759933765 7.95918211526653 5.904460260020458 0.639883299265027 -0.16410194482065288 0.15002181257850294
P 4.77656499660888 1.1191896145254467 12.676414864571043 -1.348390627456355 -0.2723705847217696 -0.6856761892294255
P 3.9697722453488757 5.83075170343916 8.19177035946276 -1.1511911287507852 2.60542018940021 0.03512024074190081
P 4.649066305989397 0.8765555492928502 3.661878178171883 0.7537165777381148 0.8274301053721815 0.31891217992673465
P 0.12803658284304764 5.366632765859134 3.6194995644088794 1.7777730829212155 1.2183779110099275 1.7673197487983758
Ni 1.6157461882316153 1.23026891710019 2.496893878422931 -1.6604922122191597 0.48055280769108855 1.4883501707028497
Ni 1.7239354597068681 6.544324997310232 4.838577588213723 0.3119817713554885 -0.16494552376787078 -0.4526401404412205
Ni 5.992675496366771 5.695348732178483 9.076449904694902 0.8545827545275734 -0.06484065062446898 2.198260806999608
Ni 9.085109057812556 2.219862973015987 10.209369446147265 -1.1274464768356776 -0.34919797539446956 0.8916387788396063
Ni 2.1043164299404538 5.4037382124677364 6.958987935819573 0.7450702149170265 -1.1357400843030374 0.5023567909400575
Ni 0.48771964265021844 8.822617652713081 9.281777953337228 -0.019190456885521786 0.41520744951605915 -0.3629793454492781
Ni 1.5479900016971857 0.9965228371006954 11.621673855245971 0.17625580657436743 0.06740995401354197 0.14526887127454982
Ni 4.074250972163268 6.861252918797904 1.9042879872228395 0.04597363851663695 0.01956892327086307 -0.48934032407573147
Ni 5.423175267054847 7.848449251751032 8.16206776854118 -0.356720766134076 -0.09321483089178784 -0.33320931327569714
Ni 5.312633856703669 2.7509631676558146 4.824087318719936 0.22945527341548227 -0.18120183772573312 -0.40635231311827436
Ni 0.7093576775291025 7.361191831740385 6.897955402079701 0.7064689576050608 0.5355175939627422 0.740428602379957
Ni 5.304000230674591 4.503042242517659 7.310479535239071 0.00783980775939295 -1.5505073609578846 -2.0657034697544554
Ni 8.174557808308695 6.791253995195731 9.429021846970205 1.187168832396975 0.519751332267421 -0.5704012932138047
Ni 4.667536977937561 0.1258275779994938 10.551293857441195 -0.04823338108509113 0.46575585188757207 0.1786513033897375
Ni 8.462047526577896 7.30592568497347 4.82894384732151 -1.343455394938267 -0.7807072473943458 0.03846678861663053
Ni 7.407851702930269 6.296940158557305 7.052578447674592 -1.5600206997649584 1.3814347023955178 -0.6304239536243401
Ni 2.5612786659018663 5.110340796556675 2.921000016341901 -2.400391167347892 -1.4108445230162026 -1.2740152978685737
Ni 2.515083752396759 5.36691538719694 11.513111705941162 -0.09296671943672376 0.09811226819340522 0.6166942627430735
Ni 0.9387222151108834 3.259161917116083 3.88711462085824 0.032340106893602366 0.5811397626772314 -0.11234358130143879
Ni 3.8779020769275294 2.817634452925766 2.585294186161419 -0.4488724458686721 -0.14565119431463303 -1.0390565781363588
Ni 0.7926106301925988 3.427011641320252 8.360563674262503 1.348890192800593 -0.04898388609787048 -0.4690085544969148
Ni 3.7537674919096617 2.5638860756635515 6.9635518145842585 -0.9264324894800238 1.1789559575688793 0.6815606243991552
Ni 4.093688026750378 6.982333370004008 6.137849872461624 -0.17602672128269686 0.11317764716695992 -0.11690497541987607
Ni 0.6583545545543699 7.349941679132274 11.476123866276358 0.5984121766044339 -0.13950522931789522 0.023683973880501145
P 0.08810583453812994 5.503193572923077 7.985187836753272 1.4845343965011852 0.9253785942942129 1.7293119020960346
P 8.374188757789913 1.5704629564613635 8.211371516762144 0.8055898695686384 0.6221550287473285 -1.0753453852650643
P 1.9266570102692437 3.277176748196819 10.658094637634262 0.1749139478344923 -0.4861236169106466 -1.5886051962708705
P 3.918945988630705 6.126072767810767 4.004349598506725 1.492275731009501 2.166298652270714 0.44747710818304226
P 7.114937478338679 3.9780776659534056 10.606175274516001 -0.35627956483159934 0.160173299190208 -1.4980866812643232
P 6.554827570895763 7.777793917299764 10.400086883306805 -1.6551198921636527 0.029328573760788196 -1.8702476932128693
P 2.3553388788154517 8.839884904771237 5.8562778803333675 -0.4970364071684085 -0.9637489665422952 -0.11751715508257825
P 6.905961791075197 3.8705995062313403 1.5400665757395602 -0.20249442855592223 0.3335880367713545 -0.4322348373119911
Ni 5.31425665019171 3.081821586052072 0.1330955047897585 0.5879976661393292 0.6374788035885924 1.207016206140205
Ni 1.4073995613651837 1.377295830480269 6.932234635310252 -0.3821942278148321 -1.0401372127950474 0.9346399649914807
Ni 6.7026385305678176 0.5615831851264423 9.032243369053514 0.23904831642055607 -0.35937722992031657 1.1321050586536117
Ni 2.565545336420988 1.4519807981995971 9.321647618965912 -1.5125851319908143 2.05059361069621 1.4712628762032598
Ni 6.236322440006792 1.8976290638314581 2.3822745156717455 0.9878337754056408 0.30668247062976217 0.8369930664702683
Ni 4.1386612867307795 6.860942947008053 10.452299807943692 0.2767671711275685 0.04203933645923728 -0.285281893466799
Ni 8.47737289654081 7.206561492691614 0.49125240937278186 -0.7233875877372703 -1.0184252750392524 -0.3307374546964369
Ni 7.630210878061423 3.995244633020727 7.923154276468527 -0.34012712344145296 -0.9028590730354581 0.7661666305760095
Ni 3.064754903975585 8.081511570449385 12.47328852731839 0.27041397521603106 0.9078909790324105 0.4671781861563954
Ni 0.2692706704798575 4.769617981789285 10.596421191634787 -0.7447064038197045 -0.22397882368194327 -0.7245432986082684
Ni 8.535811695745021 2.448968592985069 5.872142965883315 0.3825503256026702 -0.08430081623160965 0.04470351355496172
Ni 3.493372954800353 3.01213263423975 12.135153976996255 0.5675555962348935 -0.754092730130611 -1.6741082603406974
Ni 1.3390598985204467 3.5315815363081295 12.739928995993193 -2.5640351986955197 0.19536913036505063 0.48651905257685246
Ni 2.900068715391363 8.713589634041762 8.095471241173486 -0.07880354056246429 -2.0756369268180834 -0.8081681718187759
Ni 5.837206410121933 8.007473896761804 3.6200328982237693 -0.8412657257036931 0.04034420814500148 0.033654454829651716
Ni 3.093226724555109 8.334740289122733 3.805012210544131 0.1739821800488423 0.3043095995222114 -0.16350981976260873
Ni 3.5836020960989603 4.126554153291904 9.409513681207775 -1.44900535035664 -0.7623544559187709 -0.9802508208520602
Ni 7.445732079013497 6.085375295166836 11.583671313810271 -0.8736405424899729 -0.12560198897324173 -0.12384181174902543
Ni 0.4378132728025164 9.122925616174344 0.28684698264612857 1.2308410764739446 0.526771472338996 0.6879261616058668
Ni 4.8331986659780775 0.07904918818407956 1.607677804878148 -0.9580837978367178 0.1832324950025167 -1.3139923524821435
Ni 6.260591407788634 5.763205203703747 0.4009858891230454 -0.9646977036088096 0.11668591743053452 0.36007219910481214
Ni 8.032845999442822 9.021829228596266 11.410274006249509 0.5425701299341493 0.031162284535417303 -0.1509481810475142
Ni 8.981368793203396 5.000127591630044 5.900190854456132 0.3446427519236193 -1.3167051234276164 -1.869992382668954
Ni 7.987535417220523 8.769256920772014 2.6153432161422425 0.13597176224334004 0.8393947339332253 -0.4827948096477298
P 8.484028173205251 1.7566557171708168 3.3176326251810133 0.3107926361433938 -1.3637177447317288 1.211636735631352
P 1.8229076288427355 3.3678708471802024 1.47140144251548 0.22140309253496707 0.16580067267931448 2.2330272639465156
P 4.44327238798056 1.1066175234017952 8.557672000383375 2.3104506363320017 -0.07672943164225496 -1.5363385256566702
P 8.676475070615812 1.6381370916396563 12.553495551305735 -0.25132019180937365 0.6150148181581215 -1.3153437243037154
P 6.51841500240565 7.791751764660395 1.2217601914687874 -0.3020814815226411 0.3038174903771413 1.1459815595253877
P 1.654684115127276 3.3266719495821016 6.176651958778791 0.857357231948917 0.6517731087240775 -1.3303923911067217
P 6.913273478588735 3.970073100321378 5.852835370102555 -0.9318552031574919 0.2405012468169987 0.3225477197967929
P 2.4101127174455454 8.460178579021443 10.346606721058473 -0.38640518057238615 -0.5466964933976972 -0.06959410614905435
