# total energy = -340891.67893137684 ev
CRYSTAL
PRIMVEC
9.05707249708702 0.00000000000000 0.00000000000000

0.00000000000000 9.05707249708702 0.00000000000000

0.00000000000000 0.00000000000000 13.25594110240898

PRIMCOORD
 96 1
Ni 6.485398429476192 1.7637743400420827 11.473044141501521 -0.6064828694277103 0.7386015764735473 0.6736876494089817
Ni 4.669808576445608 0.2626732228093894 5.9603753213532515 -0.7045432013372576 -0.2700175111085608 0.039742312894944454
Ni 2.701779132590087 1.590104970778927 4.719565416806547 0.21986865816831166 -0.836542609196411 0.7781901373994469
Ni 3.4505454478820607 4.1870303725758165 4.972462435330009 0.87301910685589 1.3126803185389393 -0.2554085029461343
Ni 5.0994398776381535 4.676927435597673 2.5918941979050683 0.431758926116837 0.8518273032696232 -0.04842338560871015
Ni 7.233141295551649 6.220977191633281 2.614734323871578 -0.7374677199794202 0.14542030925074956 -0.35257357673492185
Ni 5.087276228985198 4.696644682892896 11.385063737171807 -0.5978737876024607 0.6029553158904262 0.029740978707858457
Ni 5.631280244391831 7.75128736836395 12.650967167375903 -1.2845732758900779 1.3985677625313786 -0.027142107632430672
Ni 1.786235880369208 6.635465067250441 0.15978940533117203 -0.3732534736817766 -0.3434731570955504 0.3428584063296869
Ni 2.756520080064742 1.7087435662406258 0.4261561023927395 0.4089072183296442 -0.2425936105696532 -0.024687475444351032
Ni 0.7228096506050758 8.844014134060453 4.085640066387899 0.7797112020296636 -0.5205038941627294 0.7830428375060579
Ni 8.50614909359147 2.559646490512032 1.5114823339758188 0.8324257588145599 -0.053034916238792536 0.6891854879342647
Ni 6.763894358314407 0.6170203242006722 4.763628981260376 0.9302739747133012 0.5728644100423166 -0.12197107708887382
Ni 0.26791636220268483 7.542639584284924 1.9136408165093843 1.0644865881736894 -1.0918796354746616 0.3859367255763998
Ni 8.053612455508885 3.921024147008209 3.8851572333592377 -0.9228445150184493 -0.3401096399399562 -0.5612142273978981
Ni 7.152877517173026 3.868248584312177 12.744991356326702 1.2809207667391553 -0.9163887320907766 0.24238560832390516
Ni 7.748425333386783 8.706346628829687 7.102387959629642 0.03255685089009877 0.776934924836107 0.7971535658758271
Ni 6.856665954109062 0.8535856292088636 0.6641687276203962 -1.3768733082770803 0.48549112553297036 -1.5207951786054323
Ni 1.9202896135876677 6.407254006112307 9.138394357021939 0.1537242011307546 0.7403355284455184 0.3522665870174643
Ni 0.08017320765149695 4.977196567236859 1.2960073284860725 -0.5380187631180412 0.01992270706585601 0.37614802162075217
Ni 6.438573363552306 1.8713089643581946 7.029400633468282 0.2665616913494764 -0.06618148092307957 -0.6555503163783226
Ni 3.3126334016880548 4.518483005564315 0.7401349249969136 -0.20666141544941824 -0.02839372065134465 -0.465213863341173
Ni 5.968013150771745 5.481793259271185 4.752838384830644 -0.039334278823248386 0.1316551371458571 0.7653402780199722
Ni 5.356072032948272 2.782667848985875 9.259354280219865 -0.4881414186716239 -0.4856430777298023 0.25126722708425114
P 0.03355283157091455 5.546288674057257 12.508637986819986 0.06543200435156472 0.4454222825365426 -1.7103621004664091
P 3.836883941508615 6.240350270165426 12.729256503903189 0.8877145040845356 -0.4268254933709617 -1.3484911575899614
P 2.2555371600427243 8.477619314546937 1.3779946678018933 0.3760184380214234 0.10961538373699832 0.3600737417667089
P 6.32946280858421 7.743552628267431 5.894784906476232 -1.8013863514647817 -0.8881567338282768 0.07797307424136893
P 4.717204237950385 1.0408387961263024 12.60734105953409 -0.21150768779812607 -0.010815859668581373 0.8989797925857099
P 4.0246732871306365 6.085084872654173 8.37616470314276 0.2655713024117491 -0.5425613881834012 -0.6501808245362931
P 4.649801502823584 1.0634452496168285 3.69747928973158 0.5796930029283759 0.5259893427573328 1.3372248406475227
P -0.022121900100404573 5.890511779570451 3.678603444491354 1.9462019372519963 0.21983600515816334 -0.31430707705455546
Ni 1.6436232134373878 1.2731164829123722 2.449313230727742 -0.6393883619064795 0.453672952581109 0.10199489107726306
Ni 1.940840111572445 6.29086156468332 4.937440546565119 0.6985543307436743 2.21299759898915 -0.693210807043574
Ni 6.090383260191015 5.356298459766085 9.068349673784889 -0.7564476035160327 -0.29072800418303474 0.966370206215226
Ni 8.628211262538512 2.41937054834005 10.38710384038853 0.8517419426446686 -0.07914909682734111 0.11094695806422829
Ni 2.3502107411070146 5.2937231443950745 7.0141956197984525 0.27529907122247427 -1.0101267824758862 0.4218684064760025
Ni 0.3519478828297283 -0.041201529476663445 9.138606292523415 0.01505612300217407 0.2786039672259912 0.254940047950148
Ni 1.8771960616213526 1.2136296293363409 11.455466174781003 0.03180043234004846 1.7279821275410179 -1.8670309860477845
Ni 3.9708923893635117 6.935996853998292 1.563776966110814 0.24370381291469645 0.25930578111801145 0.5611239816769368
Ni 5.724486579676688 7.514399631567191 8.375793363161545 -0.12612186603245376 1.8423375970661624 -1.0558055154599235
Ni 5.354532330587138 2.833025173267656 4.8183490974677925 0.0104060258246724 0.13098793587550345 1.0772629140027512
Ni 0.6760932695537403 7.521609061446381 7.074656108691083 1.0778750936654533 0.0978441021336831 -0.6659859098893498
Ni 5.199185419421472 4.266433729046747 7.103514659475084 -0.23792525855970637 0.5596931627676812 -0.6930737672450773
Ni 7.950062943186295 7.0271925191409625 9.124780671027706 0.6481884766966127 -0.037610354153606196 0.3053897199602676
Ni 4.563877053999617 0.4143040170410959 10.495285139696318 0.33735470290263836 -0.5049497484782143 -0.26207074545765835
Ni 8.202202790430988 7.416981757470998 4.920459440936358 -0.24533157832610653 -0.2764658378370658 -0.06690936022803962
Ni 7.404039200564763 5.960839949183406 6.85085584196396 -1.2298584008457014 0.2163555028087306 0.6755781815634752
Ni 1.9693789476896912 5.400660001912158 2.7879761993027015 0.812859149536542 0.6026843216172266 -1.5045221524770218
Ni 2.404299579346366 5.312063716637988 11.257780165805977 0.328222401584067 -0.2669854091504563 0.6691187990913766
Ni 1.3882590483070267 3.434197431635907 3.867580172345991 -0.9698141988997685 -0.7274792413081407 0.49269998457658376
Ni 3.7034189180164705 3.000562904304415 2.7655472644373416 -1.8512050747591213 -1.654019202900306 0.5761009147017434
Ni 1.0176708041275984 3.114528050246438 8.261699606787003 0.5318496581928518 1.0861936408334776 0.20038612396366778
Ni 3.745869417820195 2.3346235189687152 7.065814594309091 0.02001578100029456 0.5180708592412046 -0.35170865763146525
Ni 4.068373662968693 6.808935180913921 6.218945690223856 1.4327860602843001 -0.32724821059625575 -1.588901901575683
Ni 0.6920962113295458 7.278028147915048 11.104024582315906 -0.3715681155595536 -0.267794535315313 0.44333866053463644
P 0.3078743555959151 5.566313861824706 7.850579150804369 -0.5063204035734957 -0.5815519105139856 2.2731693833830398
P 8.502725520106127 1.6601976565013552 7.878059215121519 -0.11777349406775846 -1.1282268066451282 1.2754250337319066
P 1.926448423032202 3.294573598699229 10.526954100143023 -0.09433120388441818 -0.6599972964060827 -1.6809417383227632
P 3.9535118668281273 6.139979790364942 3.7996829210490852 -0.6029072362613099 -0.06900198109101019 0.4702236578509385
P 6.828272031155216 3.7586670615630284 10.48617915879112 0.9473602407716265 0.279655291308641 -0.34342430613548597
P 6.497254137656921 7.8960646756740696 10.66757330537081 0.3604498941592051 -0.05009100311912018 -1.089467169378427
P 2.2621125948320358 8.475952813167826 5.68147001282843 0.4511105911705715 -0.19370202707527284 0.8480308123416687
P 6.999396362986145 4.169559279313307 1.7162600308847715 -0.6933992689052961 0.05198462059740725 -0.02791369569113257
Ni 4.898997801436699 2.77636412637794 0.7996145329147751 1.9492767195225786 -0.057715609543913506 -1.071546066123632
Ni 1.5634409487131784 0.9363926336051701 7.216959023736134 -0.5210116870370834 -0.0839092372201458 -2.0536848480270242
Ni 6.9387411470301945 0.6374005492184533 9.34774496994346 -0.5159322156316468 -0.10243634949005583 -0.7783906834460271
Ni 2.761256929093406 1.3231658667219264 9.120392519298475 0.416102964747135 1.1293915163771904 0.49487590918198
Ni 6.429597804494169 2.2892838129696873 2.819949477392547 -0.033541840511187394 -0.5354502310599165 -0.7683626097860637
Ni 4.415612773695166 6.864844490768495 10.40514552923193 -0.2578456516327172 0.27495120096475223 0.6140066886085813
Ni 7.940009592475364 7.361135847125412 13.14510837467086 0.4848671187957262 0.0015560316332102237 0.39048166463460493
Ni 7.507289829487839 3.7070145758833535 8.294043319150793 1.4708371015197508 -0.11323755387061789 -0.3773386994947437
Ni 3.1169372315879764 8.270918801101109 12.123990448668865 0.5316501405875359 0.1387701509240836 0.9372799737174891
Ni 0.11049266426403097 4.913851400685282 10.078995812316633 0.27147018439468734 -0.4875001855431991 -0.10036404034205941
Ni 8.936341933292194 2.5124681987523565 5.883357597834807 -0.39406244000732776 -0.3716958993866695 -0.5210137439196124
Ni 3.8184346843931496 2.90945780988887 11.756574897060643 -0.8603461393739119 -0.900155815171682 -0.4786463346969949
Ni 1.2442334780320488 3.465498674930482 12.594787956754494 -1.3801231826729456 0.2932829093944046 0.7569111734160126
Ni 3.294473970899391 8.132508615907913 7.926337035508498 -0.6803110682627703 1.6405095984496456 0.8937026033471704
Ni 5.394102681268271 7.831560203815284 3.844448408638137 0.5354967680271359 -0.045344746683386415 -0.5777353649813727
Ni 3.0787163847410133 8.490407901217058 3.49341800727419 -0.26418316381497087 -0.7816297592086151 0.3163634453629519
Ni 3.4177226163717784 4.099629620899704 8.931999066926524 -0.7671485348733046 -0.34101801068683846 0.9554764421208578
Ni 7.20846982948266 5.82449477656867 11.278366892081603 0.5853723127013403 0.9524512821412888 0.27848518225993973
Ni 0.9697860606963439 0.09764973515763438 13.072360155229113 -1.9392316765817506 -0.8490186301762346 1.4477951320986229
Ni 4.5764120426337875 0.33869829115853817 1.7339829107686904 -0.007959621166708872 -0.13316360337058356 -1.5153588380812095
Ni 5.839167234363002 5.619243394756851 0.32855618113502416 -0.1567460186762139 -0.18025721442427667 1.0017362444193456
Ni 8.227616936462404 0.0909619926666871 11.400162783090899 0.11074358380417057 0.021626062910207917 0.04453896295263943
Ni 0.22289908799222388 5.07410724526115 5.7875174658051405 -0.5537135481454787 -1.6946472608343137 -0.7508246009023005
Ni 7.863658469508563 0.0497776716281775 2.5480434746599836 0.012143834451385538 0.07166024464946369 1.116592050619677
P 8.75866933789009 1.5889728366898583 3.685867216806819 -0.5859978621004811 2.0215771688592024 0.8858208866062487
P 1.605565393899251 3.3984401085667577 1.6350543169440437 1.3061039508730021 -0.3975408854742315 0.007811782734934934
P 4.887477204946334 0.8597063989480053 8.24864202505732 -0.29045186770351267 -0.8803403231076515 0.16335195402850575
P 8.376977122565075 1.8787810493460488 12.75851266017927 0.9421920663071257 -0.9980523678098555 -1.8121397333265437
P 6.370998544043967 7.981998181570748 1.538365537201211 -0.8087440989269039 -1.4324469317773265 -0.32249141263756076
P 1.9783545067478288 3.219644436148299 6.130276042660715 -0.6731274060301375 -0.23385288826254566 0.6557508624249029
P 7.075819942534647 3.841276621774202 5.989232966429979 -0.5135040658061285 0.683211786849333 -0.44055724113475736
P 2.2504289710328456 8.546588923253008 10.128771672530267 0.4495995538426838 -0.8178152079902368 -0.3504040798874288
