# total energy = -340877.09867284674 ev
CRYSTAL
PRIMVEC
9.12027314142796 0.00000000000000 0.00000000000000

0.00000000000000 9.12027314142796 0.00000000000000

0.00000000000000 0.00000000000000 13.34844163381548

PRIMCOORD
 96 1
Ni 0.786893495608089 9.447234658315974 6.99978936751582 -1.088641331043022 -2.495333522453748 -0.8185101771747323
Ni -0.12123122720052623 1.5783179427808363 10.00122648157863 2.397892569295754 1.214235863817096 -1.8443317446780558
Ni 2.893069119726201 7.159952303540938 4.060448543354647 -0.5331647774598496 -0.5715806582338866 1.4086359454006578
Ni 1.4730791140678874 4.250785902189089 7.6442515616237685 -0.19407329437176254 1.11425877450081 1.0549781344626217
Ni 3.7888349607609264 7.117077900752172 12.194334722693542 -0.31789865106055576 -0.6081075495153269 1.0071139637914912
Ni 8.69680036555587 5.696814286907586 8.578002427158586 -1.1484603600831833 -0.8289190312128822 0.24996110667831792
Ni 2.4103239561413936 0.4460524817512053 5.230132659938787 -0.06455525817356625 -0.25750446624321455 -0.3597037600217999
Ni 4.531653825669804 3.5587122355607246 9.800131760887274 1.2378488752503454 0.2816430111626311 1.647938543923865
Ni 7.281945073526587 5.272803680642425 13.184161586004732 -3.189505922079643 -0.09809787001570203 0.6448910368922636
Ni 0.8454885127527361 -0.05861690579954878 0.738173909933273 -0.17162576400152377 -0.7745869934292208 -1.4356001326943275
Ni 2.898386238812747 4.295010105363462 11.814198101124326 -0.17652217286187663 0.6954489523454732 -0.06389808420554158
Ni 1.6905793816080905 7.024789859522747 8.320764218671577 -0.25637420929351334 0.4798375267916188 -0.6814387541093102
Ni 7.1239728270462175 3.1581316103132906 10.057102745379025 -0.13351301629020232 -0.39468233297951383 0.15656758411682067
Ni 4.01658641501344 6.179322323397625 2.2202592934659355 -0.7814366693612026 -0.05289684799903147 -1.3710952681427224
Ni 2.915167540904074 8.170177569165967 0.718797890208803 0.7231639017622384 -0.2840138253876528 1.0825858688775614
Ni 5.249063610346922 6.133055179099091 10.827094551293827 1.422702193685737 -0.5214351477277471 0.33302085141397486
Ni 2.300716516720974 -0.19768009052668542 11.416975560349734 0.263389721379398 -0.27065257358939837 -0.03517474812892007
Ni 1.0238235924827288 4.159555812613248 2.4102610262585507 2.2022455026789687 1.0540432813531784 -0.8205318355904514
Ni 8.638576543517264 8.031394376816115 9.282586372090577 0.02708940001762431 0.36995063456078864 -0.5762801205920849
Ni 7.222152564553358 0.9182473136733783 3.5481892647167173 -0.6658527267455951 1.0715674062798708 0.561262307027014
Ni 5.290770618207596 6.46396603984889 4.299693365485145 -1.0275935718020819 -0.7037340751724009 1.3799666024904234
Ni 0.0924248453225603 6.557996053197576 6.535530085022812 0.40841073830919983 1.1087147047541293 -1.014159557784363
Ni 3.74387201548362 8.824830756185246 8.281199562909409 -1.2418471977764614 0.05520055643154364 0.5480568640803336
Ni 1.4619888622510104 4.679593771986881 5.0485808599655275 0.237860466760042 0.43915778968406943 -0.0005301614718571514
P 6.441502807755988 2.946276791683159 2.9133243337558903 0.9493844702905069 -0.5368849066239141 -0.3074262907743222
P 5.70987451766562 7.4177003352817 2.555212259154253 1.5711579473287007 2.3411781473228452 -1.1265720446505243
P 8.723541005627485 5.637897324130427 4.5925444154972705 -0.6723347349255131 1.0783039536727559 -0.40436227927143903
P 2.0821309367085603 7.53649188948797 6.2478046283668425 0.6907759723498362 0.6393796201557311 -1.0728974379452039
P 3.0735137185723485 3.4176672155376937 0.8044527569757154 -0.14303998194403109 2.667813406925451 1.5658833291933227
P 1.5361914023678793 7.083953069667552 12.496731050297397 -1.0565647622234513 0.3863725275622378 -0.2796648043903377
P 2.397281965929112 2.9127233077733803 5.799804056329382 1.572362252049447 -1.170421694845623 1.019392266938212
P 2.5744432665399994 4.3391522260819535 9.673575206354615 -0.9915407919435827 0.6336748564614699 -1.2758073567719899
Ni 3.154036607792092 6.570363143217055 10.017391253223558 -0.2750417037960295 -0.3297046425565483 -0.19904915031979914
Ni 3.721773594305747 1.3645387465739276 1.3980092360005374 0.25424507876565244 -0.6098183615588465 1.535256091225769
Ni 0.24536817333925728 4.796515670253628 13.072715499572569 2.1026738763312176 0.20673443477919878 -0.9739004531540001
Ni 2.7828050206587296 1.978606719296247 10.374208249076844 0.12440899710640511 -0.10357123442544745 -1.1806500574418506
Ni 6.004860623557952 0.48811791633589496 7.4339471893825095 -0.7169855408656685 -0.6430038471718796 -0.46510510567745056
Ni 6.075743384348058 7.813009442806966 8.89422691249661 0.8990965206692323 -2.5179867410768892 -1.6205149004952737
Ni 8.131443770262777 8.312462946300096 2.2015983031349218 -0.6902404115613403 -1.5150081396100104 -0.32328305530092066
Ni 1.2706637778641277 7.037011025176215 2.210034555544964 -0.6292538445756389 -0.18609927502735046 0.17850680739207322
Ni 5.244001858900897 1.815700405190112 11.501724784020087 -0.5573747990471497 0.9282782844395111 0.05256389013964496
Ni 2.2110003924425032 5.6561013887903675 0.5789740747238312 1.5302766357333064 -0.8703670139450237 0.05210186290156188
Ni 7.079164926407799 0.5942751565274289 10.053618801140498 -1.909992320100659 0.38518622056362056 0.3673201389164771
Ni 5.903671196001824 0.26318918653841683 1.3788539268796598 0.23357238090764937 0.3016567352803966 1.3007959083965275
Ni 4.781339536188428 2.6119458286049655 4.620776220184065 1.0165776803075524 0.14010635323700385 -0.20473900161572484
Ni 4.685002093802183 5.070488667440298 13.424794513666916 -0.006560683936653217 -0.6672334091432056 -0.339033633266958
Ni 9.035846509710812 0.30109668871906514 11.84918437990288 0.21760403050385105 -0.5513499330093086 0.46150221881754067
Ni 4.428011044710106 7.925498888456114 6.034216045863036 -1.0936197580942197 0.2514253499286702 0.5211261011277607
Ni 0.8460056322247894 2.45402830376185 0.5213102374397953 0.1379581965457495 0.404132165538504 -0.04741988404486027
Ni 7.616859734068828 5.5658198075936 11.010462197596643 0.4120557912609548 0.416220978382238 -1.3410537274753098
Ni 4.375569475674709 9.022567392403761 3.5882883684694016 0.6466522425577444 0.6829850155505076 -0.3930157439103683
Ni 8.317032203010832 7.392108849592425 12.992451626102495 0.383847704257855 -0.10582866300105646 -0.11881761906155666
Ni 0.6934462676961604 6.321744504624891 10.482210520471135 1.2720682014445317 0.8436272839573342 1.9062724480469109
Ni 7.957875857164924 1.3623863621752574 7.876581392859895 1.4484651615824538 0.7331634361771115 0.480965726858791
Ni 0.5827617240491182 8.029132549142934 4.413221610214837 0.0505651145420613 -0.19836317999636804 0.15926184311953215
Ni 6.06469873389556 6.238348729449294 6.915800774603302 0.5203496279730523 1.859556017826978 -1.3169979720776868
P 5.862082751688534 0.1458140107097456 5.252411662519599 0.2623988182210384 1.708574669548683 -0.24078612504726918
P 5.522434669523795 4.376198774503133 6.0842598951594065 -1.2828372670355777 -1.897233477773094 -0.03994825825816346
P 8.149064137458671 1.1136217992170814 0.9363756800684497 -1.069470671651842 0.09509302175110719 -0.6405839248764774
P 1.027745309819289 2.182691065436264 11.676095281131003 -0.33910948081021597 0.8211740971601407 1.0434169119875836
P 8.589883406633788 5.912052726774611 1.7489527761218577 -0.023038626987018387 -0.30641584723193677 -1.2770165465887426
P 4.9794045022304685 1.4620527041611404 9.257437219635776 -0.02259048370600626 -0.2419878586648542 -0.2280987593875878
P 8.227343439550987 3.5708330782125586 8.205713800398927 0.8396364176303861 -0.22333913321541535 0.3360128441627632
P 4.367972288369233 6.102867075880454 8.222746822021625 -0.5934121522866812 0.6323926473149367 0.7192745940101611
Ni 4.0988512763524465 1.535480021083573 6.639621583407996 -0.544468889618759 -0.822004563481236 -0.7116314756426066
Ni 0.5440890309741969 1.1495647946202991 2.641122493561686 -0.04433533158226558 1.157748984473961 1.1561883248550604
Ni 2.552426927818008 2.2616908690857627 3.577595760549906 -0.1087617774874514 0.5952656605556523 -0.12167385756342916
Ni 3.7967513576170524 3.556523370070552 7.61433797861869 -1.0950891435508947 1.4755221657002457 -0.7322956888601775
Ni 6.800102816956477 0.4573351713257602 12.596816924835565 0.07771982057998228 -0.7315644671211078 -0.39745989572465096
Ni 5.878937015962866 2.828123656578189 0.39937310111868823 -0.451977310046241 0.09028685861171548 0.8315436133199227
Ni 0.5058459027517221 4.024986186331979 10.315542093803765 -0.16202192236317256 -1.1177590743445847 0.07875623226429662
Ni 7.169555950879073 2.196763646483502 5.767927790601449 -1.1931376483859 -0.4827678130645363 -1.3060345310876476
Ni 7.308174978317162 7.738487693139447 4.641146349651989 0.48134187925128713 -0.6395981639244405 0.3754872481083017
Ni 0.27029114302674107 2.809883110826746 6.2484056543493525 -0.17246702895589652 -1.4878007259572827 0.34291754170239647
Ni 8.753528462842857 3.4832784586056333 4.023941003060422 -1.1248242087214821 -1.9230794923019205 -0.2703854359709408
Ni 7.749267855678549 4.661845720970727 6.315240838037213 0.5624437289296248 -0.7518345302240536 2.1133069305650314
Ni 6.7299223171778 4.623440251891064 4.341727791142056 -0.8615324463725291 -0.1877632929933347 -1.4815223491477387
Ni 6.007596705420668 2.9681107249476364 7.8366564863191375 0.9289696540795807 -0.22095829168806463 -0.4498381522160511
Ni 1.891836443156634 1.8896658182122121 8.063179439815292 0.6775121653613945 0.27077110144513367 0.6057699025210858
Ni 5.808400825542037 7.219060792048489 0.3306901501462058 -0.2750244774048489 0.09334724270459409 -0.1900117227078792
Ni 4.892926074822879 8.724024380089897 10.487122699441999 -1.8046382827431762 0.12932803167457727 2.441736305953582
Ni 4.536724697388705 3.774570853983298 2.4598506859657108 -0.4967924094784025 -0.38740071171643603 -0.5444290375197591
Ni 8.068276760325531 3.713127575619563 1.422075812064991 -0.9048557917505126 -1.411837483057091 1.0710850673268135
Ni 7.867174743415876 2.877281927378327 12.387980916527296 0.5328261631735082 -0.5162158083103368 -0.35028863735548704
Ni 6.194097165456294 5.126870194358007 8.945404411711433 0.7071742112022015 0.08071155621845455 -0.07486075386463237
Ni 3.3125834314636324 5.5601652384106535 6.271805538466591 0.873239193286496 1.0135790026905447 0.15294464265225274
Ni 6.417817459097739 5.395936484737539 2.0522292100582202 -0.006287118560292399 0.075003964310716 0.08837010120497683
Ni 2.9659492202760904 2.059713305980037 12.726070344057574 0.39948155414037007 -2.4378382564507564 -2.3075046663298
P 7.030654194981836 7.776409787756697 11.013838522615234 0.19110289888952894 -0.7731345772534105 0.6518373863031096
P 9.178916230312252 1.0391091698224377 4.702202016418506 -0.5107193039721398 0.8537301767192911 1.5519271241235466
P 5.93612112689364 4.1021163340419555 11.722014031005685 -0.3306811475372047 -0.3466870360471578 0.38345741079797185
P 4.457177677366664 -0.024945770369673076 12.881419600058887 1.0556196247013625 1.1945540691174523 -0.3026988033916658
P 2.290811900377941 -0.18514153937714367 2.797686569910044 0.3067503477532201 0.6392814040149699 -0.14955798556820693
P 1.5044437324874933 -0.05250814702739061 9.360621250869825 0.39546523389212535 0.34429822410000704 -0.5658548114937029
P 2.9747594038740375 4.784011776141014 3.548575964286648 -0.4753820621234265 0.5479203385024694 0.07300724559566135
P 7.597169064930145 8.014996126185567 7.093948888739343 0.380684476038525 0.17197106315608446 0.701078896937741
