# total energy = -340865.0015420756 ev
CRYSTAL
PRIMVEC
9.33130204811477 0.00000000000000 0.00000000000000

0.00000000000000 9.33130204811477 0.00000000000000

0.00000000000000 0.00000000000000 13.65730376988443

PRIMCOORD
 96 1
Ni 8.564240859727082 6.957810586794925 6.769214711628597 -2.8210223589826837 0.6223972266651217 0.7064352761536479
Ni 2.17760859151977 3.909824813620558 1.9406345818234154 -0.254948018369948 0.9075274250454048 1.2531482246115773
Ni 6.414999425883325 5.640268088366596 5.468506814898719 -0.7259437785002208 -0.802066172686096 0.7178913405093895
Ni 6.529046597303131 0.65312114593363 0.44749004607870807 -0.44066728435006036 -0.9474867390471617 -0.853712436107478
Ni 5.013941775744369 4.95083418121711 13.640149944910549 -0.5923508009017023 -1.1628086583850554 -0.3753584358399213
Ni 3.1287108656267266 3.543991123920548 10.74278071517319 0.9110503505969988 -0.7542703933590559 -0.495303740748018
Ni 0.7899964142411323 1.931504836076636 4.542815542036274 0.27973036752095054 -0.15575537262817044 -0.4123447832562834
Ni 2.4326703967553285 4.361618456120377 12.71500455320733 -0.6802138805632737 0.8419833205960081 0.8729561148284385
Ni 1.0305769721091245 10.047106033334982 9.026016195834147 1.8119929233360341 -1.2113037777719655 1.033254369632285
Ni 2.9933696633461775 6.0457411483980845 1.5031915484650236 1.3395532316703833 -2.237036899326541 -0.6060396112427047
Ni 7.633518148897892 6.78510685183847 3.8596634673037262 0.6268897152188365 -0.05328328480417275 0.8209743224445086
Ni 1.2011065137305423 6.808239149167033 8.62991362913761 0.7293340351286923 3.0723194108636056 -1.5186974155361392
Ni 2.75492690673594 6.981736044782193 3.461334451981696 0.501432222243259 1.3977401244237604 2.6769683339518413
Ni 2.803300375615033 8.718095364911976 7.705600589560936 0.15905564064599703 -0.5615117040336588 -1.2472902231689036
Ni 0.1443477748426833 4.379403917479086 0.1700200525394737 -1.4466779877750442 0.29560127311493606 2.439779696447843
Ni 4.256006781588437 9.200588990554584 3.487897869006795 -0.08582959417131025 0.7231099085958514 1.7180008479585898
Ni 6.7022728851641435 0.1598713286288059 11.329348216800039 0.6221403734593091 2.398710437211359 2.084282004087591
Ni 8.640738872433642 8.5294537663665 10.452767585664189 0.22055899936711693 -1.4322335302149398 -0.30867841801386836
Ni 1.3373901774996702 8.455456542560325 1.9996886588196017 -0.2519398276712435 -0.652757584124534 -0.6728939498630927
Ni 6.579314320461248 8.255346774020172 2.4821468255151147 -0.5976033075498934 2.016052382386231 -0.18116198562673316
Ni 9.21580834389984 4.97839884693255 8.138810944392407 -0.37661082018978365 -0.7753374984420002 -0.015440502924786312
Ni 8.532841028944262 7.175015300355622 1.6967973996038024 0.36526505615966126 -0.3825816930612379 -0.5903360844645187
Ni 6.50419734043102 2.2172199679456477 7.338724593442369 -0.20190590304230388 0.44574341332138717 -0.010365916615356342
Ni 1.4072722971824496 7.527467903178198 11.026332851269407 2.813155297529781 2.014500721628395 -0.993559107925192
P 6.034524923553819 1.4499256780170051 9.386896830503098 0.05476655421791858 0.32445033613614443 0.1543924308423728
P 2.283556192918926 0.7938091841840331 2.8507575106507765 -0.4728580101499921 1.0161789022072372 2.4758365900714008
P 4.078161499303206 1.2637475431644454 6.792227568293261 -0.055531714518717266 -0.42498226951463586 0.0938313814298642
P 6.732291683270632 7.427427015860922 11.212537113767192 0.04779937887146607 -1.957023453347533 -0.8776321801478691
P 6.648757868956273 8.329679924693563 7.331158773888517 0.36868693735701663 -0.540469795761695 -0.23635380030752842
P 7.192408847035913 1.6204365570346888 2.971802225340728 -2.43326683502999 1.1534968940658263 -1.6771794430668534
P 0.7613483843789209 8.217946916136798 6.949928436107777 1.0019370475762421 3.6996824661744343 0.6908695605049069
P 3.1121664674163427 6.151296835118822 11.551347353260057 -0.43773185587082036 -0.03831175109600498 0.6803712320767443
Ni 4.278765826842315 7.891024755222634 1.664046396310623 0.21784417153911514 0.12320314972376202 -0.8843697559820188
Ni 4.955910409432818 3.434105713133472 9.095080893473368 0.8436020871463534 0.2821423193965528 0.19848222207273558
Ni 7.469613831602122 3.0351832270126926 12.660647853571048 0.23258302041118653 -0.6492475140887464 1.0486071979392715
Ni 6.340395667455787 2.780065433965931 1.179969248741167 0.1844941353237597 1.4610365704895611 0.9149203750753662
Ni 4.307692862630354 4.441214461046817 6.362856111049918 -0.40917178484494054 -0.48281435003175555 -0.21233866833985363
Ni 7.569794688447404 5.357940219075344 12.198156806610774 -1.255029243684374 1.1741505657604359 -1.334493814869605
Ni 2.0631601741196772 4.811928421623326 9.15204569198151 0.7433182652229263 -1.4531319709305037 0.5580491994063551
Ni 5.710934037406212 6.095896895933796 2.031455209765801 0.13613862683850744 0.15830667829511447 -0.9052350294668023
Ni 6.098463003947251 1.032853809764699 5.217896040653771 -1.9031429012789935 3.432198263010689 -0.2337137915815201
Ni 4.272999082288442 6.962373593407941 6.081939134600974 -0.4374055828796531 0.3967592701132005 -0.72975723870904
Ni 4.524123078136081 0.8437185853504526 10.936659040326488 0.2090651397949045 0.8025184297321662 0.26850261712593115
Ni 1.7731153181843269 1.3958414523952412 6.74312999038928 0.1879494408622118 0.7692005323063268 0.004020434013302753
Ni 3.702054046247508 8.224618796971782 9.726991057132873 -1.0926162565303699 -1.4741060020790098 0.6045599413733846
Ni 2.7962645740072327 1.777230422307722 12.69410896893631 -1.4195909017502648 -0.5300419155601517 -0.31900499675085703
Ni 1.4123205314925555 1.9660679781924078 1.1854635192805207 -0.41257643965111523 -1.3667806999277687 -0.9229309040846685
Ni 0.14671699238674227 4.09041349865472 10.764468526972724 0.6690887171843896 0.7003499891915164 -0.237950455370687
Ni 5.38926539944323 6.126223627001901 8.074075037689338 1.047994246945621 0.27820570334630795 -1.0754302316693867
Ni 4.223888440561847 4.9288216401126 3.471604482816636 0.09052931363982474 -0.23353792812528812 0.33590922870536344
Ni -0.05582731281054001 1.352282935279576 11.256608852485549 3.720031205034116 0.3356847713993832 -3.091230131725179
Ni 1.5538763808166 4.202837023549649 6.735262769785121 1.8849513179716308 0.3367173264289556 -0.037381011751619495
Ni 6.3821532433111 8.268597222671467 5.182168352064984 -0.6428806913304541 -2.7381898997664846 0.6014761602417382
Ni 7.785319767672022 2.60967586187252 10.368856786754396 -2.882471210316784 1.3582839753106672 -1.4836926173261804
Ni 1.9389698775703232 8.971001639416233 5.1947058892536315 -0.12159672446859057 0.138531038330084 -1.566963963852011
Ni 0.8430280690122864 5.822452426020033 3.000687270270364 -0.44685644387990786 -1.1168874703729088 -0.15465982557114655
P 8.382401780242729 0.7022644472167598 12.782894439941481 -2.618615090823929 -2.549615423725764 4.8204715855945945
P 5.2607453788275365 3.3400555216148797 4.631642070769658 0.36141740027879693 0.23399969825305508 0.5986548887428593
P 3.6119883206261716 3.244530984401284 0.5669801658775996 1.4005207724926911 -0.6020767699402148 0.34794096305891686
P 1.4730113188362328 2.7773873503300712 8.445540168066147 -0.26936702200875545 0.4881511888636367 0.5171989981592126
P 0.19134954234731155 7.665272569151664 3.814703388647622 0.9619592216317239 2.001941654016462 0.742907660048069
P 7.1089496831364904 4.901602232566243 0.5204235014720324 0.05258291630303847 -0.5834709819135693 2.0414921626155746
P 0.15923306758109562 3.9761237133863676 3.8653443638804226 0.5109082800544943 -0.3049773150131973 1.0018594002607715
P 7.37614218079929 4.427684073339509 7.137565986572353 -0.7923101217405968 0.11095595692529277 0.18443551417168236
Ni 1.573304151303921 6.709075404225266 5.781095163014818 0.5391623898041811 -1.7916866076785143 -0.5799737673935882
Ni 8.891069707622576 5.179367095244478 5.489321216843492 0.2382397044763316 -0.46643976532847414 -0.5080109039020412
Ni 5.904082654753502 8.542554914187921 9.413200837336289 0.874426528726378 -0.8310895565016396 -1.7335951028524208
Ni 3.7535255073464815 0.8928842817580633 1.3373145939545463 -0.31691957497673806 0.8435262396030957 -1.7283109716353462
Ni 8.790860856871692 2.872006751262557 2.3331044727030887 0.04958089625192107 -0.030825212910972722 -1.257950273985911
Ni 2.9297581785180946 7.462251434428972 13.350150812354348 -1.6237575758022873 0.4767596591972435 -0.99742578996945
Ni 4.957478068146492 2.473774781479944 12.595653469806258 1.6385079946385845 1.1386099496516648 0.1699576322704815
Ni 3.3004161512834003 1.5232790419943494 8.92253485751847 0.5961799448398055 0.35576842952313564 -0.35578411325241954
Ni 7.39489809755218 5.404214145034338 9.442126939994141 -2.033903808745355 -0.2201219118296983 1.0969418804889175
Ni 1.1837036357483839 9.262268895896174 12.886184486568885 -0.45393314822103115 -0.2678994363242934 0.4056439741973401
Ni 3.45305758722557 1.951529809883452 4.801662123309132 -0.5809646705519478 -0.18878324961741683 0.7685240750645926
Ni 8.273776095207712 1.0456096994170372 8.833776447288713 -2.315537563936606 -0.2920032713510326 -1.408628232091174
Ni 0.4381036895305831 6.153713642302404 12.381588739323844 0.3487200073167865 -0.07658467853427456 0.8457070493044984
Ni 8.636203859726228 0.6497562784803504 1.6238807405538387 0.3430687225682801 -1.5771627587618837 -1.0381109263936381
Ni 8.2320745071636 0.4380085102515386 6.241305639798769 0.8495978997184723 -0.35566558539668425 3.9149611909792186
Ni 9.025179178056668 2.8471201691829773 6.85540608071471 0.32506662956390464 -1.1412183338087893 2.083589348895941
Ni 4.5802881840742105 2.351217462757334 2.7956095166161616 0.6491037894220305 1.2347280702331767 0.24835005343745611
Ni 7.402073868687986 4.807533378443917 2.750526264775411 0.8991132328397805 -1.5415840903263256 0.008007957906141047
Ni 7.767366342879704 3.0770807723960125 5.105878427390061 -2.177670898663398 -0.4772553678867394 -2.325169430599415
Ni 5.177892749549475 7.112224970091845 12.739559874070627 0.8414068792672477 -0.013229611316396571 -0.572357388498911
Ni 4.69997146182175 5.843942414219984 10.256908225124503 1.0836503055863336 -0.5735917751266444 0.6487260943676375
Ni 7.8111208173345785 7.82312087153568 13.15244758656572 0.026547668581541378 0.6091470465234348 -0.40884962561883137
Ni 8.050562023244597 9.637555194387566 4.167990209857117 2.2641679512153776 -2.0835412692668247 -2.14187240090755
Ni 2.189142080627517 4.265702004228363 4.543607769564791 0.1581801800195792 0.09748620457363211 -0.41286851697023735
P 6.106618561779104 3.92912194588174 11.082424239922785 -0.9569453133569005 0.1241176911182314 -0.3511255314344856
P 3.2432525960454903 6.094543857163065 7.900831953484964 0.3737828638226853 0.5325430847154505 -0.6230865394226623
P 0.5787422718810905 2.940713126910081 12.5008847680439 1.8656994117205545 -0.9273269762698352 -0.21142824071044233
P 4.913014414749718 7.108501780646868 3.8597455827601572 0.5377840213994157 -0.19746560788276313 0.41677582244444344
P 1.072633149624185 6.329916615459023 0.8423851423136427 -0.6730582433550989 0.5874078550741303 -1.0722312651161148
P 2.517659894160958 0.25434796064272486 10.95568369857315 -2.3107146886266654 0.01661138330443591 -0.31271196465329365
P 4.569977095511055 9.03656336633454 13.522764966812877 0.7320064397545328 -0.01899171061115439 -1.7669042585275117
P 9.23488152491621 6.223446461155309 10.172984362392096 -0.5201812207159879 -0.2819726265879079 0.2522301052181527
