# total energy = -340890.3737397988 ev
CRYSTAL
PRIMVEC
9.10195655556564 0.00000000000000 0.00000000000000

0.00000000000000 9.10195655556564 0.00000000000000

0.00000000000000 0.00000000000000 13.32163345893760

PRIMCOORD
 96 1
Ni 6.457246484753393 1.948492228290256 11.411657105025807 -0.25425304918545244 0.4248007496314491 1.391160928544346
Ni 4.674519087603873 0.40377644172248 6.1559535218486765 0.19088615489303257 -0.30958987408454425 -0.6996701895156724
Ni 2.5417486487230527 1.544347157330943 4.504577368641344 1.0804361695244102 0.6916892281927249 2.2458007615621
Ni 3.7054701906002654 4.35354769482181 5.0085745428043875 -0.07928767928773442 -0.2372732267980043 -1.0567665938216122
Ni 5.092153258044329 4.162770687315229 2.7949851018838157 0.9562930244848822 2.2671676572736503 0.7418213689624257
Ni 7.224113622799764 6.157300611405498 2.7445629936546077 0.5014859582993298 -0.6804589066945441 -0.19592705975104965
Ni 4.989592412596612 4.34924246941386 11.639164147651284 -0.0012423570475333442 0.5283023071612256 -0.017802318288743534
Ni 5.899396674969479 7.953480700210299 12.670352101441505 -1.6390906066149318 -0.7947986924904054 -0.22784473439525277
Ni 1.7608735996770333 6.607064688167434 0.1502159589115628 0.6126478605878416 -0.1446518065158412 0.2635146769930365
Ni 2.5340756994230507 1.6029273491397384 0.35024601536047134 -0.04022593739958233 -0.026396230605341638 0.37969100177700416
Ni 0.5111440303793683 9.152927421212672 5.029502671304382 -0.3951153067518744 -0.30486264381220396 -0.5091452746168006
Ni 8.622428990606108 2.405710807397034 1.5224897190758713 0.512313387932137 0.430017260835382 -0.17387136550259089
Ni 6.805815009537363 0.7913413887851333 4.800664012448074 0.9682494255158097 -1.1364404528041716 0.22309436419446096
Ni 0.9191246657930358 7.132429615327732 2.428640456123684 0.3420443950688238 0.6341132295504692 -0.12419251022022482
Ni 7.706490009575826 4.122667467130401 3.773605616306027 0.5512753710176312 -0.8837066684767232 0.05349334393244981
Ni 7.456331838091528 3.932008785057865 12.619330174281254 0.42165757601677706 -0.05817403723757077 0.8043282292473954
Ni 8.008775085735227 8.899765604094922 7.3174669290874785 0.25488348368059977 0.10854349082905825 -0.6754159449539981
Ni 7.035612104409436 0.5583176503462149 0.4967438250560781 -0.49856981309379944 0.7436008294603517 1.2085043606499575
Ni 1.8290654575128777 6.473884861171428 9.05371518554843 0.7228803090835485 0.31203653585282387 -0.042411632196991476
Ni 0.09603747324924548 5.050466297434589 1.4307037696914315 -0.1196275165573617 -1.1289086632035008 0.06113466252779149
Ni 6.721276037890362 1.9165807689239358 6.978830459198125 -0.18624042859090506 0.7554818971686538 0.5476835399013149
Ni 3.491874578235908 4.162169958188538 0.29209543589682424 -0.5522169089952941 0.44821989988633776 -0.6766549595674218
Ni 5.978210515999988 5.751653717629459 4.960176709692997 0.03356806576343251 -0.04584842579268233 -0.38966302538805153
Ni 4.918442418909639 2.9204173435368066 9.556459930501891 1.6121852975836557 -0.458371643608359 -0.013526316621208963
P 0.13940829580501157 5.43185647723138 12.407689662165579 -0.16834066549234877 1.1836790740761616 -0.6054659981274219
P 4.205367843571469 6.219057386020582 12.75231977038714 -1.6559434165062128 -0.04363933395650548 -0.9254184463932126
P 2.3362355736996236 8.438860732619816 1.403993168249217 0.21419474771198596 1.2659736585110197 -0.14364573384883003
P 6.4557810697625255 7.782946443881898 5.9375056564928235 -1.462455562324275 1.3256579617455297 0.5175682085731732
P 4.735929987873287 1.152699072598087 12.79075278156064 0.24122269836405552 0.2710400388358042 -0.21841855598534643
P 4.0416964624176845 6.156800003799923 8.165042025304729 0.9703577301080645 1.935705408596047 0.39594577307296974
P 4.78729232820533 1.0246891568742058 3.620913015040335 -0.7612385971467729 -0.3419135259179144 0.9219577415381218
P 0.2980754212943349 5.68930531584415 3.83723011238773 -0.30699331700196164 -0.6485247769901089 -0.35056940182069946
Ni 1.3600507428274484 1.0394707341733798 2.624295202099863 0.12459488786496604 -0.765383729663398 -1.4946540014336902
Ni 2.2322548230433648 6.382510320219207 4.72619544543396 -1.6355561110991124 0.05429347123624197 0.19179452563991486
Ni 5.972012083647318 5.428579772903978 9.145927106495433 -0.3046279020935786 0.5050916733727172 0.7049574060565408
Ni 8.794810944096907 2.3310019487322435 10.45046137606021 -0.05274155336808982 0.8221377466249906 -0.1513757555032361
Ni 2.5609355729512915 5.047180491150722 6.980429672949027 -1.691082683411507 1.862271359875612 -0.5307433125025505
Ni 0.9594463329330241 -0.149367656569024 9.003759097490232 -0.7899357079711492 0.8095565675258702 0.25396791384486583
Ni 1.4578330611310362 0.8584701381058648 11.34924589974089 -0.5409572769210748 0.35449341946545404 -0.14821175595295766
Ni 4.0742814665624145 7.072101847877655 1.639213208783142 0.6349490951882033 0.26128218811809195 -0.16021315128920796
Ni 5.820901402415245 7.816032055632205 8.33527955785237 -1.2965150216329864 0.3129868155812352 -1.384476831655951
Ni 5.384089409703016 2.6465576774176274 4.9439643048375235 -1.1307667994581623 0.6252686346756458 0.1370040601625963
Ni 0.9930143483759758 7.528337415686212 6.807861129350696 -0.06609663451875714 -0.3089959492542872 0.20546713803100095
Ni 5.036094308176341 4.466393751074986 7.102761788230036 1.4068091766045643 -0.1393242236553407 -0.5107151902070818
Ni 8.295796180902808 7.348855936152708 9.225551021651329 -0.24124172452744905 -0.5117701138341573 0.27749067955715434
Ni 4.58085085362247 0.31838461675470864 10.82533273463676 0.7206645323791524 -0.08596431997696162 -1.623401220904133
Ni 8.272185705832577 7.175782233970568 5.080018529685179 0.617335238761182 -0.3678001638766891 -0.5088076887717238
Ni 7.213346008301659 6.154915898811666 7.161856240579105 0.43373507600660144 -0.7513146531648415 -0.2743811873938952
Ni 2.5601254988259057 5.302017068258033 2.2454280846351717 -0.10406257223956916 -0.512945107978865 1.38391838804932
Ni 2.387907380551477 5.603237215511029 11.318658775040227 -0.13316874557690614 -1.2530111848130807 0.6911595809415
Ni 1.1949048447263322 3.4417501039831055 3.774657802473382 -0.4950800547729861 0.7706807163962792 -1.1491126489552017
Ni 3.4692562164203617 2.7238696956314103 2.643159006873593 -0.670205347287336 -0.9449182069890373 -0.6261160702776055
Ni 1.131573431642802 3.6072418764298924 8.263102863476144 -0.3747056327472708 -0.5172391073685286 -0.06144036669366838
Ni 3.34068197939565 2.8723408094886316 7.183437889553287 1.1847836199942499 -1.3324821837562149 -0.2222250742156302
Ni 4.077703802193258 6.91897053231035 6.198329500562818 0.7347498068276249 1.0848931768544994 -0.621422264346362
Ni 0.9266064740072729 7.532105625662726 11.144172449214718 -0.7795016571220188 -0.29648084750641196 0.4213703837936614
P 0.1935549246197014 5.786168336544772 7.835705024335675 -0.41858819306283396 -0.8218117307441395 0.454124952516863
P 8.78205910308943 1.7632765161837956 8.372247154035003 -0.9409923895720697 -0.6867401117175657 -1.0225038159840003
P 1.795470136200531 3.5710251916556235 10.472522698140097 -0.17488926524414397 -0.4388718830125345 -0.396012364644847
P 4.150282803045237 6.20100820635047 3.827504671904869 0.20691312644890816 -0.004537739969353476 -1.1192418295376982
P 6.845472233855405 3.985673920375556 10.459014484550378 0.38784165590859654 -0.5085611199785564 -0.18798235098267624
P 6.481712543731335 8.100486399076654 10.28278240347488 -0.060178983482741526 -0.7978004554312067 1.7262129514557367
P 2.4660749826729713 8.873042259913657 5.873467931587609 1.1870641884983104 -1.2914944284899434 -0.6294970709346965
P 7.064701957271604 4.070941048539757 1.691513960826728 -0.10829409382241348 -0.3924688702679628 -0.46488296236431553
Ni 5.4092290134593695 2.9102686620783222 0.592603810154256 0.1179652983635904 -0.4343763091350261 -0.9082558185709971
Ni 1.2945075543229212 1.1963884636301285 6.983906620318661 -0.12114292476062363 1.624686772484776 0.40609366014024906
Ni 6.879295104079378 0.9559329777375306 9.369597674470908 -0.5121673492725759 -0.1600264891996986 -1.0325393458431313
Ni 2.7514031139380615 1.8708161318178724 9.171624660183092 -0.482983014399136 -1.3245732133217833 0.6919429960747439
Ni 6.322683160374705 2.019396469152673 2.5393830502377974 1.6560516599493025 -0.15534245346046793 0.5759433060779565
Ni 4.309357696184192 6.892320003780805 10.550160566395327 1.0466441606756296 0.1684568793552389 -0.30128238266011337
Ni 8.25846905743981 7.0515041203973405 0.25415028958984975 -0.5061352841458832 -0.4345316037659677 0.23657208696592158
Ni 7.829193484680607 3.977218202819563 8.278395970728653 -1.0108338358452396 -0.9641467162013461 -1.03644716553797
Ni 3.013548562086775 8.571530850053781 12.48434178853565 0.7083638606349285 -0.9673991617003728 0.7911353847062053
Ni 9.02493570940172 4.932286494692917 10.034986189693253 0.5525935756084225 0.7749142948616525 1.573010170046091
Ni 8.601949588559838 2.498113869429802 5.425834622834132 0.5205607155425938 -1.3724962622553072 0.6235663072725584
Ni 3.3686886994384815 2.379114890606279 11.433718427105694 0.3928740761261814 0.8107266765745714 0.8721837554387882
Ni 0.769047056619741 3.2736187641614665 12.482556894872863 1.4712932152205629 0.6389649012158156 0.5131906483307678
Ni 3.1017647241456388 8.644901721118215 7.974010163017128 1.4794821787892585 -0.16846073600998085 0.0023751851003959096
Ni 5.834436011678713 8.008483823128348 3.7011358389316285 -1.1941444923838596 -0.3884360949594859 -0.36714581812214186
Ni 3.2727358743843604 8.486327435584835 3.8479667802338544 0.42880781390831313 -0.8197617901936463 -1.0204327923875844
Ni 3.392262766682854 4.557176664856983 9.23531560054699 -0.5277315222594202 -0.9655744497868081 1.4032191452604608
Ni 7.14087623092726 6.129293891362667 11.416040607259355 0.16192139222956628 0.13484407639680004 -0.340743159758897
Ni 0.4170561962049276 -0.1322605293930403 0.2666281617077301 1.395702010947809 0.5062846652395538 0.8465976794395677
Ni 4.595432187879414 0.436983109493771 1.4906638181003222 -0.27723665456481933 -0.6061907921085882 0.15840052356050138
Ni 5.7509164591557935 5.49356774206414 0.6655896684602205 0.9035411867041471 0.44303732724413375 -0.10862576613021939
Ni 7.944742822003891 8.89278440348626 11.750826039368361 0.2916510302179364 -1.0632473164499494 -1.9704615811303097
Ni 0.010575563216693519 4.703545226770786 5.839165388257931 0.5966730824261401 1.3591686919084658 0.8367855784451526
Ni 8.203620667781667 8.429622246807831 2.8814163702798914 -0.639577337988834 0.7053955220352239 -0.4257458871535378
P 8.585966553007284 1.2795712437638425 3.6174497206054 -0.9165080312774604 1.6957602913928345 -0.9759740478535773
P 1.7444445682576926 3.430263434924265 1.3873811875049298 -0.4779601072632478 -0.6750644751518503 0.3655224235861059
P 4.828860963381024 1.3941375697889058 8.064583731800427 0.12770720824170265 -0.7225707482629298 0.4677001200981365
P 8.575080613075134 1.5860159140277525 12.626044687565491 -0.3343637385951145 0.7740113234314089 0.010035272748814975
P 6.499151892318292 7.676799427586968 1.4902642422115082 -0.6349552658357902 0.7624331316755062 -0.2699604326183802
P 1.8517202271542843 3.2938524133831804 5.8104833030453955 -1.0900335834048582 -0.5439204733144568 -0.19738590368476328
P 6.896461393972383 3.94217567042928 5.814773055127355 0.28867549252938024 0.04789605235033042 1.6574665380189584
P 2.735674933166527 8.37528356671173 10.131528821526306 -1.110727107198468 0.504027493774261 1.053919354180804
