# total energy = -340890.20796655165 ev
CRYSTAL
PRIMVEC
9.08320139842477 0.00000000000000 0.00000000000000

0.00000000000000 9.08320139842477 0.00000000000000

0.00000000000000 0.00000000000000 13.29418339066744

PRIMCOORD
 96 1
Ni 6.87422129329227 2.4442894876955914 11.411368482857409 0.17220863308818726 -0.39657286513400736 0.24131962895323603
Ni 4.780243632694248 0.6484206793022209 6.010845745334289 0.3426771435568162 0.943944016001226 0.047097467708435016
Ni 2.945391540676604 1.8885338120930095 4.630988467841725 -0.0038473987705482126 -0.406763432513764 1.4666459462565389
Ni 3.3942379361967734 4.355258807163585 4.624780099707797 -1.4712057977130792 0.244164811711515 -0.21448785347237256
Ni 3.710524090975845 2.6668551707762496 2.565697373799036 -1.223623475679583 0.3020236317015121 -1.6453723258585857
Ni 5.156106505235472 4.472877181656971 2.475522983914061 0.47697537475247537 0.8381456920174727 -0.2084213355633185
Ni 5.4904682307336605 3.198086202689578 0.06466421884746817 2.833365711039385 -2.3446234255589684 0.8959299500157926
Ni 5.837055945271009 8.04628126480579 12.474530861509413 0.2177330998825476 0.17335405954654015 -0.3427648181746161
Ni 2.294480247559719 7.015328826519141 0.21237887274825148 -0.05349000149834013 -1.6903427199216887 -0.769752805265371
Ni 0.8480213043682348 -0.06951918997780371 13.492532471287864 -0.6072889102687734 0.6237719955254611 -0.34354669064596316
Ni 8.481402943061344 0.19662405997824775 6.547226044102223 -1.001962501497539 -1.008721160377611 0.8085265835994592
Ni 9.016176423507565 2.449875656535921 1.0891276180779683 -0.23415242178083545 1.0943604929149862 -0.08149805667549191
Ni 7.007698937371373 1.0644149521204307 4.723516315200731 -0.5376868336999192 -0.3611721170372102 -0.43350547649429855
Ni 1.0385278282262187 7.691673083461919 2.353110495739494 0.34344693184330527 -0.7146224399501305 -0.007377266300677618
Ni 7.916673064508769 3.9281394293118206 3.832991986678747 0.3187134336523672 0.08248330340689665 -1.0289845386123375
Ni 7.705552215149763 4.559167594637677 12.676974528603106 1.2658613013028714 -1.3917435405206935 0.7895783246317306
Ni 8.52182318914178 7.224669368410335 9.165142742556638 -0.20462073087030566 0.7138999599618092 0.8548786885014374
Ni 7.104425948722063 0.8990888790903534 0.2330894801837577 0.23790623239631284 0.4200794328963798 -0.00782309558884459
Ni 1.9318788490134233 6.582777694250276 9.177214317172568 0.9256254201976962 0.43353195885685974 -1.0028634160452534
Ni 0.25366928951958784 5.311619995829439 1.420350189183932 0.6171190089853178 -0.7308823534524187 -1.4637040900193954
Ni 6.482262987929802 2.187698132296436 6.93201225366579 0.1938660634569629 -0.7449907678293428 0.7925960284121317
Ni 3.845618544898166 4.443474858833966 0.10543053489996385 -3.33756161207071 2.299412890460601 0.47938809795902604
Ni 6.199548345400909 5.554713713998138 4.765832225406333 0.690009783607773 2.3970757298214136 -0.03149549950511995
Ni 5.694467850221417 2.897196074226538 9.366550016374426 1.23874516181237 -0.8333387575471325 0.03210947894003502
P 0.5028814521286881 5.949478728582821 12.222911650538219 -0.27889810142764226 -1.06033708478169 2.73266665595541
P 4.429232399091466 6.335196874606579 12.196389610868497 0.23001834500780388 0.7052343138670112 0.9249695317812522
P 2.810324336358382 8.720100391768712 1.3610450591426342 -0.567062715758875 0.5107427010109075 -1.185243590349804
P 6.645724279719359 8.14202729040891 5.893351810699623 -0.5221419439867846 1.0477929295680923 -0.5610332217353434
P 4.98284443917158 1.1477079086502284 12.588621320592093 0.45281883211092977 0.3835479136292491 -1.1434852754660954
P 4.366912554516663 6.157947283142842 7.677058212463397 -0.9448048213396244 1.9957141850495115 1.0415130100966514
P 5.066991216629818 1.5212000656348255 3.715884088102152 0.004778652335565964 -1.1686856859911225 0.5840808475834263
P 0.4578051570278403 5.775453673604152 3.518279042376334 -0.08447282303309968 0.35392469144617755 0.763426091716395
Ni 0.8572244039926613 0.27567425314980465 4.50006774494726 -0.40403626339058807 -0.40348758997596956 -0.10534478138610245
Ni 2.129492977940608 6.932144868405739 4.491094450317403 0.22922335991033427 -0.35982871563543833 -0.04767390903719532
Ni 6.061874262290532 5.890973828581902 9.043687623806088 1.7360042265145457 -0.1273541957776581 -0.09202029636305442
Ni 9.065743453363956 2.6591980320243827 10.172416183201243 0.203445736725598 -0.2309827658036022 -0.3834360706417332
Ni 2.584515950389923 5.594107558324173 6.596813057001622 0.19178089879316004 -0.7219657676890793 0.6189434637885662
Ni 0.778139694655912 0.10650598594174443 8.776567021383013 -0.8914346332486003 -0.7940325037483422 0.17640904432278007
Ni 1.8106726099803132 1.0790570727230515 11.412671013933348 -0.522338633378623 0.17787740133819044 -0.9493173644979973
Ni 4.402028210999128 7.183495216616488 1.6868059012669874 0.5129098838655554 0.32919119325523954 0.343802258300195
Ni 5.829426056123243 8.110281501633375 7.90317906055886 -1.0548660343647898 0.6511655570470657 0.22893539635627022
Ni 5.431136759408401 3.4442682093228503 4.708414584608971 0.6122534533629004 -2.5984126477341247 0.3491694361493793
Ni 1.159997480098954 7.471986775214407 6.693674499732532 -0.9434110263158914 1.2227307886619845 -0.08215394509193594
Ni 5.530670479981303 4.6107874280028724 6.932079469355902 0.7875373829423018 -0.13035158784308518 0.3018526533412866
Ni 0.929602077440468 7.704062570125674 11.332679801100232 0.22435163364032973 1.2682647685380415 -0.6725735904091966
Ni 4.783395503568385 0.5965446996584934 10.301835452909845 0.4486251057445564 0.27311080532190385 0.07198471786841797
Ni 8.249499728976037 7.463012572264413 4.619236621913889 0.9665735804752836 -0.4950147487526894 0.036334572764976134
Ni 7.578923304900918 6.656751286178157 7.063186397878377 0.5577540367634395 -1.528018178716433 -0.6915778994258412
Ni 2.6325388360140276 5.749393968883979 2.3615787643733794 -0.6594799904500319 -1.7470663978659784 0.05941665139542026
Ni 2.7530910845487577 5.658035129540826 11.168842464774107 -0.9889223804841291 -1.0377599708121223 0.5350612231516141
Ni 1.2887246098634357 3.2399234281831713 3.4924745756145565 -0.14307366339544392 1.2859943246073207 -0.27453905312799814
Ni 1.5578507831482096 1.1782365484426658 2.255251717498553 -0.21293876381769777 -0.4738851658629258 1.4797040649920772
Ni 1.4409772311668676 3.9660345454124006 8.21307972477736 -0.19233008642841068 -0.718390134522679 -0.4974665527272916
Ni 3.888554837757092 3.059848961094486 7.034271842968748 -1.2722479215555056 -1.1516199887580876 -0.32242687794821245
Ni 4.232081513433968 7.494331450575726 5.869142354097783 1.3603244027794639 -2.6550666487827437 -0.8944487374845758
Ni 8.004970864991447 7.586880189297876 0.0616731206375159 0.9649355306512284 -1.1742192142148422 0.548251753699959
P 0.4497874151817277 5.810769160516677 7.861156537757393 -1.0373647922562328 0.1699594320426944 -0.5441251331260952
P 8.827872575980932 1.8387487854038254 8.06236398114512 -0.8013097541360458 0.5153110371078803 -0.307519878929393
P 2.3028367928167977 3.6427179927757423 10.153552190603524 -0.05158507116614342 0.47616033505034766 1.4093550829548696
P 4.3022038279825 6.129208034019583 3.805832306273104 -0.06223098091576379 1.1013757478905548 -0.23469492454786675
P 7.27873258294309 4.405198248275998 10.182440404229192 0.4143975520202541 -1.3314653124559264 0.4240718418852245
P 6.559506532349584 7.7825505131326524 10.073534636486448 -0.5273314586075241 2.1781982319217774 -0.2809385288964387
P 2.674839304777307 8.841633626051012 5.539512976511484 -0.5655156829867293 0.8854038536734881 0.47850929489849847
P 7.182450648459354 4.175811080969181 1.52488239546876 -0.38142032576328505 -0.12908531953615188 -0.4022436902665395
Ni 2.5172094282649717 1.7255085139690391 0.26011836248972486 1.6121030222824946 0.6092799725568733 -0.1070566218708866
Ni 1.5743277104268414 1.2721477673697736 6.784061436529481 1.039680327763287 0.6809906108282981 0.11099169525923466
Ni 7.1595609810160505 0.801802342535495 9.166020179808632 0.17632805457319956 -0.22865617455295456 -0.1396093589959273
Ni 2.512831325206372 1.8036603785254601 9.06947755744568 1.1046199658594655 -0.5578347694027039 -0.04783563142604019
Ni 6.71620083912118 2.1194832900348457 2.417919137488688 0.3883548480995892 0.8636016701967321 -0.4589272590015129
Ni 4.322259536599489 7.270721199337933 9.92776378767807 -0.28970753333832044 -0.2091283889326721 0.14025059212435198
Ni 7.466700352019168 6.2947584621234105 11.256464475075127 0.10962335415679829 0.7961963441688804 0.11625782875418043
Ni 7.830682397173154 4.001386365130391 8.09062727051678 0.9421558137525516 0.029831224428819594 0.08466128489482193
Ni 3.5823510364947135 8.51956147200155 12.03661973211424 -1.339548346574377 -0.038759637266700994 0.534249525883596
Ni 0.3469228846677691 5.086411101151161 10.301689213367846 0.23984253018707727 -0.6017083308572024 -0.9429387146651632
Ni 8.790358954337739 2.3598883805990942 5.620102772314644 1.0751718358016775 1.0695537182839516 0.02737273558599802
Ni 3.7520343212202483 2.702125241681942 11.540374466903838 0.3231035923002629 0.21638481338476928 -0.4360012463329588
Ni 1.3332322965587473 3.736738210119247 12.445402851367673 -0.5283159340079804 -0.056395348070593196 -1.2309169240172027
Ni 3.2189866490336416 8.460148251863991 7.855759299505484 -0.0387642652523913 0.7176869378080671 0.18736220090017408
Ni 5.86780258189624 8.079716529035473 3.8429226507326213 -0.5627136947615599 -0.5568245829706346 -0.6647396961870745
Ni 3.4870591709599146 8.983685812219989 3.3314294153884587 0.3944141669197917 -0.2188178483062941 1.2951489945233954
Ni 4.196384532064055 4.451322744814528 9.047742364896044 -3.074590980506602 0.9519581445549541 0.3251509617475949
Ni 5.421808311605117 4.60015099920283 11.20601274140565 -0.6100333057831301 0.36386920425339914 0.7191887191645743
Ni 8.206808682554003 8.844322253655463 2.552456791167249 -1.0821654935106912 0.7750076259064071 -0.3625134615564531
Ni 4.982045117451338 0.6411314102056929 1.3986813040042716 -1.0215257683414471 -0.25727872338565366 0.5747253745104554
Ni 5.929314021549434 5.814693103506958 0.44790355921833835 0.5885800210053606 0.3260277079255933 -0.23658417115077962
Ni 7.999112200110126 0.09059948370892199 11.417190814933264 0.1863371020697694 -0.5721216183390211 -0.7437334983834739
Ni 0.23312127138854005 4.970454952507824 5.704587444863712 -0.16899603968816054 0.17427862824333856 -0.007977104668205616
Ni 7.45325721399691 6.133458972259053 2.6261460788923623 -0.6714826713378629 0.5218956323039333 -0.05561501826114293
P 8.705022277500504 1.7395057272746466 3.3345004457704355 0.13854260829430978 0.4466546122817469 0.3322484920243246
P 1.9433327659364414 3.7843523516818642 1.1860326601754385 1.017174690461603 -0.3250985112431046 1.5712047414062358
P 4.706070210336305 1.358901423620166 8.286264894826639 -0.20501051010955662 -0.5651739833765944 -1.7408890654106726
P 8.998945590515524 1.810336531529757 12.280900624701527 -0.6609072098148617 -0.16370239538938905 0.3172931562660729
P 6.447928486764847 8.033519366886013 1.5129706851968758 0.42849696753611366 -0.6028537573155553 -0.12763444602223825
P 1.8119351749702415 3.392176049486603 6.073819580407472 1.196540760530178 -0.24072956077772092 -1.4351247357198058
P 7.283092519598957 3.9130068158354145 5.929046067109126 -0.12234568681947315 0.9810404066328909 -0.7880706297379524
P 2.4207276633511756 8.58938404090499 9.947279954133897 1.4277086457613928 0.23367985301979108 0.9273945962829769
