# total energy = -340865.3830191463 ev
CRYSTAL
PRIMVEC
9.32680863811905 0.00000000000000 0.00000000000000
0.00000000000000 9.32680863811905 0.00000000000000
0.00000000000000 0.00000000000000 13.65072721015424
PRIMCOORD
 96 1
Ni 0.862121689745297 2.581017077171215 2.205220371434993 0.8195861838477304 0.299216244159704 1.101510473696206
Ni 2.079505250680603 4.57551779405785 1.2634169575771217 0.930195813177198 -0.1380435571707042 0.5843628976002194
Ni 3.384297796672998 8.3664551199039 12.366767174494809 1.3614196927261715 1.2855590368421153 0.07797898777863989
Ni 2.701304927987629 6.610795318246135 0.008409050654887118 -0.6559084710486898 0.06616708274537636 0.7144517187002212
Ni 5.120361973412931 9.171228128785433 9.794382991385444 0.054761412011596004 -0.8492569714392857 -2.3998471219189637
Ni 7.727979108778176 8.591678894542559 8.768804317110172 -1.014472975259724 -1.11973316735182 0.9500791823646864
Ni 2.4337560958158324 7.27967672548425 2.4558615649342306 -0.2887454265353672 0.41004004638250674 -1.0696421642326999
Ni 3.706706917167827 3.581429223737876 10.27203590873645 0.20311946373443085 -0.17146661271584016 -0.5858569656472427
Ni 2.7651749134408976 7.482488179000798 9.894251660082576 3.7731463396915403 -0.1302590281292789 -1.4056017865600243
Ni 6.216178045388688 6.069803110852532 7.097531614515504 -1.9921269819188852 0.9295836335144958 0.6026416413047492
Ni 8.992246671301755 5.0703422987654605 9.720027807677711 -0.6145358216391739 1.2810986870779162 0.7066728460857506
Ni 0.5570249914172841 3.2373072927676954 8.639627084994766 -0.6201539391568998 -0.7113514825083427 0.8518208755117201
Ni 4.333188652403816 8.954911456382154 3.480648393157372 -1.1850610420253527 -0.7722082087843992 -1.6081036713151142
Ni 1.9371128634266528 2.8225068060491396 11.677213828623717 -0.5937721067292612 0.20989612033663205 -1.04968783259796
Ni 3.0965004629797286 0.885875205947456 10.564256947759816 0.20282147287803778 0.3106913346788391 -0.11163267127734322
Ni 8.594579532024445 1.3643628726702608 4.527508979349592 -0.18132833600126838 0.11575980607183933 -0.9017444998150405
Ni 5.49985116268317 8.524917598416026 7.426964754584641 1.0882659499814742 0.7042074152643937 1.4969535961011444
Ni 2.6733431557345773 4.86078756261417 8.441323278085921 -0.18258123457176295 0.7433378056069521 -0.38580457087390974
Ni 5.336137690916051 2.282829678671441 13.097408843075572 -0.370997073547432 0.8935974452278739 0.4574532455591477
Ni 6.178264568334433 2.4974022378621386 4.442820624367958 0.6636446633506828 1.2165290307266468 0.33976922588140196
Ni -0.20916301018910663 4.197847332469181 12.06744750142815 0.29070023626889285 0.437917232408749 -0.6660566152262851
Ni 1.936749117890339 9.207658643268562 0.6976434196710576 1.3499350891253397 0.6166268998402477 0.1437218385024041
Ni 9.159812115030352 5.183485814176325 2.0948403894192515 -0.4793179068427229 -1.2945165031457189 0.5254265282753273
Ni 1.9380548710976198 7.2820084276401085 7.434295626162658 0.8954324415540836 -1.799869657709939 1.0355426514458295
P 6.099107943547358 4.419200481529114 13.977661848784823 -1.3291114675117688 0.6352547993540802 -0.9603435404051721
P 1.5502741489611493 -0.3193480619046184 11.53824997621974 -1.5905666908726155 1.4022320987568433 0.05091452746168006
P 3.9405300093572904 6.734972448258521 8.160527579626262 1.6628573700172264 0.4176155447369194 -0.8622531265886376
P 3.3304634572985434 6.758345430668844 4.26086951101858 0.006892870465091355 -1.5699641841309155 0.08940779844087182
P 8.075710514685625 8.735544917559011 5.163646759553421 -0.6522001689591671 1.3499643997013784 -0.7346605895479282
P 7.763794053892158 8.868162809375605 0.3183006612962069 -2.1324325956508887 -0.3325128014293047 -1.400240522248111
P 0.642774737220264 5.547417886662678 13.806208991221979 -0.9311237243081061 1.0113218312252519 -1.84438393807223
P 7.404506732100276 6.256870911412726 2.81405671743631 -0.8648103457928527 -2.1649894465409876 0.35945179191199383
Ni 7.9207922234504045 6.823661071458744 5.852680602184187 1.0509206765637964 -1.1875020473666775 0.845268419105183
Ni 8.259346049672397 4.764973257625643 4.532136941788539 0.9673971048178437 0.014821895504180924 -0.8796934335522721
Ni 0.30661417009104547 1.1406407142199755 10.467513692632394 -0.04978529895324329 0.8001594425816865 0.16081864608369079
Ni 5.791332585782695 6.520315947790212 9.986967599246398 -0.4415571431541815 0.09888051381799745 0.028022967575487223
Ni 4.3001717498768635 7.741316445109686 5.7837452269675325 0.20955159251301975 -0.5132703525287677 -0.025653953122678395
Ni 5.541112964033237 0.38526901257417995 0.8086454998219821 0.8205110096548449 -0.5351784654557686 -0.7258877284513047
Ni 2.865792524870492 5.658966517798936 6.1815270859909095 1.5010586194084534 -1.0384582824307276 -1.3021879036480477
Ni 6.275170109931901 7.6400366302678275 1.5818323386193969 1.2406002127432376 -1.2918942350315232 -0.1966621381448613
Ni 6.905270646913783 0.14626021479008797 3.044794501333141 0.49205515190373317 1.0464551845932752 0.058700599165002136
Ni 2.0965080228011215 8.633929337606709 5.2766886127502906 -0.6668703693768321 -0.05286033833414122 -1.4806975392535984
Ni 0.7322309567701962 4.656558434186858 6.818156389009194 0.14934766932961377 0.9753952925319717 -0.6621338831331113
Ni 4.5623763207074335 4.225436032377296 7.0833893745997925 1.1742598376447906 -0.25923790399455354 0.21284311878009798
Ni 7.7045781459419835 0.685008392028893 7.033087097651031 -0.762678672027409 0.2826799370675777 -2.019440582132174
Ni 6.439844242987233 7.532274683432684 12.507314719003045 -2.43361547661866 1.519800161682015 -0.9909669217179835
Ni 7.798676318143799 6.050011622953607 -0.2365325300945705 0.8012945846273942 -0.9378075640861849 0.34351378052549875
Ni 7.224583266945631 0.47760535062702814 10.758943818284493 -1.2056388661767043 1.0230728011135928 -0.18358627879750963
Ni 2.931052204808652 -0.09991157201680044 8.05850162009453 1.0877581571071202 1.5068801111862369 -0.27292440034271065
Ni 8.547040788470808 8.288856072156937 11.609315594525988 2.12061374863909 0.23188522301321354 0.6160689704542487
Ni 0.5201421267159186 2.329006708166057 13.511735527916057 1.0538805305230687 -0.8583985287292378 0.6143131641054066
Ni 4.597715598581621 5.5504584262739165 1.6304977606547453 0.22456400676145197 1.4516420166485386 -0.7672724620456787
Ni 0.7886758698783498 8.444399259569929 9.091371060670738 -0.4690224384539858 0.7603669931750969 2.193341001100487
Ni 0.1272008813681028 8.444884253618348 6.9705256634476305 -1.209351539141601 1.326499998030851 -2.0939457524296
Ni 5.727602502458778 2.524916323301266 10.839305466745714 -0.6926929868668908 -1.562298954276174 -1.889493428816359
Ni 8.05735535531471 3.67074274311587 0.46114633144925604 0.06952160103990608 0.5516229841650371 0.14025084923466816
P 1.7082423066162327 4.547602655847916 10.266834347567164 -0.3923554846185501 -0.2513862691606187 1.4224587102163633
P 9.251634545928049 6.445235138371577 7.980788785282362 -0.47444540924177 0.30080904256812063 -0.5405003918893142
P 5.568794932027585 4.339316365669411 9.268775354816194 0.1825938329772533 0.5652889116879039 0.1982688205103489
P 6.694093046062014 4.32819880979028 5.871164471514107 -0.9138317699968779 -0.7016674224513593 0.146974798222063
P 0.9702585742871029 1.2152924904419327 8.043363277017836 -1.5199338590464018 -1.732897562564764 0.8206596194175674
P 2.621896479367721 2.846346128890634 13.669975095702084 0.8134913838039022 -1.2689885340779434 1.486801595268807
P 7.819447120948183 2.8507204021350243 10.760676739326724 1.7483303521800662 0.10874095155184497 1.6707663404516582
P 4.178111805421997 6.476563888537688 11.773056114038113 0.3473066719090277 -0.9292383343599352 -0.575874143402918
Ni 6.329181658670201 7.499323068566095 4.156386870095435 -0.6468209069251247 -0.5561398981987842 0.6404504846224066
Ni 7.464478111548949 4.3230597382387685 7.99438447421274 -0.19837757817407126 -0.26941998673387796 0.5593748601963141
Ni 7.902343795993255 1.4857139796697465 12.8709296799962 -1.1362460774051788 -0.3184354974006322 -0.2991905331280912
Ni 5.665448649792221 0.39298881207179537 5.103555996954367 0.7663743757114414 -0.9499004906949768 1.3974403337951546
Ni 3.5233232060138895 4.580750133695596 12.872294192097806 1.566456170977657 -0.3739250458275044 -1.0418428826322443
Ni 9.073119428875541 7.4642169609074935 2.5931055538280465 1.0337187108632133 1.102563597551069 1.0416045413691934
Ni 0.2931649120560552 7.890069715844818 0.26293392726492204 -0.04176499975192807 -3.601990316237584 -1.8814273639787726
Ni 7.921305197924694 2.1783507684717454 2.1194668949085638 -0.9723161393860159 -0.4372505453590277 0.5278197110978523
Ni 2.621831191707357 2.4909667399119697 7.768137548668092 2.0889575551863895 0.3120913003501593 -0.27514146259868744
Ni 5.116398079747972 1.7931162650894723 6.866179193930388 0.09259468080928569 0.26134826546933704 0.3021506441976796
Ni 1.014365052267317 6.733769289946097 5.366742680732984 -1.9332435773191157 -1.2874518829894537 -1.1891264703439777
Ni 4.775475244135629 4.702698156446981 4.5304441260233865 0.19129881695041892 0.8052039469841292 0.19084193191865842
Ni 1.355940764483301 6.99405253820024 11.353609943944226 -2.7857193128060156 -2.9237299598562547 2.2640766770531524
Ni 1.278248448650105 1.485163697960964 5.86091244347523 0.025778394515684637 0.04589753386306289 0.5954775194561421
Ni 1.7718045073849278 5.2319665654009295 3.6378918577824146 0.1342925747687042 -1.3144371533290458 0.5444773742591913
Ni 3.2005876472172403 3.0309796324001126 5.30299394379182 0.26401629921980335 1.519908405125105 1.3662425680361114
Ni 9.130908335106332 0.27571352044074987 1.6623581389123918 0.9331626091150058 2.206842892241664 1.8217260914633981
Ni 7.591238767550026 2.077145568098875 8.87751853110577 -0.13480242452558722 -0.2845275317992777 -0.96793395115792
Ni 3.5353547891381174 1.3423329507017123 1.3990082359828648 -0.032587961238350324 1.2728739851752788 0.142935852265999
Ni 2.731104081539497 1.6905959847006975 3.668851266327038 -0.3653018229348676 -1.2683984659024283 -0.4467492288780822
Ni 6.3943387437135035 4.5001851608063825 11.767691333717915 0.33223743628073105 1.6237930570259131 0.5597589830086103
Ni 8.504920920727386 2.9347736014494017 6.398013506311136 -0.4066197078470481 -0.09646676217018225 -0.6016605083384026
Ni 3.8961064198838793 3.6222526650826423 2.501059279523387 -0.47823624374276996 -1.6818367393332068 1.016676667779262
Ni 6.369977119589096 3.9528880307833387 2.393108931154049 0.5285025960974898 1.2995782339393425 0.7050707917059534
P 5.508319904913246 1.9472790848261947 2.440900431221382 -0.19266124451558433 -0.6143075076784517 -0.15881729938294584
P 4.235350429944005 7.849059738327582 1.1518524708662041 -1.4640915552658011 0.32372039994865537 -0.13911596429927653
P 1.0257810660223992 3.2892296363743463 4.616293668678637 -0.6192820780749076 0.3260832437538771 -0.4535233143771221
P 5.21865720949529 0.1777195402769272 11.784304245237973 0.4853448297630931 1.4957194665837272 2.4476225895310297
P 3.479328649737156 0.6543978061267862 5.839671569516224 2.1347638148872266 1.871934851107305 0.25074015093618757
P 4.508560634950225 1.7635223013273196 8.884302851698454 -0.6087480113128032 0.005226281395945837 1.0693431449350421
P 7.782363729861414 6.4587123768324375 10.970365781522192 -0.21911223961826135 -0.9622680111213944 0.5361171752199542
P 1.6917898162044969 -0.033405830446549684 3.019977728947911 -0.788375819683197 -0.2586614626657932 -0.9798684978119769
