# total energy = -340863.9736689215 ev
CRYSTAL
PRIMVEC
9.34586562516535 0.00000000000000 0.00000000000000
0.00000000000000 9.34586562516535 0.00000000000000
0.00000000000000 0.00000000000000 13.67861903700705
PRIMCOORD
 96 1
Ni 3.383203257807773 8.869095377939136 9.32367453036584 -1.8689408014759876 1.7807640472287394 -0.049798668689681976
Ni 8.881824446550004 2.102184185594525 8.999874875584112 0.4775770128922162 -0.22193531088935325 -0.494260129974852
Ni 7.397093547236104 7.699581825253249 11.693672898931121 -0.41888592680891085 -0.7638243555960781 -1.5608622218296473
Ni 8.291838658542023 9.355771970334391 10.303310005846674 0.4050749890677475 -0.00019463250930934223 -0.3195958362573205
Ni 6.525722445178188 0.6674947877270498 8.762235688078782 0.4714289910129493 0.8452108263943703 0.016842011258003255
Ni 6.450918138892295 2.0704923561822977 5.00083423161526 -0.8689019993637228 -0.8727964493221226 -0.1449171443620859
Ni 2.3853919433883064 6.029316806950399 6.687326475930627 -1.254915343814329 -1.1415140106723374 1.3228947971780958
Ni 6.672218884587405 6.373347456461895 9.668376213009687 0.3553729938569299 0.8491240454058473 0.5692031591406455
Ni 7.041548791609636 5.655276583790226 3.0918328212146284 -0.9019890117256788 1.2391547385459627 -1.8654034777466904
Ni 6.5123017825311935 3.2635294519618374 2.301605325911587 0.6942580173611655 0.4115914500300266 0.22523737867939275
Ni 8.129940233030963 -0.2123492758599502 3.700531835419042 -0.14390130150306185 2.8328458339801728 -2.622038000462549
Ni 1.192597840107946 8.26925904784903 10.627055454609355 0.30463047319673986 0.39430103838069513 -0.35404707595665474
Ni 2.5741036565972966 1.5289648800299338 1.9996908840271201 0.7942009110054064 -0.27083795012732714 0.8883912184365862
Ni 9.19372401097768 6.850547341389146 8.77380773855894 -0.982510049199882 -0.3249555579073371 0.4098870657444102
Ni 7.764479514264898 4.917756965318837 12.244470538927187 -0.5783449735409136 0.7348292539153086 -0.3958010199649893
Ni 6.303907676888659 7.990163470810594 2.182533393794389 -0.7185688261923883 0.10791202789264642 3.1809364352430767
Ni 5.2361519061668895 5.428564582055692 1.1939371026130396 1.5396439358808192 0.5995252071629545 -0.4674376104653692
Ni 4.422463485068062 7.222475398979528 10.27343594724562 0.7335442165552979 -0.6755236741764559 1.8640577623520735
Ni 0.9179779979870915 4.361911623445584 8.571131433339408 1.1950762601695095 -0.19461733980069065 -0.7724599197838891
Ni 5.915297249643065 -0.1474768206847538 6.241595054233666 -0.5594463368641979 1.8860142120185066 0.28188186664631454
Ni 3.1206685541749604 3.8181598313391922 7.580457556290074 0.7238809824339211 0.30150298331135167 -0.4660715833557779
Ni 6.041307552198374 3.4726244975058527 13.314247820324823 -0.07512763437277384 0.26106878655570526 1.7013154168831086
Ni 3.7753557680221768 8.980656972658615 3.0887823307633897 -1.1502045964677996 -1.2482117065419083 0.35574631803594864
Ni 4.22006942498219 7.7042454120644255 1.0835904703894585 -0.9381983717667003 -0.12391380263754144 -1.3131544299618805
P 4.281696061120269 6.95476308594112 6.508765307081595 1.908824267934487 -0.9945672374747323 0.5817791960334432
P 1.9021639753083315 7.277438433120875 3.2181683598842254 0.252982410003145 2.8384418400107116 -2.002810943995293
P 8.882590807508954 1.2958789981246137 11.942692546676874 -0.09347656919360676 0.21477838812959782 -0.06435934011267626
P 5.735080928040006 3.8133467106823664 11.31957660057883 -0.3084341632135462 0.7127475915249208 -0.7261926612862332
P 8.328063232650484 6.1945517063925015 4.690945897411561 1.591573277760259 -1.9776218463241748 -0.16809641069202663
P 6.886743877901548 4.7807372333776215 8.37435143457112 -0.2045572246222219 -0.02304762584808289 -1.855609117364088
P 8.051603189641613 2.313980186225574 3.6420276528954205 1.105475371881225 -1.0693547148992681 -2.181645824150746
P 4.89770073827117 3.7409816752536216 3.6697269286288203 -0.33479979769126855 0.5376168996939321 0.21980000971390534
Ni 1.2459907688699787 5.725454686726354 4.307383172043155 -1.5527259658757582 -1.1619154571468246 1.490206250074982
Ni 0.3814926161927033 4.29024752791832 13.327023618262455 0.8366842769805979 -0.24090928088869482 2.2678451429566495
Ni 5.404629820886505 7.9146301870271625 8.167147992174566 -1.5774046995693607 0.27488666627540403 0.18659395527558187
Ni 4.066993496364419 4.746671554165717 5.37349500504932 -0.2686586830878212 0.5930835653026688 -0.10598550029389488
Ni 8.843693315909519 5.169198126777567 6.660734685241565 0.8597231610779323 0.429499440658699 0.02332813320297918
Ni 3.3156980723626197 -0.5053860802455452 6.688351717359858 0.039035516635906965 1.867747552498835 2.005986256399481
Ni 0.03450960781617459 2.7701518741084397 6.540595455301047 -1.7441132287749255 0.5853805402314562 1.5292934458844307
Ni 6.620639053703867 8.062360280662984 0.09962692466362115 -0.41358945429666194 0.47452639899135046 -1.0911373579919983
Ni 0.8922021013433517 7.784694621023568 7.03005805015805 1.169140257030038 -0.1689461602868316 -0.019230823205153975
Ni 2.9924993567230938 7.510178518008132 4.9153158252886175 -0.5683053299167244 0.0016197949916101136 -0.6710018750467024
Ni 7.667974108629198 4.076376745178891 4.613757460874102 -0.22155941560717327 0.43605729638187485 2.156022981376319
Ni 0.2622477855664736 3.280286588539875 11.191695255779837 0.24092984971398504 -1.7952961794066438 -0.009074708607758563
Ni 2.270951822140085 2.3087932309546257 9.161377970990738 -0.9201713390616606 0.16113592021379344 -0.9878196343382536
Ni 3.938852336508611 5.012383852018571 10.85743103556229 -0.16731968042700215 -0.5394686081906902 -0.16491801296404499
Ni 3.3976052363168385 8.863740197091833 12.216689019578679 0.13811194851479439 -0.3985107055866685 0.16844633783227764
Ni 2.540112744308217 3.7692155344852165 3.698301911945802 -0.16807944141116213 -0.7467679143344237 -0.5687177348637947
Ni 7.523692639308656 7.884396312610013 5.301531841830757 0.7191462959624131 0.711808110429787 2.7976829129257945
Ni 7.9220694958481985 2.607683350810842 0.2630393803618778 1.1154810769436854 -1.3712292226174256 -0.6756763977042363
Ni 9.162275174064632 4.322425342328906 2.6809549351788338 0.21211112571007987 0.6218644940901031 -0.22362298300442132
Ni 0.9021451674924722 9.321117501605244 13.140829681179579 -0.535007229985227 -0.565705173289716 -0.26435439928551246
Ni 6.563778808895849 0.6889388757796464 12.285082062232373 -0.18625071300355017 -0.553598105613537 0.055478492683278646
Ni 4.451828194007376 5.722650927120435 8.390204825969516 0.5703033341833597 -0.2923655397864578 -0.6288509527102654
Ni 5.83199755175124 1.24981322779938 0.9273621813880991 1.6301362256351217 0.16811106598004594 -0.12057882472703751
Ni 0.5573219885990357 2.0012208021854163 4.528183913941878 1.6235259194074556 -0.7737467569161125 -1.0248509760599382
P 1.313168849027775 0.30830981754556586 8.564866899793252 -0.009816986090421803 -0.18200530746363494 0.6093481067906473
P 5.294526181162103 -0.08132678571579409 10.472966434187311 -0.05637580768656742 -0.016131358344223832 0.5910102277134079
P 2.311989516905372 3.408362327338211 12.010949139696413 0.21061937165590178 1.4175607586941135 -1.9473563625714136
P 2.28709213160482 0.5692893691836293 5.047985056907982 3.022304769508376 1.2872253688009445 -0.6257915970586513
P 7.424888150796105 8.111687757996435 8.002292534865795 2.3962344648670406 0.07873823454216762 -0.5524719624288937
P 2.471158949733339 5.7227630775046725 9.233040197344934 -0.2341267107492226 -0.08741210816708173 0.0590888357423563
P 8.21296890082755 5.41441494191116 0.9846018683294513 -0.6031679461218644 -0.17176100402780742 -0.017182939537189763
P 8.07560337186827 0.32675107906022416 1.1342777711317802 0.26698052405444983 -0.3721005910242559 0.14474385200901524
Ni 6.576741524140544 5.867362306247219 6.4128103729151915 -0.3218239542568909 1.6608336547189786 -0.05741633313593983
Ni 1.615404788680387 5.863296854818638 1.704766214840207 -0.6945323540684748 -1.5171586102941097 -0.2132560379478005
Ni 0.687505220034487 8.780440499200008 4.898654951123717 -1.1552593852828876 -2.09321324513895 -0.6313287248267965
Ni 7.151119717008913 2.3331672477954064 10.78963986663733 0.586657607171667 0.5011254896361176 -0.7183921914052078
Ni 8.59653256078249 7.517767360674816 2.017336812400233 0.7144918279095372 -0.5413992495544998 0.8120770199548788
Ni 4.214574056154592 1.9817907481164039 5.782977553387903 0.2161593276375245 -0.04712806383605432 -0.7932832842871435
Ni 5.2041142797366 3.5670738127638786 9.161678907855107 0.01610821841577226 -0.9665697238205418 0.792882449304299
Ni 3.909001642570937 4.278303511997108 13.130570724781524 -0.5920535813762579 1.669958499838382 -0.1623155423441914
Ni 8.419923743205713 4.507819273337559 9.702394228308291 -0.9412605556317919 0.578289951933262 1.0967487906415048
Ni 2.4265604802685363 1.4638241985191045 11.125723726839121 -0.8203472303834711 -1.4779318035830031 0.7868514126188707
Ni 8.772533897111318 7.165082439846385 13.45405635848739 1.7642025433256323 -0.8579619554124516 -0.8673817060644546
Ni 0.2430224059486936 2.1981849145011587 1.8839563604274998 -0.4811174219453069 -1.816043182146008 0.1412569219016793
Ni 1.3442064678652879 8.929834156868674 1.8620431099341797 -0.44355231920733934 -0.7087202155330826 0.316031773055146
Ni 2.125352585804761 2.0004077118997 -0.21452686248721323 -0.1990902879703797 -0.4997941724192037 1.2119401258043838
Ni 3.9504412095464057 5.9688677498468055 3.102666548331896 -0.3525967166633734 -0.04002744823553106 -0.1935775856822666
Ni 9.000974883936168 0.25622530993296166 7.037279600316358 -1.5426973779951625 1.4279516150101343 0.2434168778018969
Ni 4.0701430529884 3.4527271501691876 1.6019028170048213 -0.19311170178944162 -0.3844210602628218 0.317007506704854
Ni 4.409771799918605 2.1025954036700596 12.273551133559769 0.32790101368890623 -1.1162673202904065 -0.24669246322937516
Ni 5.6514447789954705 3.8925061902227855 6.830760275263648 -0.6419633217225073 -1.672793655294332 -0.2516678049567795
Ni 1.4891888770873098 5.347825651270605 11.443026136027402 1.3887170949895438 0.46064475591325177 -0.6746561839698382
Ni 5.396564339086814 7.305644254756411 4.668977506312658 -0.5241129516702264 -0.48703867252574834 -0.9896255771987407
Ni 4.761568863538496 1.608423427261651 3.0483483788999104 0.7236876354761923 1.0419333854635218 0.8114278164066542
Ni 2.1969232226784956 1.8574066261325266 6.828790166847222 -1.501959019735536 -0.9439219045140388 -0.16687333691820294
Ni 4.239088260975668 1.3632907249162367 8.120407450370841 0.7405471302356924 0.8796782640436205 -0.26198332795017465
P 1.8690609202277926 3.6256630426622123 1.46203913823667 -0.17054384379125467 0.0027647072293307223 0.10026942374572408
P 5.1342632820878285 6.536348694084618 12.942668363512109 -0.373512383770118 0.12075083152852754 -0.3306263830398693
P 1.9002761105070136 7.343233325206418 13.935639454265225 0.1031212913722224 2.0006093083582837 -1.6516720428243685
P 9.206677380357021 6.550713289132271 10.954316817917856 -2.2416620568033783 0.4114145581325301 0.393790931513496
P 6.817528399096784 2.174437070639033 7.130554140299505 0.8681118993622597 -1.57429597873705 0.6793363630543268
P 1.5995168175801848 4.037563366367633 5.736716454476792 0.6243291535805119 -0.34351789429055674 1.004727980057818
P 5.909072903317926 -0.04045544735379146 3.8836332256565904 -0.10539543211837978 0.2712434130958619 1.1835615746616905
P 3.98017040723449 0.5844941575265228 0.38786275801734915 -1.753580544835412 -0.25488296945996747 0.13955845115333385
