# total energy = -340893.5610138169 ev
CRYSTAL
PRIMVEC
9.08699254583208 0.00000000000000 0.00000000000000

0.00000000000000 9.08699254583208 0.00000000000000

0.00000000000000 0.00000000000000 13.29973211811255

PRIMCOORD
 96 1
Ni 6.573030511726719 2.096260100905119 11.426384969953125 -0.019969501143391414 -0.10828380940976835 1.12276089843455
Ni 4.436978471137422 0.34436793327776527 6.215203834017294 0.3381723137079272 -0.1811190482039397 0.1652517421543799
Ni 2.765453481622606 1.434590749888134 4.8010170168459565 -0.08346803591766916 0.8337442205156674 -0.6634955393673283
Ni 3.3123632057221495 4.253739269554541 4.7601600816534475 0.023534335676514306 0.3615726949097386 -0.20702805476021763
Ni 5.278025051970727 4.722337293220597 2.7421653375206168 -0.39743701290651556 -0.5967005932299659 -0.8642609010472858
Ni 7.496423417615518 6.1425615081371205 2.7212316331473723 -0.4867440241034649 0.6053675248763446 -0.5448625255127519
Ni 5.319498085247407 4.556517856053009 11.493721400975662 0.024175825915255137 0.11225693512490346 -0.2947661788081504
Ni 5.667493545888024 7.588810869264075 12.453270540892637 -0.2678485284817 1.7053983287032308 -0.5660872392194831
Ni 1.7527627014984988 6.5775285729607145 0.5614625424151887 0.5728821506541295 0.266588945042986 -0.5446830625120942
Ni 2.7964219516942377 1.766384103093973 0.454554076924358 1.1634563192713834 -1.8775856216351792 -1.2245063925051687
Ni 0.17265830764174037 9.172410120394764 4.831101322557855 0.7880436331547589 0.6014442785625383 -0.38940334396876164
Ni 8.642129592372417 2.2215061170428254 1.3418634447241193 0.1745491082959058 1.2854986159178248 0.24527887071130014
Ni 6.6626646046805265 0.7370405007124499 4.837471304224586 -0.10037818140944647 0.7631147311235631 -0.4539537170463214
Ni 0.8585526716763203 7.555488868162938 2.82724412118836 -0.44325972766758504 -0.8283688151363668 -0.11389318517674578
Ni 7.6405340299588325 3.960729199877377 3.7962219244111806 0.10045891404871087 -0.6170346768016276 -0.7290591842007509
Ni 7.5546256038857065 3.9736963380206336 12.815329030958972 0.39686160001901977 -0.1724318048425869 -0.44734623903213283
Ni 7.609556472894808 9.090627188867565 6.9324855784727735 0.5300092625500032 -0.24623583530793075 0.42979486041193077
Ni 7.021891587917544 0.4633248419810303 0.43706343396840813 -0.899907960826934 0.7827584734964197 -1.5247148253748128
Ni 1.8534920121628298 6.324528530785134 9.066254057873982 0.5905386873936281 0.34588562319178495 0.40430957165663267
Ni 9.119160344978166 5.123200875597351 1.2995634951397745 -0.05739525009001728 -2.277074374864401 0.7100710731340222
Ni 6.1270590991165195 2.1860486727295894 6.950174317862867 -0.048860473146128756 -0.5254080163325662 0.21480204227868166
Ni 3.076891971870565 4.368189938730658 0.36287086718617406 0.09323719948929103 0.17993094143310948 -0.05529157348345316
Ni 6.006665536916094 5.755046717584084 4.6460619877821365 -0.14557868920548475 -0.3921958191122343 2.1214318736650113
Ni 5.377591227608893 3.0057317344495114 9.424269745025159 0.2678657548728806 0.2903140565740677 -0.08549123699528502
P 9.357875635113661 5.592989295266746 12.501256221616599 -0.17683867566103093 0.08228532846347764 -0.3335057614701934
P 4.079169058713543 6.014225914586164 12.608598136644524 -0.3562615671094703 0.5326405295252633 0.2000436530225845
P 2.4377583619855185 8.550559970039131 1.4360119554982287 0.34339550978007954 0.2823948017269911 0.5274067919301497
P 6.167396258344213 7.871316375736191 5.7640110355787035 0.3527982911512182 -0.7347518637101539 1.0154278829738255
P 4.8288459310461835 0.9743709332074195 12.701337254898649 0.6601099107245469 0.6622845497783626 -0.05350645655857237
P 4.265261575907483 6.190431784057706 8.142960200202253 -1.9294851387179481 -0.021032395190267002 0.2690451198929625
P 4.687561373336755 1.1626079806058518 3.6941731824515442 -0.45034543086977286 -1.6153325849633857 -0.4690949435631341
P 0.2530963642949348 5.485790046019376 3.753662995543666 -0.49609255519790046 1.7361083561925776 -0.7971517661036142
Ni 1.4507837703305189 1.112965741168843 2.5561418814688546 0.040028733787111706 0.3455310680658436 0.8342455856321181
Ni 1.8505205656506751 6.31418753344314 4.99057803903589 0.028279049450351295 -0.18165666587496457 -0.41134642389875603
Ni 6.035725738585425 5.684395351736978 9.257185398516615 0.9787534103709274 -0.28532817332370214 0.4387345861037218
Ni 8.826731842814084 2.3874527721039005 10.117398263702938 -0.17762749011091344 -0.1407748400589382 0.6636580330871215
Ni 2.5206226456073537 4.943187556313598 6.94408239816333 -0.78050772978903 0.44673251670753383 0.5543730361063485
Ni 0.926237134507468 9.022402049989099 8.992095112963598 -1.2719805268267321 0.4200370096942185 1.0599596468376131
Ni 1.4217144816687963 1.154320643544429 11.489851250915946 0.38290822316272116 0.05693707950667613 -0.3071912919453806
Ni 3.9172206803049083 6.927295997117753 1.5336316973660482 0.9267600480227716 -0.47788117439619643 0.292268094976645
Ni 5.593443644886342 7.916097074243527 8.17147518232807 0.027712635423920016 1.185019647264456 -0.07249431051498482
Ni 5.120883692537413 2.871634987722084 4.82724389428749 0.8968522047197458 0.5276543891645816 0.3470040530669443
Ni 0.5923365077659447 7.670221234103204 7.114398987865674 -0.21356894120252895 -1.211076749362824 -0.6836049085226937
Ni 4.99565585038449 4.594274309441398 6.922111867958168 0.65274190039525 -0.7566059834707679 -0.41867303946715634
Ni 8.565126418843365 7.068862251591331 9.387988110501976 -0.9060780941933879 0.3556864113322907 -0.2373462461277848
Ni 4.801285083121518 0.28286807746855214 10.5255541574742 -0.4235956735797543 -0.5973271710703713 0.1744722323113834
Ni 8.226781344122957 7.100021548503194 4.923095307435843 -0.1951495581550768 0.06838491633230158 0.07960983851384354
Ni 7.054850109323004 6.197074375496193 6.987093859251962 0.518191701089785 -0.1655906135510374 0.14399077589307457
Ni 2.2426242873616262 5.249082981202491 2.660784051057142 0.1712012748695955 -0.14768545113584242 -0.7369288167568147
Ni 2.143294373525649 5.35546440113459 11.38656576929177 1.628645500022208 -0.3369150442620585 0.6343914229125203
Ni 1.0805342653221133 3.568807218014264 3.91242183962274 -0.11038285803064217 -2.2208227514605237 0.0033483476469426204
Ni 3.9091605180532834 2.8531066102349776 2.4600114976540692 -1.075908971078018 -0.5166246137129812 0.2583709280085679
Ni 1.2770586497819683 2.9843318673665613 8.29606693501356 -0.43158640509471474 1.362124689212996 -0.801905992959148
Ni 3.5783485600257707 2.4714347557899403 7.241704116479388 0.18944890822587374 0.9953519381595567 -1.112803273001206
Ni 4.083276379274686 6.969477815801003 6.06223067799415 0.011471748085025404 -0.3099164041860275 -0.6596160018072641
Ni 1.036335134327859 7.6144816227712235 11.713300393833034 -0.8557513209143779 -0.3282632821243314 -0.8398212799476827
P 0.21998336401881183 5.5200661813216625 7.925097740207714 -0.19522951946339281 0.458303766484901 0.6954476667938926
P 8.77140114613974 1.492147759698497 8.05151143486778 -0.9167510005262017 -0.05030363335055852 0.16220318513604326
P 1.908713664928472 3.2863744074812846 10.472235320915424 -0.24116022055723627 -0.17489877832584072 0.3158505102822754
P 3.9756409543925026 6.149294969499526 3.7129796219058426 -0.2863540434850552 0.7444521217170534 0.6350442260051709
P 7.2151355681239195 3.9949780742024887 10.30046935592657 -0.8403876939741141 0.18916223022339035 0.510719561082456
P 6.5276318977367325 7.76517121760628 10.183338932694078 -0.26351801942714614 -0.11176919685520752 0.48664143708732965
P 2.2024506939969886 8.256577592176033 5.7036034362549985 0.40820067918092273 1.4510630042166173 0.63609426453624
P 6.8932016016633035 3.946498969791645 1.5793828866608406 0.37883045354892175 0.020410959556184202 -0.638985470041106
Ni 5.134259745338305 3.1685161161582016 0.20300977092996164 0.834401137373376 -0.8808468304304248 0.5387268449286592
Ni 1.5620358181846827 0.8960110717142551 6.8158867442952085 -0.22573591558236605 0.9064007676401293 0.6147903608521412
Ni 6.918290787657369 1.0228772985954393 9.350123521904123 0.1275213174831417 -0.8342697540018341 -1.5343993996524283
Ni 2.8516708654370557 1.5842353405981209 9.257171768028028 0.5821337511593845 -1.1224019724332346 1.4882362708328047
Ni 6.380695230759534 1.9260698203970215 2.486212022817665 0.23372561865606198 0.7695095789063134 0.1522841262501184
Ni 4.129810867313662 6.822968237466225 10.4262051609542 -0.39454863561512693 0.3628875570664202 0.07675282868102265
Ni 8.448431262546446 7.273137840561486 0.4803847614976037 -1.1848144732321853 0.024278927152022702 -0.2843344419518652
Ni 7.590037613236984 3.73161886070013 8.050234712436717 1.207570021761146 0.543301094562903 0.39310110453532293
Ni 3.2168680026755587 8.377861679630865 12.618799194303683 0.5401080415469021 0.09974800402461531 -0.23742646454641692
Ni 9.260099596976701 4.855043730112063 10.240793259490413 -0.8686659720935168 -0.5451535743906095 -0.5147420519782877
Ni 8.390919687698041 2.2565637336908173 5.910174399503349 1.3185380628712968 0.17144475833896927 -0.06633857532623415
Ni 3.747493836408798 2.5425132102794668 11.492763631977555 -0.045021559016012784 0.37200288910412704 -0.15128319578942975
Ni 0.8682248663782702 3.2875375425074496 12.690897209339582 0.4035251280821244 0.39902261222608054 -0.33460490807164306
Ni 3.015309424430585 8.251734225231143 8.141377246127584 1.1207955471780633 -0.17494814350653742 -0.28178519316745015
Ni 5.784034223314279 7.908036911991902 3.655697039265715 -1.1407822747126353 0.4370376580172731 -1.4848311018059979
Ni 2.9920739848844695 8.365148977274583 3.626331514652016 1.3618961181419578 -0.3647112405387203 -0.09305413694420749
Ni 3.51200442857243 4.3596663398670445 9.190514135337168 -0.46228897638489413 0.23397887231744866 0.4261292386348855
Ni 7.457967265812951 6.189813868575056 11.567721323519187 0.010177968974266342 -0.29981865363039334 -0.5426727169502849
Ni 0.7410805775298935 9.127338638130885 0.3121636322408334 -0.21704481556627137 0.5061350270355671 0.16576801966916613
Ni 4.840277367475207 0.17585511156521458 1.4970974444543708 -1.0737479588709573 0.09562344033328048 0.3879822952515189
Ni 6.037343223231185 5.764551711626022 0.5052213291031743 0.3274410433333522 -0.5384836185696017 0.4714868408340783
Ni 8.048839859104561 8.968743359914866 11.173716602999848 0.6972690362733476 -0.3646441347462107 0.4508246844990365
Ni -0.1697722788580695 4.884785456210786 5.928581919991643 0.7315091884031402 -0.7001034203983492 -0.2435922270374966
Ni 8.195631134203488 9.119251214902084 2.433664671912963 -0.18812093344306957 -0.832219813451341 0.8752510815102023
P 8.354798892940197 1.8455954157742596 3.6090017114614033 0.6881408487198343 -0.9560711382820631 0.6387556134184871
P 1.7334710166504719 3.0852429178787313 1.596566389273944 -0.8315765234403871 1.8072644075121134 1.222190342777482
P 4.901660001082565 1.1635439408222183 8.43633920177053 -0.5230868243985572 -1.3337471665115674 -0.6690342097973703
P 8.492557697601564 1.5175459034338876 12.563085935249637 0.46413579978564584 1.0749062408451167 -1.189420604545629
P 6.558336845028999 7.792859283424432 1.5176058775836743 -0.5898221209425778 -1.1985750173513876 -0.034334768726127965
P 1.7439210579011695 3.102753552217943 6.045153493192033 0.24394806771501854 -0.5664338239256246 -0.4677584841398977
P 6.974293921768716 3.8992556963461005 5.820521223865518 -2.3499183554093204 1.2290389902681993 1.2374287569937914
P 2.480112833524215 8.56896112963275 10.393314791991678 1.0876326872728495 -0.1695989633794821 -0.07932804560736662
