# total energy = -340856.8967664957 ev
CRYSTAL
PRIMVEC
9.31773889531760 0.00000000000000 0.00000000000000
0.00000000000000 9.31773889531760 0.00000000000000
0.00000000000000 0.00000000000000 13.63745272477902
PRIMCOORD
 96 1
Ni 5.994958766241164 8.516506673897231 2.0696058831632187 -1.1392666093990573 -0.5360040466808575 0.3001827218380314
Ni 5.183150751051729 1.7687211806864191 6.741074857543214 -0.16885102946986405 -0.025639812055291325 -3.0643119671780963
Ni 3.3928683221914406 5.915534358534138 13.690638785317374 3.5701322911867224 -0.644064170115594 1.499354235122837
Ni 0.14774113868628033 7.410407188386496 5.360105796997963 1.6037227686385993 -1.2708379285818567 0.2067714586647213
Ni 8.612880048945774 5.325646934423803 1.0848336096649167 1.3888623623181564 -1.346978577600177 0.38171985928157487
Ni 3.509619592553835 8.087517967793108 1.3370312620301779 -0.7037888396697363 -0.22513582010452193 1.2024298723211033
Ni 5.753759773056731 8.888731713676714 5.892825164908659 -0.8813530806428821 0.5301655856222095 -0.30366502395967704
Ni 1.6082790318939153 0.006563415390524402 7.74252774749824 0.6822206265806574 -0.7640079323617939 1.5348490855953374
Ni 3.6883710985899225 4.2214296322022316 11.938894525189637 0.22936888434926303 0.912806671166473 0.06607863679662813
Ni 4.077321479973597 4.178754387329146 6.876085169358293 1.9624559372170134 -1.8385768444721498 -1.8792172437013315
Ni 4.302540550678261 2.5581759398822888 4.560350277276504 -0.7236477833771925 -0.09601013424873787 -0.5931678974863591
Ni 7.548784931096146 6.80745629412069 13.386428581771751 -0.9137474378131877 -1.3272304484389723 -4.304371476926517
Ni 6.531781666431798 4.458184063857306 -0.006040690229524376 -0.5608887257376792 0.33410791383056654 -1.0491311887635415
Ni 2.613597851782969 2.7819041723381113 0.6670066231750896 0.8741879303530107 0.1081405989636847 -0.23366185529766212
Ni 9.118637607126173 7.965586034515989 9.054736552685208 0.31647143169572595 -0.9766268509462277 -2.3020932655062416
Ni 4.012675006408211 0.8827719158342879 2.5464803138201275 -0.7995331218515972 -0.1650666227267673 0.19622736460028783
Ni 8.033735977966154 4.975980140897101 5.387393727595194 -3.5161172704228476 -0.9688484925523895 -3.449222051262195
Ni 2.6358579303859826 1.9957199395506375 6.796592742156164 0.03705756697392972 0.7038916837961877 -0.7154158823857034
Ni 7.317136620443353 9.408400656266616 7.6509790977325105 -0.7750253665182201 -0.09473795240453362 0.4885327405727716
Ni 6.572313831322174 2.8516567669057795 4.4241128192278465 1.5581605066277682 -0.11008152474013944 -0.41371261013808747
Ni 1.472650022205566 0.2562573912716371 11.103737187701627 -0.10901168871472838 -0.6342716095052044 -1.2656651261316654
Ni 0.8966367115485132 4.600708200446547 9.605785776865412 -1.4018184082581922 0.5052081443459234 2.0704762085527504
Ni 0.6937149904030839 0.4626881729452769 1.0538586497235196 0.7189904871108392 0.10129272280391588 0.3683802047498752
Ni 7.6183232176655435 0.1308061479533472 0.7049363435473321 0.40727353938096317 0.5205380898347745 -0.8379086363060021
P 1.1024282963229624 7.1995094826097645 7.344395666049514 1.1672016452464287 0.6664391953766845 -0.38615218402131557
P 5.627299418598756 7.215275097091263 0.24304017842175227 -2.8646740342343633 -0.4513386480209775 0.6144095804739548
P 2.5866695859132705 3.679994451179245 5.110908456608495 0.8776326943685014 0.04309168898315159 0.3818712972577746
P 8.026020890028398 8.795796584339563 5.268993217420018 -1.9353022596203573 1.8572628509174274 3.131818851780819
P 8.312373646674617 8.52908562162183 10.844979847041463 0.9906306214244874 1.1132087359697407 1.290413793831255
P 5.083422989943292 6.765246936200366 5.708337658710155 -0.2903963318752289 -0.12195410780800932 0.0054656511002615545
P 5.9687572840177765 0.6632739369095528 12.294968196090736 1.116746316809354 1.7916464984691984 0.3876215694779905
P 8.323321990064546 4.784314248530425 3.1846317626888916 -1.92846158254944 -0.7080337309890194 0.23850864186700216
Ni 1.7576982953840479 1.9084965842543586 2.626136733229631 -0.46613174716975203 0.22242099227652018 1.710491426955422
Ni 5.829354590012048 5.644145890810665 11.368440177652952 1.4036567470185115 -0.9121502685293968 1.1702936539081907
Ni 2.5403231518524128 7.105735756757639 8.987340414324615 -2.5998954029272388 -0.13546679758246347 0.9739942984193871
Ni 8.90277354643299 0.9155759479522326 12.5161405727237 2.2488364630646305 -1.163717800462886 -2.0690011666691204
Ni 8.081787558274124 8.343168774252248 3.2626510553463857 1.7255192678228217 3.2372672486243217 -0.582218597563707
Ni 4.510633616999359 6.700702957764588 9.887276537272594 0.2003069339863002 -0.3150143875342252 1.1217987916315972
Ni 7.873918117690352 2.595074186541114 12.631895776781088 -2.328828110397925 3.5277324860642727 2.2438678062054453
Ni 0.40094324332169806 6.589439835705741 3.2007784726977495 -0.5920702935468062 -2.2529826240225197 0.214808727146901
Ni 9.345785449815276 5.452368185575326 6.821304317904615 2.6660776551812666 -0.5672138966247586 3.9109682677697415
Ni 4.353825386438406 8.776574088668562 12.987532445720493 0.6732577609604147 0.723513057571541 -0.47954622080344506
Ni 8.116458865298743 2.516618823695834 2.4507181824536093 -0.6523387514195603 0.6499046880567712 0.8551347703763015
Ni -0.10193140639500525 0.9632864990107805 9.453509694580937 -1.2292022553189412 -1.2700262313138384 0.5837635734533236
Ni 2.170930704745727 2.1272118730984517 9.560044995843144 -0.5115705962288415 0.4778449218416223 -0.5397084921156383
Ni 5.056094061294218 4.999171993405642 4.355393561921407 0.16994554808562345 -0.6495938416845717 1.3869546037724823
Ni 6.221705946150891 4.130413957110462 2.2093086083665274 0.13153455240759282 0.0699481470543634 1.3354970593231388
Ni 8.36321123096011 3.165552760199343 8.87839088687319 2.1114958454982213 1.6374620698725735 -1.813837946964573
Ni 2.327748253045735 4.6618605218662115 8.024945622941422 0.4898851408356079 0.8609099822971819 -0.34180271137166296
Ni 1.14515944763038 0.5190502447166329 5.493711925537415 0.5039904698887384 -0.5198768021016917 -1.7553160394692802
Ni 1.4691372345817335 6.242298149463013 13.01618542508932 -3.096405505278532 -1.9064627096808457 -0.7652235499364499
Ni 6.427460259969119 8.040230442087669 11.508769054920773 -1.5325659459881154 -0.987046760727971 1.064855541477334
Ni 3.229546992030862 4.431544647898321 2.7198946189253634 -0.8693485999828383 -2.443297479793115 -0.04029278608177577
Ni 3.963151223329509 8.858626098789173 10.486819934365894 0.6951275644503125 1.4164592980998185 -0.6891726324184583
Ni 9.079354019269202 2.653803895806411 5.413946488580965 0.0817615947495237 0.41067588019429274 -0.795349937008185
Ni 9.5967121625734 6.705920891635532 11.014206760215266 -0.3199691604363393 -1.333454317861497 -0.002519938208376305
P 0.21664395545210918 2.549622255429561 10.70898744552996 0.35389435242887435 1.0071119069089622 1.4944768524258778
P 4.608264886820362 3.6128694590251595 0.6611858315872694 0.027955347562345405 0.4122051723546256 -0.03087792052577908
P 2.184711640808455 0.17621335391743512 13.099878289057562 0.0025947573103697248 1.000291027332387 1.556700377142474
P 0.8939382943181102 3.2343363099052644 7.37405682478412 -1.3291680317813173 0.0949752652263203 0.0069278374680848435
P 4.029828964008942 3.290326603888316 9.55306321396904 0.842977309078161 0.2736188553065739 0.046969940991635234
P 5.169444356901442 8.848870425998317 8.312437007300193 2.0707351186410916 -2.9306531693386497 -0.6848230972005109
P 2.760026121036363 5.964536348225744 10.890665653403305 -1.0668933978429689 -2.5496506478390737 -0.282630571886881
P -0.20816388113791803 1.1541324303405942 3.6739164899934993 1.6947583324908813 -0.8136255953889213 0.6016777347295831
Ni 6.624670207073675 6.9721473319223914 4.055600898461883 -0.3173623189411115 -2.2019289998798146 1.037817049302303
Ni 2.7320076796971997 5.82709037942162 5.481287652281132 -0.2016066266343302 0.5980823040688409 -0.2245084709331682
Ni 4.77624508650857 6.095394675517801 2.3478922731092995 0.985776892876612 1.360681014787934 -1.7132237382849207
Ni 7.19069490146349 7.173783205078195 6.6265337548847265 0.6261834331804312 -1.3656812962160028 0.18710997568005194
Ni 9.191725952275625 1.2848137205906012 7.251906856413108 -0.7704770850259053 1.2129950494314594 -0.49918147853586936
Ni 0.020467345608781804 8.223855125649658 13.020712914496272 0.6461693893840549 -1.4995884626208302 -1.6172334015305243
Ni 2.6562265079607785 7.726064234361503 11.901255518275917 -0.3682539635846561 0.23609489021918695 0.14534034794243356
Ni 0.19333935830100105 2.7198480302300867 0.7701176553344906 0.5283249328690449 1.078298040135485 -1.2620398706742522
Ni 6.277714875612052 2.4748660349892186 8.411990526688296 -0.17415727217412585 -0.1268633721841686 0.7957181189808812
Ni 1.4361990270213931 8.56019755232734 3.1220081702724016 1.2609844328265445 2.120218312972884 1.2948970264135893
Ni 1.084454377685368 7.405794907554143 1.1542116311225639 1.0682159733091343 -0.4619740162476366 1.3096088787024671
Ni 7.135086634781705 2.6583975411606535 10.605206467932485 -1.6957731469086408 0.4101315776550485 0.17890841370586608
Ni 5.955926757338685 4.678101341039528 9.114618866271641 0.6026084740739686 -0.39409303613494706 1.0498755231287338
Ni 0.9067371406844139 4.348644723523682 4.0537326917813035 0.377809211373259 0.3093746727499446 -0.06272591827431132
Ni 2.288091955626553 2.325763574626965 12.0107370886274 -0.8073600740951838 -2.0572067451373535 0.29823691096557026
Ni 4.530051785190519 7.9368314917914615 3.959743726157001 -2.4746122307459966 1.0758076696134633 0.048391761039826335
Ni 6.21895721312959 1.87867981927753 1.1598488632509956 -1.3154092874343282 0.8177324184684435 -1.3590599342447431
Ni 1.0441178853151518 4.114825379671014 12.147506589576112 -1.714744545804821 0.9343013507051393 -0.29108204508834384
Ni 4.911482751156599 6.0813062540662495 7.735354020199597 -0.4393570501790691 1.420357347602644 -1.234508498023203
Ni 3.350686917488283 7.894296013004204 7.064160005093073 1.520024104767363 0.4425544740704443 -1.670328481583291
Ni 6.551730945749108 7.244066910772013 9.136943237274137 1.5720691462890604 0.360393844110289 -0.3322544055615955
Ni 4.427668468451333 2.0749300392593937 11.570955645375571 1.6664908530047557 -1.2157569284473126 -1.221564279157709
Ni 6.253768286240037 0.5814790963868678 10.061712998352194 0.13997008476945574 0.04981615219117872 -0.7938237301716458
Ni 4.061024754365949 1.1004343001651369 8.55298748584638 -1.93749901016136 2.0762606764450116 1.420947158667843
P 8.11668249103607 5.535529006643511 9.041781168302776 0.21321387185595536 0.1554946627676161 -0.4551914461081644
P 3.4758893771737975 0.5932418101702267 4.940644479077843 -0.3758202059676882 -0.91903105480963 -0.07552769802466992
P 6.0403920618746065 1.1405658022761371 3.132564236848104 0.3257034918169552 0.2719520091271123 0.4543802630607788
P 8.135877033489903 4.742822356517356 12.192960384235477 -0.11544561726553021 1.1095431141926957 0.19779110954298193
P 6.224976472559287 3.9298868949022343 6.2045911230541915 -0.3699166959990597 -0.36664316745411046 1.2044417605448094
P 1.4181971551666328 4.561303481981857 1.213853547041371 0.4098101897598878 -0.19837834950501965 -0.911400791957882
P 2.673576138081671 6.426435308673041 2.8194891363653096 -0.6347320940813909 2.665089323126068 0.31958400918277863
P 8.239518245001548 7.517328244045593 1.4394742122993167 1.4800174824674381 -0.05249601301618701 0.8063306043894047
