# total energy = -340889.4346250087 ev
CRYSTAL
PRIMVEC
9.10512065413282 0.00000000000000 0.00000000000000

0.00000000000000 9.10512065413282 0.00000000000000

0.00000000000000 0.00000000000000 13.32626443702737

PRIMCOORD
 96 1
Ni 6.709262765235775 1.9026332773919354 11.23701243038416 0.08616126647911612 0.4752977299397363 0.752611003378762
Ni 4.74209239433851 0.45761151542836803 5.989129686450509 0.4460257204484964 0.3931062467416455 -1.5591493529035987
Ni 2.5635193376332994 1.68116943352482 4.669949793750083 1.0982323171655666 -0.3888384726042271 -0.0039299311820254895
Ni 3.327502676339794 4.404929785351162 4.5296234989299045 1.4604729846766071 -0.43227211830782974 0.5033068135581525
Ni 3.6643921317146764 2.871982607070875 2.5686373258188735 0.16941127284870824 0.167549279939305 -0.2725431057438919
Ni 5.375189627071655 4.935903987503639 2.6086962135990714 0.06199881030029968 -1.1954038187122573 -0.6630247703784968
Ni 5.12814039483688 4.759519594813849 11.549006665518881 0.2926162223446832 0.10864762050709029 -0.7806180301146491
Ni 5.935181847988449 8.222096732518139 12.46410768776205 -1.787663345451734 -0.9025083745642585 -0.9038008681234369
Ni 1.8930637958352057 6.414994378526022 0.10154212389815584 1.1666221185938745 1.0282957400754291 0.13105067079263882
Ni 2.9835658577632853 1.8519905976407165 -0.1307440660948673 -0.29358424268490724 -0.5628831304598887 2.6161080081313592
Ni 8.151695941465205 9.045026620794822 6.988226355039051 -0.19763735757393705 -0.04793539022869809 -0.410292528712945
Ni 8.857169776381456 2.5918089467643743 1.2566049526446446 -0.3676160728903411 -1.0608772735558762 -0.1563305284053501
Ni 6.998377653790333 0.6799640190480399 4.655810452256795 -0.19986778956635257 -0.37218518031826225 0.7849683366635449
Ni 0.7753283187442537 7.209088350446698 2.363546309482977 0.20827401135217677 2.334296589711664 -0.7455535823113483
Ni 7.69708638423784 4.046661507240597 3.574597434176647 0.8047578605856462 -0.40702439948463454 0.903922738413282
Ni 7.5028559555335965 3.973929805361285 12.65529973778363 1.0848756933530026 -0.16243561286182348 -0.9048311091601643
Ni 8.60361038304957 7.3801917732954765 9.212592704362166 -0.486174267642924 -0.4847992416722683 -0.5427979296742393
Ni 7.342469259413906 0.5416171774061989 0.08597965208391938 0.03549947845819048 1.4704007853132806 0.9997657509565363
Ni 2.2856947983940077 6.7007130571655855 8.83687264195114 -0.6694676977903632 0.4266609427686394 0.9759383095196353
Ni 0.025597225024200206 4.912212464182411 1.06223885764621 0.5719521826406924 1.3251154589784984 0.35474024536893745
Ni 6.483847299108316 2.0095820217928373 6.94762116003392 0.4162281774710896 -0.42079034292047535 1.3824389752903161
Ni 3.4620854612018515 4.393666751397142 13.281767532342219 -0.03784920963728965 0.38060091518578326 1.0534017911144375
Ni 5.681695295619889 5.468908631508781 4.831423641247389 1.3973436603162903 -0.3427514484381774 0.6511249336171173
Ni 5.2737767958834 3.1341645494362735 9.339392432293021 0.31585539537828183 -0.9108135519958444 -0.25535939487575376
P 0.2123304975782899 5.934763012449335 12.171156811976426 0.30680562647118775 -1.8581948758133933 -0.57521851209679
P 4.2423214398500795 6.562178650043185 12.370291258536477 -0.7173655499129066 -0.8244707656335414 1.0004591774791352
P 2.3626239607848833 8.514298256893564 1.3039361001007328 0.895067087794865 -0.5485330323858036 -1.1903744838184658
P 6.456422676416717 7.594362415709747 5.34147336617292 0.18604425341969896 0.27159822533211936 0.29411800370119023
P 4.9842339666693105 1.2429217776841752 12.37230349014831 0.13830658102410376 -0.5387839234188397 1.6545097693834796
P 4.2184113936388785 6.350602966947342 7.759776959322897 0.5863429041447257 -0.0761110813319657 -0.10270760087357152
P 4.644048457704003 1.3297482059667396 3.892855081645215 0.8459675020547366 -0.20098467677961515 -1.460940154121013
P 0.3369577437779992 5.571851122926847 3.463762624382394 -1.6961541843971435 -1.1512417794830625 2.0311653267682694
Ni 0.5503380617402006 0.27469328832838846 4.876639669230948 -0.2584388051320259 -1.2349476424431507 -0.3977540299263021
Ni 1.9421859204770295 6.565738752125659 4.601598565302686 -0.35600805633776755 0.09613688963458926 -0.18198011065265432
Ni 6.232700762686549 5.702728123779781 9.286686532255642 -0.3205700272451318 0.0035308959713939185 -0.5920566667000513
Ni 8.901775761297174 2.348538339502047 9.977360904448478 0.2352297140054142 0.3304931998961147 1.6391754530192544
Ni 2.4049172451150542 5.444943954575087 6.755296433032648 0.6068747055494903 -0.6021006811996147 0.16520649073874127
Ni 0.9209647197907739 0.1329302055066378 8.907488313845882 -0.4129621051253082 0.2691353656139236 0.2519195159562694
Ni 1.7209497046203028 1.1292261390553602 11.372753386563076 -0.960649758791681 0.29073288927904123 -0.8715147543962216
Ni 4.274480725157758 7.086087278753204 1.4462190852982104 -0.7566692326085356 0.660255949384108 -0.07267043108153291
Ni 5.87689086708818 7.994842032066742 7.621197026598418 -0.3842896768912801 -0.23147976004467877 0.3657026579177121
Ni 5.530013094617452 2.9705910611711444 5.206411651977005 -1.477677521480352 0.2325261990313221 -2.3001073454244643
Ni 1.002164183656536 7.637302163589421 6.993863335088309 0.15114024245366228 0.5760710899050725 -0.988794339546697
Ni 5.472332156785023 4.46801916471042 7.225807172553709 -0.9647640380703706 0.07110591480789044 -0.21097958320879792
Ni 1.0528888094914948 7.735336995103512 11.299845955859743 0.5699186971504314 -0.33971343294280204 -0.20918366765063973
Ni 4.685185391741402 0.3633097832846474 10.278681206920064 0.5224908426857711 0.15229955286908609 0.19645927810543584
Ni 8.579927964848759 7.181882250645073 5.127639613214025 0.04970456631397891 -0.01628331054105583 -0.5632060610169461
Ni 7.395351798787347 6.035146965030635 6.976272242445491 0.09937005185990627 0.8028614148938819 0.2528443417633839
Ni 2.078471362856793 5.322407244022785 2.285241363397314 2.607730839811257 -1.466926710721751 -0.43063946780041323
Ni 2.567389013809903 5.3881371083025495 11.189890700697632 0.36115746174919094 0.036712782040001286 0.231472303845511
Ni 1.3174107678036866 3.496211452519286 3.770280129587168 -2.088864995472583 -0.3744459513279809 -0.8713126656877447
Ni 1.3727061640872449 1.0922775604091095 2.3188501838751456 0.26978251227961925 1.3865272864270768 0.3745107431276453
Ni 1.2545854369364786 3.5981068550895645 8.380674241211263 -0.06918581496704214 0.028185975515912745 -1.806117952612496
Ni 3.5949929039074506 2.5530666593962628 6.971315414891272 1.012449774182108 1.4838998482409798 -0.5976251619267643
Ni 4.157944288959295 7.091131515463412 5.433823871011591 0.15376970965670939 1.0474959671529636 1.1390079564210318
Ni 0.5908385478605523 -0.03593608925604289 0.2204213075795364 1.4923608345241397 1.7289879430977126 -0.9851246040045938
P 0.4191815336905094 5.817097541319345 7.972864092407718 -0.3774538849163693 -1.0544076066711325 -0.19606615643207523
P 8.509536278916238 1.879178487201511 7.953967325497312 1.1859956380244798 -0.390083914975554 -1.222953703306068
P 1.8943749331750428 3.179562679828143 10.351375577805673 0.37731504534565985 0.9971285704440053 0.7437856917776481
P 3.8644134170032016 6.199403337326928 3.481126999526865 -0.2361493976062062 0.5823350685369132 -0.6732955561768855
P 6.930253142841282 4.004814373810787 10.516514236270233 0.3648770766926232 0.18291727775494304 -0.4186501566490209
P 6.5674960403658575 7.757744696446149 9.850840703714377 -0.38659055711031487 1.428224923276179 0.559532725930417
P 2.4735243274461283 8.52499677338182 5.50943734350242 -0.3315681781278483 0.9265996111855075 1.1161387651323422
P 7.220196597353654 4.182273170709611 1.4931013503178123 -2.235797113382169 -0.9278715359193956 0.20941043894946518
Ni 5.459757985491166 3.111064858942055 0.48774491144358895 -0.18702898593047146 -0.768514819093212 -0.08299598137725707
Ni 1.4564550616693575 1.3521923277910393 6.863772106127236 -0.3990213266744999 -0.05687974390617946 0.6396642412756854
Ni 7.011598288633693 0.9208736685866185 9.08064949390857 -1.4038943169506144 -1.2880514642466656 0.29904732268200757
Ni 2.885467290406286 1.6307634869044052 9.03921846448175 -1.2637499113868236 0.49572488744583654 1.4757975308488198
Ni 6.562342542210664 1.9503987390918445 2.464852610762371 0.4253350248683642 0.48736391707565097 0.5550734046074828
Ni 4.362936969994704 7.0370106797134575 10.141726538189758 0.2639692480319518 -0.046243861458888105 0.21586930720093148
Ni 8.578525776304765 7.197388270712733 0.31123122604389836 -2.2543897887826914 -0.25928444096177283 0.5044733230624279
Ni 7.670645114551119 3.939148245373932 8.41445605897699 0.6925981131602394 -0.11191060752907822 -0.2716121092891903
Ni 3.330206897103208 8.587603581359057 12.409376808944256 -0.062225581599125085 -0.35626285266105095 0.34617770051090696
Ni 0.4147828500177633 5.183599683287917 10.095644613254683 -0.6781978785745094 -0.5277703459171555 0.4224368773849628
Ni 8.641478578857791 2.3846401419496526 5.701002703461036 0.3616184605460095 0.4821679746970083 -0.18901567734319705
Ni 3.8120407643730303 2.7694680563123395 11.338918759098938 0.2999970881897866 0.5630893329334238 -1.7428371902759792
Ni 1.1297542360394612 3.787347677806093 12.566000358796204 -0.29419565101666106 -0.6523865739383602 -1.35680610521356
Ni 3.3335484762957104 8.746242094358964 7.629165827986097 -0.9659143496247299 -1.3683007361167208 0.621066166558524
Ni 5.847044282366048 8.329664625107299 3.1450251370679263 -1.2380044269916033 0.3329588878277878 1.0768070574122552
Ni 2.9437855866678024 8.7799583552577 3.3577653650649153 1.5991891424343039 -1.126695714712582 0.4974369850409368
Ni 3.5167070785746604 4.703468473535801 9.04125710094279 0.39009265672630233 -0.9291943684958771 0.11215691921192943
Ni 7.2599768684491375 6.374230754425661 11.481229059657663 0.4166513810514373 -0.6105765798811097 -0.16472775133010986
Ni 8.335054856393297 8.912528908507923 2.3678238950541965 -1.146344342181445 0.6760924021957324 0.3177688103509108
Ni 4.7268048971608225 0.7442152117723209 1.5281496903333405 -0.5336082927551713 -0.34718942960487303 -0.7676403869080586
Ni 5.965565634815098 5.711377988174541 0.4140680980651436 0.541055750172152 0.7186927533647622 -0.7483177753200467
Ni 8.184328693034491 8.947401519699431 10.99080997434803 -0.4921662235603008 0.4365357786801901 0.6171362353764984
Ni 0.16528434039120832 4.812110770333994 6.000349926338576 0.7694710123588941 0.01654016374686829 -0.7119693185979996
Ni 7.427274350964221 6.526714206024666 3.0076042861723455 0.19350302369058933 -0.6068873039549806 -0.5924788418391345
P 8.661154744075766 1.667684750189409 3.583779037603675 -0.35807239506596394 1.0059667375609256 -1.5428711845688654
P 1.9110281984150606 3.2320445939033 1.2637105886169302 0.011794421531766784 0.3559432645381031 0.47101118674924036
P 4.743057537102557 1.1943641705081145 8.21596170238215 3.026423162552123 0.05610301364115499 -0.7462035571905212
P 8.811261759246316 1.7301458762399953 12.278419683031663 -0.10658456733047451 -0.09696041397714913 0.33996720082482096
P 6.618357243007049 7.7767106622717135 1.241216388630345 -0.04049641745214961 0.0015737722450230962 -0.13446458157019422
P 1.9147521926650155 3.3893628644429548 5.912716784387195 -0.7966167195357508 0.13225548973401738 0.3952459187924677
P 7.272933454800446 4.081497697950443 5.9353448296438875 -1.6867987113241723 0.24794253358639234 -0.07218552102531439
P 2.6367154006538045 8.505602866896727 9.967579273586066 0.3516011855193235 0.9765232354888279 0.9996976167227621
