# total energy = -340888.2389161206 ev
CRYSTAL
PRIMVEC
9.08557962764202 0.00000000000000 0.00000000000000

0.00000000000000 9.08557962764202 0.00000000000000

0.00000000000000 0.00000000000000 13.29766416952208

PRIMCOORD
 96 1
Ni 6.618290437216122 2.2072234242619806 11.45813138586763 0.6184328427007348 -0.28317693130865423 -0.5805021290932325
Ni 4.783121493019048 0.5971678830580242 5.8959178174552305 -0.2611101813166019 0.08193540132322663 -0.5483270870225847
Ni 2.854934386016002 1.8934347654585215 4.663756966811558 0.2407159339309661 -0.9024183859536137 0.9949940405995059
Ni 3.520207772921805 4.453205930623032 4.564516090613732 0.387300695803462 1.0508952226425 0.12285193703193036
Ni 3.779373927838812 2.501069236087602 2.5080860291267753 -0.3303566743182504 0.10019357620246616 -0.39431775055124346
Ni 4.7541294088704 4.5399368724227775 2.429270444177641 0.995280461491673 0.8031205820925394 -1.0378257910530513
Ni 6.037049575001902 3.168523162070709 0.4445991980508952 0.6157696940462749 -0.656368955624876 -0.07882025273301263
Ni 5.759076270543153 8.046207366408817 12.473222297039587 0.20998713738854155 -0.027484578573513954 0.3221954786636967
Ni 1.9711255556669467 6.6903754248799805 0.31551128467452927 1.3904880708470375 -0.9956679267380788 -2.7860594697542536
Ni 0.8302411622412488 9.13873012877377 0.04131576416720768 -0.10799687429696883 -0.25217302672797215 0.7544501134700297
Ni 8.168735491394296 -0.12629682335741754 7.048359976548586 -0.41084942965767957 0.7433637737488811 -0.7959083806148164
Ni 8.610122028537964 2.679164765226364 1.1045811434624415 0.1371732387506089 -0.3211248713073373 1.045958704572831
Ni 7.121622455314187 1.1485081031747202 4.588173122486577 0.1208703878255273 -0.6404903367214067 0.9028287340181548
Ni 1.0345385940676584 7.5055972156683515 2.055566022877575 -2.902257391804776 1.5311621236620534 2.5825088320196747
Ni 8.149401378242205 4.306809988320569 3.6719106022036545 0.21718596912982596 -1.5980226329300284 1.0899968166296519
Ni 7.826736108278222 4.331113913453014 12.557449253132228 1.456653353820201 -1.7102780253930352 0.21814704749151465
Ni 8.320237529369443 7.739732599093814 9.047304668052181 -0.5668925087295978 -1.84032879416625 0.6097396858021112
Ni 7.03614532348389 0.8304047026720465 13.466544159756467 0.8467570878355675 0.06005094254530948 0.466313524163255
Ni 2.1131695053942905 6.480180543407414 8.939101776246638 1.2852559037793994 0.8075251389181383 0.662291491756898
Ni 0.03190492093274541 5.023680381143065 1.4853223460765554 2.6024791044940145 -0.06047543167723778 -1.267217815330766
Ni 6.631873378551825 2.3552093429749767 6.773337668307786 0.5720755955924341 -0.8885287724557149 0.9436149147965814
Ni 3.991467695424531 4.001461832862172 13.357104720582502 -1.8886331376985928 1.058023349046849 0.9515318556508128
Ni 6.083222489963804 5.443861175759958 4.254547917985297 -0.3154720438969341 0.8099131795343406 0.759331352821731
Ni 5.7723048742787935 2.813367859854904 9.107809176099657 -0.9833957942389452 1.2560103766507207 0.4597842076851695
P 0.2305247741366261 5.928949350244582 12.327599537551619 0.15492799163086868 -1.273442456084239 0.7387111054682182
P 4.08434957453817 6.270031089832291 12.849838646565804 -0.7430267021244366 0.573551151696696 -0.7270177282906899
P 2.614784348968979 8.702204376656592 1.3062691968596782 0.8747731134325193 0.31456161626752277 -1.7961261315071066
P 6.600237390771947 8.374323984066057 5.658116402706052 1.1209660113176565 -1.0514881190314924 1.1936264150968605
P 5.016275633859722 1.4543377943460218 12.734015679243031 -0.5379958802999057 -0.7164129561916501 -0.7561064181265301
P 4.082705084650704 6.48572274689556 7.948080382256314 0.9536630430612026 -0.1649061858895031 0.44417581172395115
P 4.915489300590857 1.245160497776197 3.789262672554383 0.6080566416727333 -1.1755711002570464 -0.8403740671273592
P 0.3145136880466629 6.046462235352262 3.655088651780207 1.7466833034949467 -0.24315308261754895 -0.6952869728463124
Ni 0.9434374885338167 0.19607770806292438 4.5077621097792155 -0.43713484571676975 1.2534266750839447 -0.6030090519464969
Ni 2.2038890165896046 6.964578213850893 4.591590208932301 0.11689983321355352 -1.070114475883428 -0.12895213639239728
Ni 6.210702255770658 5.855556039134343 9.17049422322444 0.7364688464012606 -0.10769656944773065 -0.058526792591299205
Ni 8.845047857378947 2.6739859849177683 10.271168567506713 0.28503840999742525 -0.5504384769386327 -0.32123131497821455
Ni 2.5083831275760575 5.509967852120208 6.691012324002142 1.4518829290147512 0.14110522681516344 0.1970202928152284
Ni 0.7032465663790941 0.40740101850799565 9.080841359061107 -0.1390120917315606 -0.11799846559437098 0.23793811407551282
Ni 1.4732539708416297 1.1015992562742292 11.372587929307064 2.0482140547204404 1.4115662316735755 -0.8044963793941435
Ni 4.668915758845277 7.070170818669313 1.6403332348502644 -0.8283878412997603 0.07914935393765724 -0.6350948767374482
Ni 5.897449646157036 7.919272735371289 8.04851782927281 -0.11176225487667205 1.4748467368997762 0.24384033849256068
Ni 5.33669676568998 3.0392081092071237 4.7757231056413465 0.3405228162179748 0.4992766093528368 0.4497203956912642
Ni 1.0474946304186366 7.516000204182988 6.7582456122189996 -0.20600398437107748 0.790547116302903 -0.19416662541651722
Ni 5.363490139602346 4.726173080783472 6.965742076583403 -0.17208033504043913 0.7490358844329938 0.49798848666903267
Ni 1.0869351309793633 7.27301546633547 10.979029699708152 -0.27082072373614646 0.8304048717297892 0.13690378713930615
Ni 4.784738726168048 0.5985561596039074 10.337696814755242 0.4832532373413871 -0.4461239365892575 -0.55232078156301
Ni 8.43667831609745 7.7132299637250865 4.478692798204913 -1.4647225039815808 -0.23048397179031277 1.1298103490821638
Ni 7.2366822339599 6.255893928147773 6.78940188140187 0.6798480125834228 1.0510428039639577 -0.5727700505562975
Ni 2.3828931036772425 5.687036710776739 2.523125388854527 0.5025470525739926 -1.4650140670800704 -0.1823691185609569
Ni 2.9667142704662717 5.308522383695321 11.291059390322586 -1.0166704971316747 0.620632421455215 0.891924171290509
Ni 1.5296299915694134 3.5502628698706378 3.6296635661388486 -1.6125015432724938 0.0067638010863948035 -0.7184266441875692
Ni 1.5330370838777 1.2948586175797387 2.1978516490193205 -1.04057867120784 1.1518115359436034 0.2658965469616517
Ni 1.5113225488995528 3.67511690320524 7.972534219450323 -0.987026963233629 -0.12360115649312908 0.6113700223166825
Ni 3.8407197605469503 3.1055237538956155 6.776835616410961 -0.1177153871363134 -1.47457085753057 0.9983981811850483
Ni 4.860358004253035 7.159609263156711 6.002140052932223 -1.2252926358518899 -0.6505994001309504 -1.469562091462069
Ni 8.132038835839175 7.399105138480543 13.460826604584184 0.5694155322617678 0.32458891859653777 -0.42594206232474385
P 0.27508772441311824 6.061744180052364 8.09362318864478 -1.4603251462448334 -1.484521798095695 -0.5306540952228538
P 8.741908359022492 1.9759681695344582 7.815382768149061 -0.6228114313844048 -0.09003077673685139 0.9885570267249102
P 2.2013813966507056 3.4554548479053806 10.275357928208981 -0.7464670952645531 -0.6184356709142123 -1.030577079910438
P 4.190478228546428 6.382038113769779 3.6305684898559294 -0.22105599360819347 0.27519776975791954 1.012653919773114
P 7.1108015301430685 4.071657019992366 10.228589907790568 0.7647216705993669 1.2430219348108527 0.48007612516498605
P 6.602963064618576 8.185380273017712 10.44068730960808 -0.7902241857458455 -1.0323159169784157 -0.6131078309433957
P 2.6614842275412283 8.696734857804355 5.6791395250851044 1.0170970431461324 0.809620073773954 0.6377204872857534
P 7.053053586912481 4.4285749246289905 1.8409682695847531 -1.3646983634774432 -0.26579781660025836 -0.8035908368607386
Ni 3.0077629185965096 1.8811601475692008 13.519602126854952 -0.5232035524820796 -1.7422172973037933 -0.5466067618973682
Ni 1.3499717427585842 0.9680957512663235 6.80027913716582 0.5362575574525603 1.0306429001513668 -0.07512017817360611
Ni 7.181396482770769 0.8512333936500391 9.30288656186087 -0.30546222506941584 0.6193718095752365 -1.1989105463139351
Ni 2.6823992315243643 1.6531121024012116 8.827628075825139 1.0876671400552107 1.332854222383653 1.552985647295048
Ni 6.509208969874016 2.3969394095668726 2.656021977152583 0.34275787619608067 0.11066387960617069 -0.389921935476393
Ni 4.293018078656624 7.307104560577314 10.166875200555186 0.7064489030004026 -0.7308959802991736 -0.3456022876234113
Ni 7.2142499382021406 6.179166209365157 11.379156803277441 0.6043105443667399 1.3478311554084594 -1.3095471722265961
Ni 7.94580262747848 4.334084897945839 8.042573134613312 0.4097256004658814 -1.185837515180061 0.34394752562880765
Ni 3.443307428128902 8.444973450170691 12.122868723583595 -1.1515564825100038 0.4893272114496089 1.7197232299663348
Ni 0.5796963137011301 4.887578400401373 10.205491639056282 -0.53963598700649 1.1658525874177017 0.15666142938220762
Ni 8.949686476351047 2.740392485401148 5.723021965457889 0.03737689798656144 0.452041330514957 -0.37301821774251886
Ni 3.9385805372204326 2.6124402694608775 11.070784058407234 0.046729542846055 0.4883666473085525 0.5971993872432554
Ni 1.5612478081903138 3.73026637070204 12.692248361775233 -1.6091961330483449 0.2952230638399109 -0.5650078901123753
Ni 3.396325896592501 8.794931800918922 7.822962867116538 0.08165592240959485 -1.4885566302867008 0.15300737756938812
Ni 5.873254747978456 8.128631743530889 3.56975779777968 -0.47334960507442986 0.20623769764843836 0.38723076179747506
Ni 3.076795151552142 -0.1103107462469364 3.377088090582991 1.7246132110687848 -0.6975004355578632 0.22175070568237296
Ni 4.128423720638167 4.86524604601799 9.40438702167755 -0.39280979854714937 -1.4913809871093735 -1.1630266879331324
Ni 5.451393121156143 4.388752829729736 11.68940481175413 -0.01930769918967643 0.0025837015667761953 -3.0646603516564506
Ni 8.208166906375533 0.14645863280093482 2.571887693970726 0.1361954482183719 0.04050130254815605 -0.882616777846654
Ni 4.809451502377487 0.5152795551257897 1.4541797052629175 -0.22295321063090634 -0.4666822203565833 0.09461968165911447
Ni 5.986915347382899 5.683275280868391 0.06707338201785504 1.420165543306812 0.8194663704404145 3.100959443197801
Ni 8.437568702887347 9.170257089599783 11.212802568512009 -0.6627697169448973 -0.471060294819621 0.8802403071946776
Ni 0.3744567072817355 5.328837739432199 5.743354583795795 -0.8650486870559038 -0.6005780739075012 -0.0936352062586581
Ni 7.588512214082817 6.4000639034754885 2.446810155380701 -1.2757487356199124 1.7872614820276251 0.2988287789132983
P 8.87517563896369 2.063789380872856 3.484373338860169 -0.2780213552496437 -0.567282545079165 -0.06421767232848939
P 2.1426794675737977 3.5923200173241288 1.4791387006765024 -0.22765241587878857 0.508238446531815 -0.2343750793146028
P 4.894592467766699 1.3502715668817133 7.9319098678822115 -0.6824854502062698 -0.4486683002776661 0.5333972051856297
P 8.874466963763567 1.89954936045446 12.467570158039628 -0.8123091905703429 -0.06330750180939419 -0.4851890209115193
P 6.5921603106064355 8.15149106152462 1.4506154324294753 -0.09877381303680409 0.22773212007678845 -0.1565696409993497
P 2.0039790110983193 3.513193705556479 5.8251611415126305 -0.9399374659449942 0.34879791174257346 0.3500770355653133
P 7.05924086654433 4.18811597787935 5.746997901170789 1.208525700806196 0.7471281258873197 -0.1285700704626302
P 2.54807802436247 8.678945293165354 10.14833789272426 0.469666756906204 0.560756571035189 -1.4082155700337877
