# total energy = -381164.74068966764 ev
CRYSTAL
PRIMVEC
9.28916183311167 0.00000000000000 0.00000000000000

0.00000000000000 9.28916183311167 0.00000000000000

0.00000000000000 0.00000000000000 13.59562730563149

PRIMCOORD
 96 1
Ni 9.016367081003681 2.694061312119874 6.072785875464078 -0.10586208734215317 -0.21531369180777757 1.1216905481885069
Ni 0.2578067547493601 0.7980718420942565 2.271149922703187 0.4791492424753426 0.599918071725999 -0.9979400106017071
Ni 7.560002989398678 2.262347512888191 8.354431622196353 -3.2203445047270542 1.1354878590829154 -1.4669452226645125
Ni 6.636372332671288 6.527261837011787 8.712635638744443 -0.2447281404141527 2.8539417354185233 2.2597096583337084
Ni 4.334202182724329 6.8381236399442935 10.637463311883879 1.2859328752417662 -0.2761591052299244 -0.2205641415734395
Ni 6.659883201436332 2.840867226763392 0.6888796018100481 0.32283002692390206 1.142671521315548 1.4046260529103165
Ni 9.138853969796989 6.208095523342042 4.209382785378315 1.1721240222487106 1.7965403362263899 1.7672960946492917
Ni 6.809643069563565 5.842743496713073 11.566901552630197 -0.14621092347284498 0.9236089039882995 -0.6983309018789586
Ni 7.194966794274258 0.005753706879916178 8.637274526094485 -0.6106940792955805 -0.7086482246445667 -0.6083340637038361
Ni 6.589489932569678 4.510510475557409 2.712110153688613 -0.16179206574055363 -0.4996933851752814 -0.9528711432875268
Ni 2.8550331986585684 6.398829884603455 1.8317112564367313 -0.412459968677909 -1.1533048326596782 0.24950653563940253
Ni 5.336075450122585 7.4396433186801225 12.874882429901321 0.3753332390289407 -1.5340134770679195 -1.2814087621191674
Ni 2.67147007038278 8.14644635837328 10.123263612826108 -1.558969889902941 1.1037614745139122 -0.19399770393882074
Ni 3.0259444884286326 5.418321689571694 5.762928230932796 -0.29100182666971175 -2.532627116697883 1.4720717452578005
Ni 1.3476251624214395 8.619794181233933 3.608864478295142 -1.6427860531886482 0.8459816431221238 0.268754328125421
Ni 1.808023893595617 5.9835393236082774 10.206781538539119 0.389682051551445 -1.0237441161490046 1.0767008708516939
Ni 8.076415366820667 7.971150584187135 2.7003909470374956 0.1017264679072248 0.5870296457991051 0.6437306980355751
Ni 3.0675506445719076 3.7907769225015717 3.3548839293317645 0.625665098783116 0.6287365386195881 -0.7806288287479265
Ni 0.9520647812986259 4.011747505742524 4.507317790612903 0.5143461020914497 -0.3340593199808182 0.5721311314207178
Ni 5.597184501926854 3.8099311743362296 5.494115677166121 -1.1948145218676907 0.08266559462103183 1.2625882869785545
Ni 6.675303210187803 6.588031534151618 4.241495418061347 1.0712727578575874 1.247501310738445 0.07957898527590812
Ni 7.294695236416298 0.830043279516432 1.5799889027308731 0.41619758134347024 -1.2670720337815211 0.3887615966197047
Ni 3.5018654091351635 0.6325324746500812 11.879356446828295 -0.294301580466906 -1.9646364898081004 0.19262344929911343
Ni 8.144068332927269 1.094495500687962 4.226893784473132 0.4451957683480332 0.8442659459825976 -0.27793008108741807
P -0.010077811743656864 3.395067914788383 8.693805578660044 1.508895598954369 2.26888309730286 -0.8724629772421039
Ni 9.080573768045948 6.645289928093826 11.501166798455632 -0.18888275130975857 -0.2974450111918942 -0.8432475320204122
P 6.627510472220141 2.738751470013443 3.87997424179931 0.9810545477002781 -1.0062457022539253 0.8510063500302246
Ni 1.3244579926466398 8.073498569984546 12.506658194413342 -0.4204285887056824 2.225154031846026 -1.3632893989450585
P 1.1772712223652837 5.103530571156131 2.676408188848009 2.641801299132405 -0.8749448631236931 0.6599037082510119
P 6.779611209145791 7.781883910505681 1.0113640041099288 -1.6541477580583706 1.3237291201539332 0.17909507579537542
P 1.4180091421261938 1.470409304395498 5.362876540032069 -0.7378076198173422 -0.18634892914431134 0.08005181114726859
Ni 3.8265216174869083 8.154964519834182 0.7681802480211499 0.9329708048191738 1.106767351219771 -0.3465093728187129
Ni 2.349916442105126 6.800493245093566 4.1203183010957245 0.96980545714902 -2.123184851800376 -1.4322484426132753
Ni 6.189006295640673 3.3374472435321345 12.05560993360617 -0.2986079211517438 0.4886278713897392 -0.26623773235115433
Ni 5.077576652811789 2.6889801405614073 8.537714217782808 -0.12816589304567605 -0.6469399490014923 -0.7335439594449819
Ni 3.127632943731252 2.7735579596470337 5.683475242466559 -1.049077966928103 1.4055678479982954 -0.239438095659807
Ni 4.324922309987752 1.244766272719612 6.866634864559286 0.010380057682743412 -1.1333052496093 0.9550660940563165
Ni 3.1242331104764096 1.1971035830185306 9.669604168609276 0.8305881913851889 0.9203826837415181 -0.8442271223248622
Ni 6.117154628355959 -0.06180079411056237 4.030681604440188 0.28239608727857174 -0.6692766648254797 0.09449575448674047
Ni 6.464847958215925 1.7496972460350846 6.312150857096392 0.9909450673411127 -0.6772632825753819 -0.5856931863758686
Ni 6.002842202033311 6.043547309472434 6.602295042246729 -1.09072083927987 0.5177659264062761 -2.8728380581023942
Ni 5.2739959811550685 6.572481477133569 2.109742374471454 0.14908875924127227 1.3994095417063834 -0.4631577521430927
Ni 2.1455270128529538 8.89169723916423 7.912845301698969 1.847712745335147 1.5730988731051552 -0.1748797521624472
Ni 1.7806951792902999 4.45350288898646 7.674854187111438 0.10213141665512733 -0.14076352720502852 1.0294625066900205
Ni 8.597286541953926 5.611443365441015 2.225672043880627 -2.509561750237988 0.491942794695585 -2.840808026250043
Ni 4.550193775187699 4.954263028609517 11.919137282658518 -1.095729348238055 -0.05395228584673935 0.46362826402160795
Ni 5.793659565241524 1.3810104102845628 10.437077511409951 0.2386531378646664 0.5842315142286777 0.8161478475901429
Ni 4.870261137561596 5.353576231139314 3.9177021728499715 -2.7055428031554247 0.03008164987672884 1.4964499169918486
Ni 2.1764134761653873 2.2134029188451194 7.741744513026176 -0.8375921335068478 -1.1349327579103936 0.20246717486241259
Ni 4.604238119113034 1.8603683208935304 4.229681461958865 1.4963673845803716 0.2236219545631568 0.11057466232647409
Ni 3.637208497995963 4.430242827592676 0.4890948101109503 -0.2367170971842181 0.703904025091362 0.23157154842753663
Ni 0.03340289727073068 5.353232532149071 6.475706059559054 -0.05705894979652109 1.0494577188650247 0.2546811378618065
Ni 8.828010745188278 3.1926756553443822 2.5250069258133148 -0.6957531138494534 -0.34676442625231246 0.004781994769675635
Ni -0.06393451459864237 1.3463061014318558 9.281149996338796 2.85412659773582 -1.928423273112337 2.3827456863519867
Ni 8.20777340522702 2.9385334749639713 10.601339619093086 -0.4529185909135877 1.1475841281258172 1.640314451719704
Ni 8.950088910858053 8.170886143328172 9.666192259443966 0.9911445849464285 -0.20319711104990165 -0.19011096728990484
P 8.30744611239767 7.544257859980761 7.309145456665568 0.05218002443766498 -0.406477525842229 2.1273708648572653
Ni 0.17594694443522815 0.4335567689523405 7.285121826163729 -0.9180640629106704 -0.5633538994487202 -2.203536967796883
P 4.89242507785136 4.749186201376856 7.834031407571348 0.7067016424411572 0.012162603504462924 -0.6791723266726368
Ni 7.756403739418162 4.4987503965939375 4.970412236570017 -0.2546489990722905 -0.6298248865877605 -0.41045322266052536
P 6.3690023857474465 7.80201352433968 10.632025436508513 -0.33770411582225707 0.6371738707536639 -0.8423293910815172
P 1.3390326876653489 0.613568650634342 10.833009459008705 -0.014263709007865758 -1.1440738009797136 0.4432170473551077
P 2.191712725812178 0.026413731858317167 1.1228896818630343 -1.4081626053086653 1.6912696026113325 0.8210198309704634
Ni 4.558043116991912 2.038933880067939 13.4065392509149 1.1276539648607933 0.07022505486483391 0.49174044887679186
Ni 6.0529479413136915 8.44351375588655 6.3624683892680585 -0.8615476158811809 0.1278535040115798 0.3515284232998591
Ni 7.664719711480201 8.959025084604386 11.94150186884529 0.864389199095034 -1.773520735402765 -2.759923434788834
Ni 0.3084410473417642 2.912978990581263 13.15604027983107 -1.1907727476981493 -1.736636717892222 -0.17888450244646611
Ni 8.998708384234678 5.751068757937011 9.063538374040332 0.10286109573230026 -0.5948848801774658 0.34711435339256347
Ni 8.15528964050063 6.66172245549223 13.60935881180623 0.9383431248746807 1.8695264987761284 0.4401183538251259
Ni 5.026411949074981 0.9545264092017222 2.114323789119782 -0.5217503649753208 -0.7937255140308846 -0.8530619470076728
Ni 5.964830951544746 4.321726838294676 10.044748829711617 1.4196330678421099 0.2181424195058243 -1.5394318198700132
Ni 9.04971517221921 0.1360741459022088 -0.0708419353863493 0.38316636192011433 1.3471973784792026 1.3347714940110238
Ni 4.8353617563090205 9.067810459597442 9.07494546485166 0.11359339454813984 -1.4005590819297944 -0.4199225956035413
Ni 8.120436705057546 4.583709071317402 13.042340009277531 -0.4313946007988829 -1.3617652489910483 -0.21523090228598418
Ni 1.3382802655515722 7.525865319421778 5.9611933157453025 -0.6227330127379855 1.0296679378326072 -0.23672635315559876
Ni 8.291998236160504 8.302606459048564 5.419053675529295 0.03566557172240954 -0.017769408168279075 -1.550092127797337
Ni 6.007022324887624 5.414234458336364 0.273486860033988 0.23309184172680503 -1.2886808703005483 0.24856602610300416
Ni 3.7651667031474725 4.563486565864419 9.533661928806024 -2.4245592799536633 -0.1594762731231834 0.8411651955700868
Ni 1.6466247056095924 2.8654927949562525 10.460149002817197 -0.5788869620873127 1.1015271858667544 0.3153267765683215
Ni 1.5815169698631724 6.798533231932988 8.01001365082179 -0.3495543302926238 -1.1638101030663763 1.0993474046066163
Ni 3.771706273124 8.485045598734636 3.1839187624226892 0.8615023644655421 -0.6599152782152378 -0.6764706114707575
Ni 7.383378865061052 4.722972186499357 7.77548925145477 0.4571652820050836 -3.436584050783211 -0.7748926975950977
Ni 4.013168747512991 6.976903718707528 8.07676835497281 -0.10227874086626901 -0.6540462210289704 -0.76519963867705
Ni 2.77412459852284 6.555212925164301 12.801112550684572 1.557828577209646 -1.7511701356217069 -0.021929453083239653
Ni 1.1407276594566782 5.076304037631697 0.4708276732375968 0.19992178273273956 0.4063484564635324 -0.07059529372005907
Ni 5.827137704723633 0.31209168796786535 12.915751026589856 -0.9756914836161519 0.6140506544726393 1.5375567143344875
Ni 2.5149848490410487 2.579145090273824 12.869512365407811 -2.3454153253326444 0.46326033915922793 0.7767222946046688
Ni 1.6837534857178018 2.759902891656273 1.5532872068537031 -0.08040482361131313 0.6288805203966201 -0.4966926506757446
P 4.559482937086176 2.942834356922966 1.647572200123237 -0.2548539159942449 1.3931345073309491 2.2958498556996907
Ni 0.8327863690250521 7.683585999296006 1.2397584855401436 -0.21637658585465316 -0.6449969663425086 0.7367696654711311
P 3.9560961368087533 2.783283712154738 11.450509282958482 1.1986454655780066 0.8803341524600645 -2.828139686753755
Ni 2.588991601886209 1.4086921127420222 3.1125826436233406 -0.347751215645614 -0.8278134568535293 0.2249969805338125
P 0.7466851273880759 4.762311787139404 11.958373773601492 0.8693773963382446 -0.4808474561133719 -1.1477345376607526
P 7.434125556512427 1.762869277607124 12.562685774404002 2.1074106196852544 -0.6747070918124316 0.041566253477560676
P 4.020414293793802 7.171010045738088 5.580012557241331 1.6480989807611295 2.223212848959255 0.1581449559062696
Ni 3.1548130314461935 0.10260715341437862 5.174781229666014 -0.6252524367257296 -0.8693881949715221 1.3729575181624418
