# total energy = -340868.3696556038 ev
CRYSTAL
PRIMVEC
9.27740906450957 0.00000000000000 0.00000000000000
0.00000000000000 9.27740906450957 0.00000000000000
0.00000000000000 0.00000000000000 13.57842594078598
PRIMCOORD
 96 1
Ni 5.434019589358603 8.26478897163469 7.944180275812661 -1.4250190147443718 -1.9125857918594482 0.2546644256912582
Ni 1.1247559420880746 0.06756829656060623 1.084928025797665 1.2347039018634607 0.5196436030449632 1.8296975397046489
Ni 2.8784459864727836 2.465721897953926 13.001464701151303 1.1328869311249585 0.24148366533492605 -1.8174806859234827
Ni 4.190587032971223 4.765443118949014 5.314188865395536 0.5731821983930515 1.8557541275823848 1.1025710537502367
Ni 7.30801907200421 5.580983023310706 2.2185244108005153 -1.044039633173247 0.24502201750548772 0.20097902035266033
Ni 8.392594556264713 0.6665001863038849 2.7993421597198886 0.2019051317113555 -1.93188912017375 0.049534873505334046
Ni 5.826602423214875 1.8942984532590275 0.4232446701804749 0.3665804325369751 -0.5789849211177577 -1.6760908379883648
Ni 3.1484185846677337 9.009644297795445 6.9084856034205275 -0.03990763482821514 -0.08568612661491048 -0.41229001875894794
Ni 1.5772522824441055 4.278230714591419 7.174758370957053 -0.29230640441374817 -1.0115537447303997 -0.6285406205586982
Ni 5.937847833007165 3.5964246591293882 9.184555925976493 -0.5048571887644079 -1.2248858873317745 0.5277613470560911
Ni 1.8508337926905278 0.8419972189847987 11.166720718668662 0.23737272849034602 2.761819366259966 0.7063596857207061
Ni 0.1108464812107651 3.957102483872518 12.928059986668893 0.11176405464888493 -0.6094843752581954 -2.335266924044733
Ni 8.01673889060588 1.500862097786469 7.610870807243933 -1.3072933431954132 -0.5999049590998765 -0.88187655724652
Ni 7.875564559790329 8.359168052096452 7.978302585646373 -1.5213533651017477 0.7280374278044558 -0.19037707646709792
Ni 3.7798112003156277 5.024004504230568 2.89638663975077 1.2133845715603944 -0.2293657990254695 -0.9907854018347968
Ni 2.5147158942105428 6.815332996411735 3.608683827213746 0.10783875145254976 -0.02493532978909899 0.2196043487633315
Ni 8.102861077170957 7.863531760482465 10.792213988259915 -1.0787994052519356 -1.411249728874421 -0.3785584308344577
Ni 6.498704308996083 7.059096914541367 5.91400210898172 0.22586189963726908 0.8349282135214395 0.218477691358056
Ni 7.811058735898595 2.9345186456992534 10.777794111649113 0.3219514809736907 0.5570120163910923 0.462484637335468
Ni 5.943534884646118 4.172421866398517 3.7109431387719596 1.212264084802706 0.8646637929126592 0.540569554564353
Ni 1.4080137897887006 2.4779124132126267 1.1190132259958867 -0.7238655558149534 -1.8771310505962637 0.5083006672283181
Ni 6.608762210452671 5.22928573035633 11.341230635045521 -0.028414289476634932 0.22369240278977603 -0.7740447477725055
Ni 1.601030281384781 4.358610185064307 2.520264712457292 -0.6136487910485302 0.09225555230231208 1.8316896304340133
Ni 0.22545773494206317 7.251111445979198 9.020528553884873 1.5295392433466495 -2.011688963211213 -1.599077556557104
P 7.0113460910736904 8.964444761767755 0.16729209227391684 -1.7929500477719704 0.1053866903676314 0.11991342322889673
P 4.003072044836641 4.09010341747124 11.208433804441999 -1.1241811758208446 0.0793586417349859 -0.6165929612785187
P 5.337089221456856 6.70618428102467 1.7266872181198902 -0.35140758145127865 -2.1007224090318015 -0.9893692382135607
P 3.492610453844114 7.880101212729069 11.159320129610924 0.37673603291373825 0.7643195500649418 0.07124629704049665
P 4.166215279862696 7.082160552998847 6.2932199076160105 0.8299716408471125 0.6101680315887814 -0.6645769453569652
P 1.5582057620284961 5.116314722513722 9.064590679584771 -0.3733766295232021 0.27511600867739067 1.6978048326266888
P 8.356728093562937 2.6395341531835617 3.283819583941818 -0.5039197645518031 1.6284405831002535 1.0069589262708658
P 9.317208956742489 7.647256804842579 6.626516387812315 0.38526541054098806 1.2189594945450104 0.5331200402648432
Ni 9.087157048926676 5.160790620649343 10.915302938219067 0.4914095478999344 0.016749708654513088 -1.7063496368729063
Ni 2.3568422274241696 8.441848319969765 12.871288738554313 0.4888682695353194 -0.07812605487946546 0.7579853803167979
Ni 5.100598791883404 6.854873313027092 3.8804293382442645 0.04801020933069151 -0.15550417584931284 0.4207008685304626
Ni 8.89020693596858 5.716191980221127 6.046255283425303 0.10053784691576234 -1.9563392827963144 0.2894673923030563
Ni 0.08455337672470639 5.7839820068537895 1.2389747614240587 0.7429346566312625 1.2794084438596869 -0.6939538558571855
Ni 3.625982483797743 8.037882105426716 1.7405504501983342 -0.5626525025063213 0.7674645234518266 0.7117145222747162
Ni 1.3881879670277861 8.452201908271674 5.034350670605379 -0.7832169011900769 0.6131314850924796 -0.4377339127533494
Ni 5.166997207185165 4.851017938390601 0.221917475716249 0.7841131877521011 -0.6961889158352914 0.5699703763239732
Ni 2.644386238023973 1.5660544499347824 2.9772188477766446 -0.29326259767943047 -1.3007303452659147 1.0031601213500658
Ni 5.6620397446313 2.994311545883668 11.864584113407524 1.129200740522623 0.191724848744244 1.2082253959569578
Ni 8.515251178970399 0.9228628256826154 5.167568695571722 0.15068387164253405 -1.2271577140850864 0.6796862901945778
Ni 8.368120751658587 1.5291489174392665 0.6753165079555914 -0.13334666591566713 -0.4791849808092844 -1.2207914055474265
Ni 4.320999569494467 6.12682865174363 10.296194539659488 1.0525543555124777 0.44429485380031863 0.9329720903707545
Ni 4.051203242068098 1.8155518067477308 10.905186851584299 -0.4700362244304808 0.03516754904006846 -1.5234570417083118
Ni 2.6646666538196486 2.275535016064013 8.99687487222309 0.010037329631344004 0.605864519117421 -0.5513761582615537
Ni 8.848931743894033 0.761601976916827 10.187865947216768 -0.02165254527276916 -1.2927416706334833 -0.8845898424126251
Ni 2.667561205387924 3.1332592985697767 5.13132742555149 0.41443637567798947 -1.75757938158216 -0.8044102474382404
Ni 2.050845450576608 6.522565804616613 6.238050868013739 -0.46302971120566055 -0.29450289784443473 -1.0744964070012075
Ni 1.1410841817039892 8.100949930943186 10.885877780497593 1.081683154557634 -1.5371754197356686 -0.4457107603112388
Ni 8.77920273880698 3.6995245039314666 1.4254627403964348 -2.6182919031565555 -0.7698517927370806 2.4297469948021897
Ni 3.285251088130872 9.139453802741965 9.268293818461292 0.1977016351529692 -1.4974109953535373 1.551266350611096
Ni 0.10777658661479571 2.554033553012955 8.980282226454305 1.9083324158997328 2.990047195026251 -0.6725337383101966
Ni 6.208005979379569 2.1314383014535676 2.5633211670353937 0.4697657443779135 -0.7919190569497652 2.018280243275485
Ni 4.898694542587298 1.2299895909308691 8.404217294100405 0.4605213429615101 1.2842184636538205 0.062072858071344716
P 7.377256374421012 5.700197727324628 4.496115300670714 -1.0019802421093518 -0.9724035568934993 -0.2772978468200579
P 4.313197268632544 2.8321238839714993 3.6656044416111784 -0.30434173831172745 -0.12461108581488217 -0.1868109563823944
P 0.9796850995459979 8.257868024615673 2.902565394059974 -0.4294104804893185 0.10890704481606404 -0.14284894897914752
P 3.3245501921155385 0.6243167359007021 0.6887576179303283 0.11597809273023253 1.573620035715948 0.11439377896224816
P 0.19637491360799 6.681330102654764 12.227019079391138 0.11755880695379108 -0.4961750876093777 1.2112073614034173
P 6.463227497466961 0.3113359256537881 4.269559120518125 0.1478137491835906 -0.5036145746065585 -0.3599953231202897
P -0.014465335914280626 1.6789234062797913 12.181382577405545 1.1576551392085739 0.8555942265112233 -0.03902086134788764
P 1.8799555791418663 1.0961351357158609 5.682068742646527 0.28611570222200405 1.4166079078625409 -0.4458164326511677
Ni 3.9117916189383553 2.898299641460316 1.4958532247361098 0.3333754065399162 0.4559249818400793 -0.059128687841356234
Ni 0.41686830706228284 2.975775282956056 5.1550766645246595 -0.5922363868110252 -0.13211665016330795 -1.1754338033482337
Ni 2.2230063270269063 6.471280288368446 0.7215059435099969 -0.21247442258676952 -0.5614512831093685 0.415897019383916
Ni 7.020076132822881 2.7611145964600166 5.570548721551605 -0.4764776091804504 0.28876933779476716 -0.07108714575481306
Ni 7.801233959902428 4.822610512422459 8.895769670328638 0.5203768816665619 0.8811695038771663 -0.8174542251063922
Ni 4.71725625726432 0.20590466800200558 12.474458706916126 -0.4296837887553632 -0.10987275116344304 0.5910176839125756
Ni 6.024183399976313 7.593874594189185 11.884639088167592 0.30396455747796686 -0.5104303119768112 0.591332129829201
Ni 8.439965005968611 7.933483423382462 1.4325645968884704 -0.261162374710776 -0.5298691374277132 1.6647959818008362
Ni 7.340183848565787 0.7139096011250476 11.897009585158422 -2.085302732042621 0.43005582738280124 0.6778165839756907
Ni 7.64691354071429 7.6120119285352725 3.653085506078386 -2.2681773294850873 2.924013809645261 0.4977591442670459
Ni 9.104923286917856 8.587911845261218 12.998653646262879 -0.08475153061578308 0.942556648735396 -2.382647984431858
Ni 2.3227291949993294 5.688248424696618 11.877116965053624 -0.007011655431142763 0.019124893754908997 0.1592541298100483
Ni 3.8636233120714074 4.531828686126091 8.750996632611376 -2.317340421473299 -1.8057574839492838 -0.0674469778990645
Ni 4.221972507187495 1.8928975645192527 6.290803142604677 0.3976275316507668 0.35435175168126715 -0.3739268455997173
Ni 5.922892649904408 8.702729057469488 2.19072929381797 0.5777243092377792 1.3729760301052032 0.029924041252942013
Ni 1.5510621571965335 3.4509085009614227 10.97842828367055 0.6404345437828067 -0.35950012865142605 -0.6757836127060619
Ni 5.885745904778202 9.000468940420367 10.141426949363689 -1.1416340811899692 0.2977543149021969 0.0174827301657957
Ni 6.165385563018483 0.4079499339129768 6.4205310063531185 0.5571120323040664 0.6743738768427289 -1.160210044419944
Ni 7.418522289086686 6.332007826371792 13.411166209859442 0.35331148334221085 -0.2457139013661897 -0.12212817149202837
Ni 0.12841696587473128 6.397998035683156 3.726056037825553 2.0819919225018335 -1.878614577120326 -0.44779798185757075
Ni 4.186170986347828 9.146922116884472 4.514473437347971 0.20989354923347078 -0.1588877476095651 0.038427964958895104
Ni 4.245351577546645 6.854335223312476 13.148328866828468 0.03300190884731735 0.41143846939193013 0.024599800826551183
Ni 5.360969271895131 5.832020429996519 7.666610407491874 0.9619049713550208 0.3947139575483976 0.4686221176917736
Ni 2.8941340848764834 6.785932887694216 8.325896480656365 0.24943017387551233 0.25892345807792827 1.229433911713773
P 1.349018746767337 0.5737567130263778 8.948847581971009 -0.9248453474985621 0.11068393421082874 -0.3976123621421152
P 8.64274133169875 3.5430146162493767 6.855788065541938 -0.553206526602073 0.3508460525208538 2.5179016375622507
P 7.18216174323745 4.013416355729678 13.243473333522225 -0.6479061695695034 0.11848440409185401 0.172499939076361
P 6.405234414603846 6.864224941170752 9.573903727358863 0.6872198795674617 -0.6994989540451307 -0.1678002196078465
P 1.571175579632501 4.899269741937403 4.759373838064507 -0.12603624829718293 1.5125475938846595 -0.10834603010627147
P 6.758184157756034 1.4653296218041096 9.464828303501893 1.033848294462542 1.4890140295390937 -0.11672936907396027
P 1.9405741687159488 4.375226024355275 0.43235230247078354 1.4713117271633243 0.7431089774255976 -1.1791919848390853
P 5.23787661097243 3.7648931268483605 7.033923593306241 0.10515889062754147 -1.2866957215497197 -0.19450601103380694
