# total energy = -381174.9826835274 ev
CRYSTAL
PRIMVEC
9.13974233289854 0.00000000000000 0.00000000000000

0.00000000000000 9.13974233289854 0.00000000000000

0.00000000000000 0.00000000000000 13.37693676351129

PRIMCOORD
 96 1
Ni 3.2623487789954346 2.8290335935385285 13.20322429175453 1.1096246181629084 0.5108779410371911 -0.3716958993866695
Ni 6.4307135872662675 5.741129165677191 11.098630441282795 1.4443817355416997 -2.089752540283859 2.0454442052847868
Ni 8.845424379979391 7.610115081603848 0.40507520950194414 0.6272103317830487 -0.0666296242040917 -1.4839831519834057
Ni 3.723860069643958 5.269893189153828 11.822108683452937 1.1285921604043465 -1.3469173853449385 1.6419710134865204
Ni 8.771136554048285 5.866828042403385 4.595820738304205 0.48716157125685783 -0.14527812724593042 0.8373771892825643
Ni 0.5953765271765673 8.556242931596001 8.566737183777853 -0.12130876091452657 -1.6210545750488274 -0.03037706962996059
Ni 0.6144310620561404 1.0051888651455503 5.741982817613949 -0.8446451836988873 -0.9837835165956671 -0.43847361913285127
Ni 7.752740761187375 3.1345112025561654 12.347447364897459 0.8935959025659771 1.0038131815530325 0.5648664794385047
Ni 0.706589826230737 2.7544715753365154 0.29020052965692805 -0.8382876169119757 2.2930846342497277 -0.47144236074938806
Ni 8.029830330423758 3.6336782317426017 7.371307323257279 1.3881949039374868 -0.03392339222032222 1.4517721144684996
Ni 7.41574018075778 3.0091687757821513 9.909233724696414 0.30746819975585116 -0.6841186149343186 0.08010297610017818
Ni 5.18641078240497 1.1765864536895994 7.012644639451786 -0.736175483530558 -0.6728281296221639 -0.8575220396615555
Ni 4.278870924671813 0.46107349698930805 12.816710985018764 -0.8036630848595707 -0.9272608989185902 -0.36020975312394093
Ni 2.2804388376499 3.2055178609787496 1.9994511682954514 1.9967593384845737 -0.4964635653840741 0.22970338487054634
Ni 6.815085452366251 5.644302735077519 3.338548639029 -1.1549020019434693 -1.3301576493880962 -0.053944829647571614
Ni 4.536712196490518 8.040752322548228 6.5478366437327225 -0.0148792311046776 1.1759629363788264 -0.020674240519899877
Ni 2.4037705211039286 3.5016637930431807 10.831011473083542 1.568597642800692 -1.2665436720818768 -0.9992381605878402
Ni 3.307773298542383 1.2188486223787522 5.383146478703547 -0.8173881477551471 -0.9481822224522896 0.6935759036924765
Ni 2.8050143506070633 4.493408097171918 8.208877883326117 -1.1314468562443223 -0.051060566121241095 0.5881431905782581
Ni 3.2432467174555715 9.069311508917428 3.3999622238667793 0.2977237187745776 -0.3748853528582447 -0.14460269844546064
Ni 5.493908274484956 2.2260756500713788 0.2604716896709403 0.48539162384062856 1.9520496542820251 0.6540444212567574
Ni 8.33831491467901 8.569157387555727 4.7585511091648796 0.04816267574815576 -2.7419223702257227 0.39197650401257655
Ni 8.666303709138125 7.017393649583897 2.551195479402567 1.1770402286034052 0.014587153785555524 1.1055859293171606
Ni 5.177499533600488 7.107401832380345 12.19557957783589 -2.514971608399649 1.6235212914217654 3.111956051418621
P 7.117757160478271 1.8826315512754674 6.21686463736614 0.5019477284270969 -0.5551592794530696 -0.020268520441048966
Ni 4.07114286023257 2.2973108020530524 8.613864437327134 -1.6722159284139908 2.3531905984026893 -0.45412340985496624
P 5.303947869200494 8.860632911272374 10.888665881887185 -0.6478128385247488 0.019401801565379486 -0.13120570831326436
Ni 4.820163026411948 3.58005536329553 2.273531020371513 0.9658914668065947 -0.9701384150084066 0.21316347823399417
P 4.369729103508074 4.2520000821229145 9.7342094863825 0.620114601278532 0.20238130001682567 0.2114747776776616
P 7.872544504089064 5.422133877703832 12.761945648776246 -0.24580491841809926 0.8211926091029018 -0.8112002737768804
P 5.791397748676832 7.2308523324850995 8.007220435764758 0.8913472157411165 -0.8851310596280755 0.6186590997789281
Ni 6.6204180797645495 7.932108205072457 2.953292960842459 -1.6398557669157308 1.789180296316893 1.1314486560165353
Ni 1.4481647582807513 0.7762127276594761 0.9384778856338448 1.1675605712477442 -1.8254575334813723 1.2200889801637633
Ni 3.9222838763570866 1.7081355900701678 10.774092813540165 0.8294257956459716 -0.8760118709356268 0.7834765826093668
Ni 8.632623758528364 5.271529203036907 10.309899922482172 -0.9644195102467583 -1.5680628533431444 -1.6095817985225378
Ni 8.734111457733459 0.7368880721659752 12.714457375403603 -0.9597187623369794 0.14758234989907484 -0.2806778190358844
Ni 3.587065545688389 3.4564220683435036 6.102050279820723 -0.6123239015895197 0.3856392489406391 0.39527600069945473
Ni 7.2477151571458895 7.834614573280245 12.00364681614937 0.595699148548645 0.9090770289207118 -0.383853617795126
Ni 5.401505479189253 3.4390108591409008 11.59475393626216 -0.2639250250575777 -0.3677945074497343 -2.0909905264560185
Ni 2.232299814620971 5.831347562548001 10.404782329881112 -1.1291734868291134 1.901868405441944 -2.8796928762406986
Ni 6.450601666649399 0.30232074200525966 0.6200181865629913 0.661399576070248 -3.183972393855923 -0.49756528308868503
Ni 5.965875430397404 0.2568541796434388 5.081510303401319 0.06632931935485352 -1.1064565048475719 -0.8752695934529636
Ni 4.451630334828034 8.28492053979103 1.4270784586737564 -0.17726599300643664 -0.6961755460988527 0.25339172962642165
Ni 5.456407911567224 4.743142417514135 0.011456667052736383 -0.6054636841345766 0.8239917691145939 0.6378076476829209
Ni 6.644464741923105 1.310849269010459 11.575665584335843 -1.3483572031152584 -0.9928453696876192 0.052077951642161925
Ni 0.635854618156351 4.856886511228777 6.531516719768329 1.4089815016655347 0.271737579123461 0.7196913698326056
Ni 7.837429613928224 6.336857572934756 7.050635806534442 -0.7540407938467529 -1.5785460122626556 1.502110971932368
Ni 5.251257254474506 2.5646665456722344 4.734753047998613 0.638769497375558 -0.03551850462158399 -0.774333225547202
Ni 7.679366909492625 2.0315453736051317 1.3618791925489855 0.7165769925733401 0.6672462646590122 0.45104245693679745
Ni 6.151302523469535 0.911602473213764 9.12918413319271 2.09542079431323 0.7817169196057827 1.0189335821342387
Ni 7.269970429801185 8.75482211392931 7.140622053949217 0.0945119524366566 -0.2596914465922044 0.17903054110602715
Ni 4.0591423785092005 5.735946931757046 2.0490927649689517 0.027089657127940443 1.1800296502490324 -0.6697209514517499
Ni 4.173846145172018 0.08643545750652831 8.903274379269615 -2.0899659418462457 -2.5989356101171306 -0.37216075483823
Ni 1.6180177303653567 2.4230279582639724 7.239692291299146 0.49564132659309484 0.26126419039596294 0.5203475710905232
Ni 1.407483765020496 7.73747739144021 4.085356987556395 -0.4792718840961359 -0.7923905972695451 0.9496253826567193
Ni 2.81165894330538 7.256909737963642 8.115118750263658 -0.4638442366871561 0.17060092228143522 0.34433884752995536
P 0.4403546150253287 2.5057974651084725 11.031170916871512 -2.0605710336238965 0.010841570700194232 0.6512390905974784
Ni 1.8585300506627305 1.4038552873021586 12.142941059641375 0.6650567132068611 -1.336583093298466 -1.8642467384344281
P 4.497338186388253 7.206120189649276 4.059445817955671 0.2953441627988075 0.04122352542616126 -0.22061942029140713
Ni 4.601403292939874 6.64145776668549 10.062278710574411 -0.6181603057656386 0.7222799564953883 -2.745365077358685
P 8.28110926722542 9.1407477352311 1.8366129484748868 0.5836900399029109 0.05346814712146921 0.9951639905184667
P 2.058196862337305 0.1729778499987104 7.076225257203968 0.9013128115942607 -0.5742641186033206 0.580984982266922
P 0.9952631049387122 6.073852346680633 8.533080996498239 -0.8282639141273864 -0.13148261612373485 -0.30535398162632577
Ni 6.667140442727125 4.248417303116394 5.645468966203111 -1.445174149536008 2.507978722021584 -1.3513900764043112
Ni 4.370917270015338 4.9231679228493945 4.343558365224224 -0.2520969220743981 0.7411356557493107 0.26354784422381705
Ni 1.463556084421005 2.783206925327583 4.4369025539833755 2.435626079290786 -1.1592371389837133 0.5652930254529619
Ni 2.8542958414314388 7.028187685315275 13.2929162394652 0.3024455497302791 -0.2876005142976466 -1.6919188061595571
Ni 8.238965915186993 0.23815152484486327 10.174297220930812 0.387530552426081 0.05451818565253837 1.063052169720008
Ni 6.366470338192727 6.826537549547805 5.438808423671931 -0.7835071787369862 0.5344896669188601 -1.0538329651145852
Ni 0.9130328428936629 0.7480860845098224 3.247746212621157 -0.5208183400793547 -0.04941891675276005 -0.14367144488044287
Ni 5.830113697328919 3.2589853538056404 7.486295335907603 -1.081523746161634 0.786728256777445 1.0456542859585347
Ni 2.0057987193669518 7.589495822831631 1.8296438949226639 -0.6613049594739127 0.9898163530533083 0.7680633333780901
Ni 0.21678920501848853 7.167842948630641 11.03848728063355 1.5945683558328407 1.9084797401108746 0.7444158691624793
Ni 0.5515606022856074 7.3785322895956815 6.48325248226902 1.7065231863362933 0.9170783019586335 -0.6502363603645769
Ni 2.9595582542326873 6.660879719208079 5.757727851783672 -1.2846115853271811 -1.3782488484683684 -1.6701605885468591
Ni 7.706676459674975 1.298190725836913 3.863580225130106 -0.6683109584781006 1.6712412232055474 -1.4283516786620303
Ni 7.567624419355605 7.123825949407682 9.568229023137338 -1.0181547949866852 1.6413570340516053 -1.8195568517262213
Ni 0.9419875467014562 4.739285446236708 11.898611068958736 -1.1510335201269983 -0.027776913002952163 3.237901282663894
Ni 5.367048650478589 0.9572509164486199 2.809745081254448 0.4359986752297975 0.9863193956436433 -0.17160493806591737
Ni 0.16103037878105028 5.256101317927199 1.021690669982978 2.3302134207812255 0.7591760581907894 -1.421366762703765
Ni 7.347539423240813 4.382597860755982 1.2716489140131024 -1.3322857514746926 -0.6751922589789663 -0.18313839262681364
Ni 0.6338740359861652 3.5942768024132468 9.226447443477362 0.10257878860519107 -0.0888814936237566 -1.7238051133451926
Ni 1.7399236140106682 5.431712327700855 2.694636424004924 0.03565245909628699 0.4384965019509867 1.2431841714203298
Ni 1.5385568102564693 1.196904100963818 9.577191454499058 0.6976356755841469 1.0895473877970592 0.043532890285628255
Ni 4.5371234848968784 5.4882233547348145 7.157824877025931 1.8555479251088496 0.7358237566180941 -0.21510851777550696
Ni 2.818915898742055 8.53005756972437 10.722685418642023 -0.39974663487629863 -0.7650093770431147 0.9765998543630342
Ni 6.546431865331441 5.001824545630288 9.045551834669089 -1.2456424031528355 -0.1326509254002232 -2.2080315132331263
Ni 0.25250640420108805 3.4940778068814167 2.6982347405734624 -2.8998624092100385 0.1495937239021488 0.17230299257420648
P 2.4569912408870027 4.747136484927016 0.3026506867045846 -0.5310387322557822 1.2376159333039332 0.7910698215755924
Ni 8.383967927785049 1.4112767581013783 8.240433757810584 0.6245320136199374 1.0373987308179617 -1.157661824076793
P 7.1359635272665045 3.427960910623343 3.084052512915362 -0.8634211787548097 -1.0906578472524184 2.069685337220339
Ni 8.50955712760288 3.1817362513487377 5.039440069301801 0.43705205619497633 0.2799406837595437 -0.09629064160363417
P 1.9586193692861975 4.743453168754496 4.770549762939776 0.9300168643971725 1.5211674743431867 0.29567120712092304
P 1.2488726760430835 8.440442395849555 12.405449997885155 1.3351759285382943 -0.08583653614984571 0.39795431886256627
P 3.6339524240135086 1.5060376069268837 1.6424199285018553 0.061866912708125714 -0.6527897229140499 -0.27064280339738556
Ni 6.4955235003663505 6.63771961205879 1.061619462446711 0.22167614369069566 0.4329658019407447 -1.0286587798418028
