# total energy = -381162.93770024413 ev
CRYSTAL
PRIMVEC
9.32665686527715 0.00000000000000 0.00000000000000
0.00000000000000 9.32665686527715 0.00000000000000
0.00000000000000 0.00000000000000 13.65050507526181
PRIMCOORD
 96 1
Ni 6.793825902749027 6.763448981715663 0.6731924881902103 -0.941950639720281 -2.9348001016274874 -0.27580789253809274
Ni 6.11177682130942 1.7234076141565546 6.241652381878589 -0.1848353207132623 2.2285064932580263 1.1735173030518113
Ni 3.967475841358085 7.063021196511984 13.198768458333484 1.1440002674293006 -2.042775143093056 0.6786233961477023
Ni 5.912466166571021 0.9900246139672928 13.202972915196193 -2.8235829206210084 -0.47152232205770406 -0.813424792232025
Ni 1.4435519517288335 7.519822190792625 1.7938397279323135 1.846325378069317 1.0999032771100863 0.2815936459819344
Ni 8.232220213295344 3.25627163091931 10.59771964604498 -2.923092326272256 0.09242138845621503 -1.9315769882499703
Ni 7.119382183249661 9.042454865101098 6.459064212036561 0.817402031712218 0.9560631678622631 1.3370461489778134
Ni 2.025003713467533 8.175710000049676 12.963311412696434 -2.637735099482832 -1.9951410861548606 0.7122709089988185
Ni 8.41873469497333 1.458679788976643 2.3984486457145304 -0.5966046910820498 0.09338015282505853 -0.6698003985394335
Ni 0.1763260418447485 1.3554430254156067 10.4062032783522 1.3251113452134407 -1.4917694807970436 0.6558987008566769
Ni 9.017692591430977 4.010201255927884 3.9351132751027373 0.1272536656440518 0.2270309802447058 -1.1347507238065746
Ni 0.3557028331122827 6.224648021292766 5.152423850728776 0.6434635604171177 0.17606657338169676 1.0485735164878587
Ni 7.420185516736924 1.0708867279861005 11.309961913379981 -0.6504415343968475 -0.7750575053077361 1.430736891064755
Ni 2.6566701951459395 1.8321564318565888 9.497038913072364 -0.5351586679614266 -0.7630329700430343 1.3803201291751004
Ni 1.9109853347039893 4.877645620235524 9.036224658392383 0.6900048985117665 -0.504981115936782 1.1296946494399058
Ni 9.092483051905813 0.25961961527817007 4.831050575780327 1.3520318237533684 -0.06969746449613803 0.44419483788734465
Ni 1.4087728487096716 0.5670551343800568 2.569448233889597 -1.2279205603930399 1.0088844254283529 1.8654669839947744
Ni 9.244190450594385 6.72935072463922 0.40954655519324906 -0.37215252730811393 -0.6850357274319493 -0.4347450053283545
Ni 1.9852255224305992 8.321597564926513 6.688405768842915 1.2978106005159584 -0.7264217465779038 0.6539688308238157
Ni 2.9610363115115415 5.323842205791899 4.741448451721493 -0.6388687419575836 -0.7089040494091146 -0.07239249482979791
Ni 1.814351844121652 2.6254632016618644 13.225865194188023 1.921056548334621 -0.27097627547740427 0.22941670686806293
Ni 5.1759867163409 6.044503646174742 11.13313316473643 -0.6210954771345626 -0.5655323951572777 -0.039704003457841294
Ni 3.947824575586732 1.9960257909466061 11.726412059899266 -0.3139712909816915 0.7391206822018109 0.7954340120815592
Ni 9.078138653824968 7.678431315475882 6.994860123654746 0.8021471624356766 0.13552027652821821 0.25176036467058577
P 3.4757092109232897 0.7959061090413818 7.852903217958815 -1.9090584954324799 0.3127032229025453 -1.2719226770056031
Ni 6.696492912910471 0.22751819541181093 4.228598913704286 0.923143791426423 -1.4974377348264145 -0.4322235244580815
P 9.055810637566488 7.738830744586124 3.019122729747889 0.16479897088767748 0.39043049968169535 1.0799240057746822
Ni 2.317319789312685 2.9794937652189484 7.541412468502214 0.6014743604695254 0.10139119605499312 -1.6079923425482308
P 4.4873343619225965 3.6207480500359166 3.3250445324593194 -1.0963759806831184 0.9653399651784988 -0.5718768493180667
P 6.358084499408922 8.442918715924973 10.047781724797415 -1.321645755262343 -0.05671930706891522 1.1741012005797393
P 6.979407718752052 3.7971337824838627 5.594058768468935 -0.27878522999886185 1.385670594853736 0.469634618116688
Ni 4.0291996557267655 3.655219373382343 10.11797227816336 -0.6008218144871911 1.4101670373332036 1.4769144180620821
Ni 3.956974025858064 9.086364765078093 12.221283534365995 2.8010448874194918 -0.034454582133443885 -0.009997477532344073
Ni 2.866827751684093 0.22634117133001466 0.9623347027434822 1.9353410832780926 0.3443596734655618 -0.4520544431410795
Ni 6.584358518810341 4.730051277173513 9.059417255731548 -1.5647810972680793 -0.5460855992865757 2.3083541588142893
Ni 3.6420035007681966 0.12136871694788298 3.4214448566229176 -0.40019966325331724 -0.5176947068487084 -0.03112783175305607
Ni 1.6750302455965136 7.227412848379977 8.82723573194495 0.6979439508531851 -0.5311341201830658 -0.8932737433398681
Ni 4.03108364039018 7.546030096258928 9.46819529440863 1.333203635303272 -0.4732465038376623 -0.22851039300370968
Ni 5.894941378538571 2.2320088600243304 9.779248623663678 0.45519993074859677 -0.7385257289302893 0.797199331512098
Ni 6.128984503012385 8.041872475693285 12.641992232357133 0.4440066331359386 0.3897455577995288 -1.676970669490157
Ni 1.8707594641430763 2.6349950448599295 4.2611414844349 -0.32817843572000904 0.7181898455864147 -0.8803565210575678
Ni 8.878846652400068 5.252213481955169 9.414494270175934 0.5982221720808149 0.8369789254028811 1.6897297689280382
Ni 7.907354105394179 8.53890866719159 1.227526995429523 0.14574581091096836 1.1745699126860418 1.2490144049488618
Ni 0.05523898993070264 4.219817866374561 6.173017514858474 0.999853425574336 -4.109675204258774 -1.2388832300521309
Ni 7.410038114193388 2.6237004635361947 8.035983624621606 -0.5387103898684271 1.2240564494519435 -1.269907446347787
Ni 8.955138704611585 4.206592667103666 0.904064549369168 -1.2306765258716224 0.8578033183474002 0.4062749229131196
Ni 7.917221708235228 5.3214359283505095 7.404279836316201 -2.42038612241258 0.6565450761914241 -1.8372614680948356
Ni 3.099052178091739 5.242457798995115 7.107421678634006 0.14565068009400078 1.0274583317757982 -0.8372203519897258
Ni 7.895527904635719 5.870645437705931 2.8378442331691165 -0.3562086023843478 0.26167942355651064 -0.2272065865906216
Ni 1.108939487524363 3.414125296405852 10.677697593003927 1.7997788977683453 0.9609626620464096 1.2078291889598036
Ni 3.916132595951679 2.3703045263070157 1.0923762778027941 0.08285071404864441 0.8438239733491726 0.5361860807846766
Ni 7.8127165193562504 2.168401060992235 4.598336499893327 0.5038804266734354 -0.1957044022172823 0.8038638880164672
Ni 0.6705185357001073 0.5242019446127886 8.353603852894027 1.0915736741984685 -0.5260379366070812 -0.904396592725907
Ni 0.9335050740648736 6.520275060284017 11.15153465850334 -1.480597009119992 0.694588404117391 -0.25339790027400877
Ni 2.3592431114020207 8.392676016015018 10.751724200290973 -1.251119881327639 0.47756004361135174 -1.791622072989166
Ni 2.0811688404134685 4.370126266550699 1.3420247643499945 1.0172610795278223 0.42945650323590556 -0.4547273619875523
P 7.876417584955841 0.9706438212416778 13.598196523619121 1.1091808457572705 0.7047928554542184 -0.2600262042238038
Ni 4.769624281761956 0.012486528056329832 5.749224491480249 -1.6972505027851155 -1.4077854244749046 0.38748350123822944
P 3.896509310150575 7.265829347531473 5.613769724843485 -0.7272727817242894 -0.4490899611961169 0.03480348083243038
Ni 5.979757995019199 7.716036395490165 3.03486239567847 0.511443583732674 -0.6440795967345617 -1.228108250923814
P 0.630166755273075 5.687451245830795 7.4521787473849885 2.3257091051529692 1.7805339334958046 0.8604752087526085
P 1.129066412789944 5.233476228545276 13.155523548982734 2.73288777082728 -0.07665666942279055 0.3927388360998978
P 4.3662557039996255 8.035399775909083 1.4468442615614332 0.46191410954397877 -0.12470364552868846 1.0538172813853013
Ni 5.336106759417588 0.20718981436043915 8.280546285243263 0.630951801103352 -1.0548012425651252 -0.32733768498626853
Ni 5.124494244426502 1.7353643881095087 4.165369776936223 -1.1057206551228118 1.706698792682209 -0.7724529778053535
Ni 1.8240235871709602 8.095071725792858 4.407625022678036 -0.22931052030750185 -0.1239557116190704 -0.9809897559006139
Ni 4.063978758745928 4.48964737279649 13.306443777841643 0.44623783645930243 -0.4950564006239022 -0.10429268597250427
Ni 5.614516790049127 0.5971196124123088 2.146350979104892 -0.12246781421963425 -0.29859095187087925 -1.5068651987879016
Ni 9.044059050062025 2.788138748687936 12.669306279313936 -1.6585163194397115 -2.7845720865754497 0.3026242413999885
Ni 5.542403080061419 4.857630614850938 6.956706636223588 -0.16701320493017688 -0.7044642684702062 -0.938275504861539
Ni 3.9513313985245713 3.3915081537881346 5.530706519831778 0.18317027430601357 -0.7109308500311563 0.4815401113050223
Ni 5.258434362007136 5.281210057789596 1.8480602469459626 -0.422335318810092 -0.4111651611258854 0.3234440063588171
Ni 2.6736633637436635 5.246402974800185 11.521422403866051 1.0472159740186995 -0.5440472287003082 0.521866578838211
Ni 7.4011777902812925 0.6337146155006128 9.042735597469258 2.7611480512245543 -0.5634374603014618 -0.45362204473851553
Ni 5.918463206860997 3.2166799730173676 11.756825354893952 0.6808733685241435 1.2294069151305795 1.6108023011931998
Ni 6.606779801636317 3.579897293472782 3.108574694633054 0.8348544228607105 0.548291605798959 0.38785579697598366
Ni 7.2042267797005355 7.46649236749856 8.28784905747818 -1.2447630858716756 -0.3457935776986109 1.0646812206829985
Ni 0.5571222449417603 0.40646875846588953 0.31018874817436093 0.18572235130390594 0.7315580393632046 0.11107217078818289
Ni 0.2819289782231514 3.0483244920308055 8.428436283324235 -0.41326575240865604 0.03914658829247452 1.0992417322666874
Ni 7.410373873836373 6.816825438293476 10.846227482471708 0.9331037308526122 -0.7399053828866354 0.25472664638776127
Ni 8.694038948907256 4.905448384006004 12.170789947389473 -0.19823025396292956 2.0976728235722004 -2.4502607984848255
Ni 5.932872891539089 7.0715364341243445 6.485682490399847 -1.035825472793571 0.12800031400208922 -1.0560302298762199
Ni 4.629099544516123 2.84936825024889 8.121586478266222 -0.03256507842021489 -0.3727703633977709 -2.6334341581146328
Ni 8.918727436661246 8.286538662204865 12.348628772959005 -0.9755631855684037 0.4958153902771138 -0.794088296686942
Ni 6.295614552500275 2.5782236852252716 1.0214768985238816 1.1942568495920078 2.3030839115542854 -0.08477081388949272
Ni 9.05008407032225 8.03217275267373 9.409689176618553 -0.3740248046301623 0.5102487920936244 2.362443998680157
Ni 5.7913781819913 5.737348859441018 4.333721527260086 0.055188729357001726 -1.1521856314535706 0.8296911334922163
Ni 1.1507695430462028 5.661178053767245 3.211458910568956 0.4173859452246166 -0.0373208479376454 -1.5723972190524402
P 4.3353751435017855 5.333933648394939 8.900989068189233 0.3919968157275507 1.1761105177002842 0.0955740751525838
Ni 7.895593191232966 7.546142016139923 4.984059043085464 -1.2605373179867967 -0.8838015421833747 -1.9329409584770323
P 6.983334241243623 4.517179663521233 13.178524949858533 -2.3762150843223204 -0.08527089345436283 2.027894369326482
Ni 3.775206812465614 6.915893186287453 3.4458107473811803 0.04085457212251674 0.7409039993544789 -1.6687937901063195
P 0.08739357174053437 1.728499968741822 6.720812170384985 -0.061587690904810054 0.2640111570134808 -1.7339085203277815
P 2.156295060531288 0.7849584793487316 12.010069267618112 -1.9351865599780997 1.9782633365629156 -0.05419319821295183
P 0.6862003763588412 2.9706427679636023 2.2075459720358723 0.8954908055958449 -1.580708310021297 1.8537327262769816
Ni 2.3747346882630636 1.1227056328867342 5.990728941353723 -0.26456214442094433 0.1685394117667162 -0.528133128573213
