# total energy = -340860.24110856716 ev
CRYSTAL
PRIMVEC
9.40612822752387 0.00000000000000 0.00000000000000
0.00000000000000 9.40612822752387 0.00000000000000
0.00000000000000 0.00000000000000 13.76681944699026
PRIMCOORD
 96 1
Ni 8.739261792935094 3.5362432478592165 5.9657407754563225 -0.5531692456062344 -0.9445258566466249 -0.5442896837284175
Ni 6.336362914247809 6.786295643561199 0.5284061744385242 0.28088942082605817 0.27940383741946717 0.4665958312903642
Ni 1.8953442089178645 7.641406744909197 10.12527545510703 0.7736048320216096 -2.349217472687554 0.4640455540646846
Ni 6.582803469250753 4.469923736838497 3.2917977326164314 0.07253056306955896 0.19709896857196377 -0.5034168567734556
Ni 2.038307949203732 0.45826091509199957 4.151467043619179 0.9440915973226837 2.376554212829294 1.5796551861664345
Ni 8.983096850467206 0.9840032740657592 5.680878068580249 -1.9244028390990342 -0.8877947225031678 0.22269378632193257
Ni 8.90677552744072 9.137253883136795 0.9102169025497062 -0.13944789371739857 1.38661007594887 -0.8101445788188564
Ni 7.417164652112626 1.0277041450025406 11.892232600383608 0.6209836341470466 -0.5187293187608099 0.18991093546395682
Ni 3.4697325163925825 1.3538051984909771 2.2107034641691494 -0.03924506154355177 -0.6210939344726659 -0.11754646565861691
Ni 6.860952081922204 4.510219589419894 10.36956765046254 -0.27254721950895 -0.06068986168088902 0.5574845851521366
Ni 6.804825715826688 1.7508754881434292 6.748879947389797 -0.011546310076702695 0.3597916917499158 0.2179714411455988
Ni 6.85444304130915 1.1447163779886709 4.227762970099918 -0.314060251151072 -1.693009982341207 0.6507374683707116
Ni 0.5122671399242475 3.295258247127331 8.647861506025968 -1.1373850761056283 0.13663947773432597 -0.441600080576975
Ni 5.9185897367494995 2.630103901820723 13.161740079258692 0.10277444955576492 0.5886481552391346 0.006261150418363411
Ni 6.069257095911222 5.3464808101485835 8.254943081296354 -0.14212955431461974 1.4796099626163743 0.6739730418598845
Ni 7.3553757969288736 5.686164312546342 6.002567648011572 -0.22401739022936254 -1.4624681607297652 1.35888947010515
Ni 2.0728002207760907 8.5719643993747 1.892511083148136 0.7806280574169782 2.100046723121016 0.7174205715205579
Ni 4.236520075317771 5.501004681812262 6.907239638073712 -1.546111288772718 0.9814507546974323 -0.5460642591303371
Ni 0.9163845007144173 8.90512945503135 11.687010639124114 -1.2964628282388122 0.29515750070929814 2.101235087002162
Ni 3.532330298588941 4.314619156546375 3.3961643670473722 -0.773557523723442 1.89072730122346 1.0344643307799863
Ni 4.688409279266297 8.68004081070996 1.264218413070575 -0.8572258485773753 -0.8719351297630918 0.6343238028993785
Ni 3.112337274869994 4.880162605765915 11.91277276221414 0.9435976884054008 1.334364488380592 0.4691620493556436
Ni 4.101956007383721 7.608805105075602 13.076550658703324 -1.8348176345400335 0.7993413175557653 2.327563641863204
Ni 6.5390461615456505 7.697203896522841 9.383945581758766 -0.7057837586125779 -0.8727874504610582 1.2795357134661705
P 2.25845837629701 2.5410937120500035 3.690719148269821 0.07330035135604795 0.5609728008110533 0.3513926690529432
P 8.091198382301782 2.7042712215229447 3.764289178840642 1.3832987521874498 1.176050096775994 0.19051668736875577
P 2.473454245216944 4.500672369445543 1.0472162170368196 0.7855054401139375 0.24280598369077536 -0.8182661794847262
P 6.2156352606805285 8.554628905372011 11.621466857621385 -0.5863452181375709 0.4170645573294559 -0.4989315673085923
P 4.04831285909434 5.852718621990507 10.058891706369117 0.09390594342154149 0.10824524286234906 0.18640600763449186
P 2.276668640208678 3.733292224452982 7.528425978406818 1.1363224391690687 -2.479956268666729 -0.3800049334729972
P 0.3940292884527401 5.005969568482112 4.877350173477905 -0.13656825817675836 0.029265581733336692 -1.386806251120076
P 5.722462560704982 6.736076325883309 2.835634384080372 -0.3583940400714408 0.756090220176614 -0.5635621588047842
Ni 6.578109811352033 4.3092858819400135 0.772207369909642 1.8260589145107973 0.3707415058932002 1.301216540873714
Ni 1.5050745498481273 9.14000047252843 6.7583660275318005 -0.6487461489722957 0.05588935496845213 -0.4639884755745042
Ni 1.5365192359311364 1.51823372299504 0.6345336360410894 -0.9225095002765339 -0.18443911371610816 -0.9012860721213833
Ni 5.840471843264789 7.269121602677843 5.02180478506026 0.015308862442928475 -0.2243356928007298 0.46058767742307133
Ni 5.724306161803478 2.054063213693424 10.936333896329044 -0.8052617968052582 0.27347101687479997 -1.8135214441654186
Ni 1.3304968131742865 2.1589697598746387 6.100435588570316 2.443490569640527 0.9002820563369012 0.19165157230414734
Ni 6.45981834495062 0.39102026808841023 0.37895879008534633 1.190688158404143 -0.1768098793056245 -0.6003826700672434
Ni 1.887847524859187 6.767050705563641 0.17249521992278524 1.9285991365685689 -0.3309480280453462 -0.5218393251447013
Ni 0.8413151333318605 3.843494420728344 12.855084314295356 1.0573432922606887 0.07689243958268048 0.5608607007132212
Ni 4.48897114614693 3.428289116188653 1.7089994060490357 1.7474960292042294 -1.0772359174195578 -1.314307569729717
Ni 9.545056564898344 8.89489558770909 3.845595749735507 -1.9304647290223977 -3.1064808872366623 -0.18232026760089245
Ni 8.693783163796192 6.147422020036203 8.609782677826793 0.06716621343385207 -0.3964149993999044 -0.9827597033168428
Ni 4.7178316478177935 3.3900908301631962 6.419316498164851 -0.11765907997708122 -2.6239748124739455 0.7849534242652094
Ni 4.214283988599185 8.231255629019104 10.952330898309713 -0.3360634948950406 -0.0427679870951457 -2.5288470808301606
Ni 3.684060550220715 8.706434406028214 5.633520095056248 0.11256598172489 -0.18361404671165152 1.7971113782385113
Ni 4.918473765328014 3.386008570587957 8.95371869071756 0.010222963279588845 -0.2916507731076203 0.03542311669430028
Ni 1.3120231776771194 5.222235264689275 2.6303851450495244 0.17777892808711315 1.3140044366670016 2.112054031994537
Ni 2.1009339497842507 6.4194660556009016 5.205578893132054 2.768959833959489 2.1368392093590165 -1.1105805543182743
Ni 4.496204458620109 4.898833769952207 -0.12801552158317006 0.7731793144484168 1.6016275766724675 1.4790823722476785
Ni 2.7749582738453538 0.7850382691874861 11.372480063754347 0.016800102276474292 -0.5158684522732471 -0.19038530399721407
Ni 9.503857724023804 3.895275155663123 1.3149531865657993 -1.125785544193487 -0.8532408957876982 0.06015944309871575
Ni 8.109925983256396 6.394182383392966 4.014073612366621 0.4459668421861029 0.6604063589190433 -2.323963840327088
Ni 8.57273570187509 6.0992908627862 10.949219351149598 0.3863193057267992 -0.04445334521736861 1.044493175770898
Ni 8.992568821417128 3.0887090811994824 11.084712744535338 0.5821437784617135 0.129703412736125 0.8934074407042548
P 2.761733257802066 8.013560201347802 3.8235825882517895 0.937977771115462 -2.7736029891584555 -0.26804187543942865
P 8.085103211323084 5.775729463872222 1.7955922209099937 0.19820531426226512 -0.5329529185593596 0.4676749232871558
P 2.6224943442254034 9.11998423203048 13.727226151097106 0.19396556514930466 -0.030741909168547056 -1.6305661140836885
P 4.336422561374498 0.5234858288537136 9.391421572335727 -0.7279759784389012 1.0112251577463875 0.861278421380194
P 7.95370900854308 8.37464264506738 5.255441718556714 0.04846452325929072 0.29358449979522344 -1.630085317792528
P 4.956474522664346 1.1134221899545185 5.573882421358342 0.4363799698286162 -0.9926427667585098 1.6596362919767675
P 7.025352388042107 4.944011402993395 12.555063632060989 0.041560339940289716 0.43895724363748917 -0.937407757544605
P 7.700815849695403 4.198020793194601 7.7371592472687 1.1497371699130778 -1.044870870825291 1.1282113800261602
Ni 6.380543497715323 0.608666783893834 8.907765052111955 0.19365806121121484 0.06337974980822633 0.1356262059784632
Ni 2.4362436026371106 4.346562367416222 5.468291109054828 0.06220655543573158 -2.5969368345195467 0.45718790771290296
Ni 2.18596534738832 5.562671257331319 8.4776350441897 0.6577218701083446 0.4139645782478935 1.1939280054976793
Ni 3.2860590538909618 2.9551984996074303 13.441715361998144 -0.8205444339959418 -0.05121997451724082 -0.24621500937232435
Ni 4.7517877700910995 2.4970260021191337 4.128228263650084 0.31500744555568977 0.9775372785756391 -1.931682660589899
Ni 5.365885652323051 6.3774018509454375 11.983878387234931 2.470225157421894 -2.056350053564013 -2.569866974885948
Ni 4.335886412075446 0.960685482621015 13.257501987746249 -0.2113145979507135 -1.1729375192889413 -0.2844933361272326
Ni 8.87126739403858 8.336228018096694 9.704973910387926 -0.8619353382379026 -0.19666548057897099 -0.4040048959320204
Ni 3.2936497992301748 8.508736406598754 8.224752232082881 -0.3492805078059469 -0.8366431393300171 0.170334555993926
Ni 8.025364892055004 8.110734910269 12.405955808930544 1.204110859567952 -0.8037787845018286 0.877761763747198
Ni 0.38125670716882804 1.387996473965622 2.769196079799751 -0.6084333082858618 2.5133196746185233 -0.7994721867066747
Ni 3.554462917898938 6.519791817420038 2.2293163103615092 0.378960808479199 0.11344529900604977 -0.18350888859235492
Ni 8.123339121860754 2.028788947613542 0.4677526389108343 0.4154545325298587 0.7354360342613722 0.12007668827963837
Ni 1.2500461999322952 0.2925004828555543 9.353300416560309 0.04011306597080189 1.4560110922505116 -1.0860154633844004
Ni 0.3656152568285839 7.34295970789819 1.7430862735022865 -2.950359132408009 -2.410130506122843 1.7389525105095924
Ni 3.622412786957765 1.2987135064813498 7.349278744724564 0.004495059656876129 0.26042163989000955 -0.517895767115921
Ni 7.729184731904901 2.484280698606577 9.467483286227933 -0.8537114076662136 -0.46753814059897547 -2.4677029052206727
Ni 7.079014348587596 8.622757490863856 2.4538669241582367 0.509032146077704 -1.008464821392431 0.4600364329052916
Ni 9.155859204426712 6.044377887209589 13.616567757611147 -2.142063433872434 -0.6798636963127065 -0.9179565907985288
Ni 1.7892336783457956 4.156709078783421 10.452374498781946 -1.9769675005696277 -0.6865015133441984 -1.0555658886452917
Ni 7.138197706300516 7.8892864375043334 7.076448356854587 -0.2514132657438122 0.08465537135755097 1.5084981064056342
Ni 2.754086075694532 2.210778713193578 9.373827409811566 -0.21143364002708104 0.35404784728760313 -0.5002711120556222
Ni 9.55653204112367 6.877516273424502 5.86159518503464 -1.6729692616402478 2.2236201117000025 2.327316044628773
Ni 4.9425722654012025 -0.45647563198743624 3.63400019610693 -1.0924149391528413 0.12975149236524106 0.44131417390544003
P 1.1734144746800441 6.23213360928645 11.918279109576687 0.19084681701466485 -0.284448084711594 -0.7252791483330284
P 5.480866161649615 4.82308622073699 5.13692356446921 -0.22946350094559836 0.5042583788381445 -0.5645661745892664
P 5.748461098644988 1.0631276232522002 2.3214436909691742 -0.4125689834519475 0.9480220427253414 -0.8015568371498454
P 0.002657231175127154 1.4459758472876885 12.61069523582089 1.0507890360819385 0.20993725798721263 -0.09203032366538344
P 4.89224007418667 7.477796553545793 7.263429013979836 1.7918863823941462 0.2190847288144356 -0.5011599424184787
P 1.281086422509002 7.4017009775925935 8.071981662688385 -2.238172812703197 0.9161046251914545 -0.8515424250393528
P 3.7383056907055225 2.648662192470372 11.27699375481876 -0.25018376421208527 2.184115368737161 0.5501767386368137
P 8.4452262299812 0.5796413539461972 8.108120006670115 0.7685922092983667 0.3740579718609429 0.012453395272004359
