# total energy = -340862.17844930047 ev
CRYSTAL
PRIMVEC
9.34619076611802 0.00000000000000 0.00000000000000

0.00000000000000 9.34619076611802 0.00000000000000

0.00000000000000 0.00000000000000 13.67909491365684

PRIMCOORD
 96 1
Ni 3.968205688608637 5.0058945604227585 12.879086433850672 2.309247874273152 0.012142034679172638 0.8139148444945659
Ni 7.510458731642027 4.936200015649208 13.236521220073715 -0.6842919072873892 0.7400465364501899 1.4824551453746533
Ni 6.339979180983514 9.229569028277776 0.7601285013807693 -0.9070921372801992 1.4201904830074767 -0.6678782418160562
Ni 5.771450394799372 4.345118871071798 6.464110614054444 -0.23509833063387253 0.3515831877971945 0.7764353594918693
Ni 1.9429515662249368 7.114040048985435 1.7661356556310737 0.11795938482631943 -0.0073207020311293275 1.3549842215134729
Ni 2.1991119635902994 4.953939085781995 11.563157723532253 -0.6718675654811074 -0.45389998099025053 -0.12276297686254985
Ni 7.154378208465475 2.4325330787464554 6.947064742681779 -0.49487616629229614 1.2851869982146769 -1.406954701043493
Ni 1.4012463476283084 1.267100471118346 5.008750756330335 0.8484794698433128 0.03342048444197469 -1.724154269154495
Ni 0.9449746591074523 1.4695202714007096 9.161095096022319 -0.7837054107907213 -0.23729970916056553 -0.5600798566831386
Ni 0.04254759898445984 8.149812951686163 5.440312985621968 -0.5214757711576955 0.48446191293750757 -1.1941244377792015
Ni 2.670627289301133 3.189490417589788 7.244462403081856 -0.2717864300835255 -0.7157632384227931 1.2349712965922344
Ni 0.8116194703389199 1.8689764660663395 12.281816241727462 -1.0742105003296725 -0.5928506233562565 -0.5305540793098799
Ni 5.902455951201526 3.1930513162834613 12.179797896082336 0.2989125968763562 -0.1375895003524211 -0.5155786889469701
Ni 4.413878796765646 0.9722281514716306 8.225034833697086 0.1879720665700311 -0.37578575318532703 -0.36692881701532937
Ni 4.052966292947023 5.378125301296602 7.670292613557662 -1.3787371009586964 -0.4451674862132592 -0.012372148412107724
Ni 0.33468802706119966 1.4824180147006292 6.8061980203696635 0.0724043219043398 -0.7440924243847894 1.7216415300349706
Ni 4.775118417262166 1.587515930213381 10.527075461916144 0.07124783970239343 -1.2560474005362432 0.11373377678074607
Ni 6.225049072752272 1.3007374117969048 4.523348860333255 0.5660497011133283 0.1732296181535339 -0.09752451401073528
Ni 6.899227199706193 4.85232729943654 10.881555917228242 0.809826019137173 -0.26408006257820327 -2.252525738990759
Ni 8.495640703558358 5.377601914611967 7.812869688785637 -0.7016399116475336 -3.427652809731852 -0.46271346551682246
Ni 6.982810184004151 3.777066740618305 4.600717562370259 2.7431513575368176 0.4327922524773579 -1.288776258227832
Ni 1.4291260347758883 0.16016286783169165 2.833336994125019 -2.689190844159962 -1.6405692480429874 1.0980122307349607
Ni 4.5230236128935175 3.487521749725904 9.01059805871293 0.2384888443726602 -1.00425232597298 0.3986343756487264
Ni 3.6232004015265815 5.822546019886807 5.239900747122809 -0.9683224448455904 0.810242023628669 -0.18964251229391857
P 8.379439513378719 0.7523347128751149 13.316694713968914 -1.0214018411690733 0.7667348443746537 -0.3467605695975705
P 5.412640783910082 0.4891506531257746 2.5387030023436274 -0.10819022125469754 0.250481240847846 1.012877605748146
P 9.169304790018442 3.120711799514346 7.9676351314320355 0.8450573315356414 1.3668406066314267 0.2727968736259109
P 6.4116925029692275 1.3090835601786643 8.778846173233125 -0.01204844652410183 -0.055108510938369604 0.635606526266544
P 2.1060799803965304 0.7526702411247288 10.756788943183112 0.38562253677009073 -0.5964056876973665 0.7637989016747814
P 8.88039534010024 1.983336456658961 3.862853556706206 -0.32582279100363887 -0.2253764753604183 0.2516518641171795
P 5.722055776436997 8.740445479105313 6.584925084011505 -0.7087299857250956 0.6083803435607393 -0.18653559123382066
P 6.247433199711192 6.549604894370398 11.792529134216052 -0.40570465223194646 1.786867589023316 1.166666855788881
Ni 9.280917000516732 6.408168989038741 12.576628745753077 2.068648411315392 -0.5291955083994563 -1.665125854336429
Ni 2.1446984407699135 3.2723350528147797 9.798185668655414 1.7569134658633871 -0.7694607279462491 0.4620334087306623
Ni 4.8749637735469795 7.345517156455807 0.7121900195445748 -0.4184668369936212 -0.8989106299106714 -0.04701262130411259
Ni 7.91562544888465 7.986385459409065 13.25866795378639 -0.978252816585425 -0.17689575415121148 -0.2778848296717795
Ni 8.085240119469391 5.934569462780167 3.30198303926116 -0.2976897802128486 -1.7867428905199938 2.870750579445746
Ni 7.330404365936988 3.222716125873277 9.02636975568294 -0.4318699977734046 2.055963359648556 1.887223916055892
Ni 8.888563910856856 7.451297343896743 8.039395184371735 0.10678922714211286 2.7810224215509782 0.8306612107149695
Ni 9.236531940421575 8.948258031477572 10.56410506985403 2.3807337981282806 -1.1575720925764645 2.366660607864666
Ni 9.245008935474493 2.0596387583260225 1.5690198186260322 -0.2920073851160907 0.43963112977606217 -0.20163593721036885
Ni 5.6762407491498905 5.957991016917558 4.568968552232702 1.657287846349249 0.8425420213129554 -0.6225442937659472
Ni 6.942107523083028 7.557245762772025 2.2739310247778697 -0.27917063836273853 0.8199916468162652 -0.7490811358486326
Ni 2.440271724726407 8.256967029174264 4.749272461232023 -0.33413928128913417 -0.6659591704164725 0.23690144528088233
Ni 7.903746440381608 1.511092128065958 10.59378857182544 -0.7182376681052147 1.3781429190181234 1.8117280997104215
Ni 3.396452466599514 5.0678317668347646 2.332873711658503 0.8687575033660586 1.3726353589363327 -0.7730433030911847
Ni 0.07468914913549168 3.482586960985065 5.4491357897343775 0.23263907046010254 1.0340025606522192 0.033003194398898004
Ni 4.710181083604309 8.117951787259043 10.482195053708741 -0.9989381128489184 1.1926046587005654 -0.122861193003311
Ni 2.649261897139092 8.91390143410764 8.794029994802 -0.23444269932774464 0.4564314891628526 1.8608428549592018
Ni 6.147942998676665 0.3071980760698562 12.117817697192665 1.379845503531527 0.8642117929769052 -0.37054687338389086
Ni 1.1309451635870196 5.7934887126987995 4.02759045031397 0.2321842423108711 0.3555321451426135 0.8448192473829063
Ni 2.67866501338659 3.2602504281142024 0.45063967394655774 0.5009812507487695 0.1429016565939539 -0.2979157801807256
Ni 1.1901626284770859 6.598569587956107 6.667655695708772 1.320493643935771 -2.084232124686262 -0.2700005418276963
Ni 5.074841409932548 2.7265268564582485 2.6646877850496122 0.32492084801465976 0.06230631423838947 -1.695317290318145
Ni 7.096469210286995 8.227844298650677 4.616037838324772 1.5488495136394873 0.052989921933470026 -0.413607709129107
Ni 6.878132847077267 6.888946389829446 6.563955035720178 -0.033469335402039134 -0.3173211812905309 0.6934051824425671
P 9.315226866932678 7.686279272916005 3.037347516081039 0.30260650078817564 0.8839743203158131 -0.31700416427074435
P 2.2011307408024607 4.420766939383067 5.681762478672784 -1.692394460244395 -0.0783692812385231 -0.7792175502226967
P 5.9981983297264385 5.102739789461721 8.701997119404437 1.5854540522363985 0.012922107378306779 -1.2477954449400963
P 4.50702293424898 8.45416230880108 12.522746086569963 -1.2637159728250946 0.004550338374843776 2.2498978144496093
P 3.7469439676794343 7.045896971884193 3.316031298648196 0.038112747711321456 -0.44750847564160995 -0.19554910758634064
P 5.652837887394095 4.213860967518123 0.6051509002032773 -1.7357566292801139 0.34784711779353 -0.22696156045935104
P 2.1168374460039274 5.401219738756096 0.3366983927016437 -0.0815654195783176 1.5685426211930407 0.3395776786958862
P 3.1537599301726913 6.834476789864277 9.153940586967183 0.17368213230992022 1.065915864421048 -0.4266717414019168
Ni 4.6641884786920595 2.296265616925564 0.23015181761535025 0.13424089559516236 -1.8839110496325748 0.291954163280652
Ni 7.790610800783399 0.39769069922406847 2.6132267239020117 0.5733223235153416 0.06469692595775309 1.030028920716452
Ni 0.7036251702981644 3.99689849435556 13.297037805484571 -2.075704546831225 0.7524346257018977 0.19683903004235775
Ni 3.304841104406896 0.8402122718443145 3.7100853950331345 2.6164669341326747 1.6816408212723168 0.1561541507284859
Ni 8.948304762431556 6.055696095509848 1.2576010027922313 1.128144788454283 0.5248084350753542 -1.2927745807539477
Ni 1.2870078575160482 3.9628503212819313 2.4372043049068175 -2.3191250241775476 0.2134007910557809 -1.5617487381996589
Ni 4.135745504836435 1.6246203076776429 6.012659690746704 0.15106619468261728 0.04585613910216619 -1.0352366901696364
Ni 1.8055812538899947 7.1432095104630084 10.897984651411285 -0.5220061897398688 0.8061794235235212 -0.9200250432917833
Ni 3.4944566232973098 7.5117952369260035 6.989538506758943 -0.3027286281883367 1.7973695169959045 -0.5921983344842382
Ni 7.049130753899971 2.584072216329715 0.6142484823251192 0.9631468141819218 -0.8641984232404664 0.48739734141674773
Ni 5.493036717146248 7.362527223706426 8.392576519163043 -0.11863429940615698 0.0230288567950055 -0.2395576519568068
Ni 4.905983780802366 8.592635471650073 4.500586212647056 -1.6364613965222012 -0.7589027499247446 -0.18874339751841687
Ni 2.1795410400612907 7.733589690730637 13.205730194492856 0.6988700622118802 -0.9059348837473042 -0.4458498569922644
Ni 2.903440902055481 3.3531515646368124 3.724078511894468 1.1789204763452537 -1.1376668690121052 2.7010102053923934
Ni 3.3865735429270396 0.043781296169669554 1.390042134100813 1.044493175770898 -0.7118934710547417 0.2755775216948415
Ni 0.5566254775850286 9.098713010928373 0.7326703274381359 0.26574999408145844 -0.6355995842880086 -0.6035073317391542
Ni 2.908777577000593 0.6027021982144519 12.896363802158088 -0.05153493465449834 0.9253459412840643 -1.3730469925524547
Ni 4.664767942521476 5.837023269431426 10.184428218772181 0.24442783556491454 -1.6562573482022058 1.818004933858069
Ni 7.068617561711806 7.9476268061737265 10.196315638846942 0.49867702809562514 -0.4142736248478801 0.5637331371650097
Ni 8.256817490121511 0.22024298613232496 8.7680531921007 -0.9011932552972609 0.31535274471025043 -1.9930492366228383
Ni 1.6394433662817536 5.395985871909751 8.953542367754219 2.4700446659799717 1.9950868358781575 -3.844332472918063
Ni 7.733608383112232 0.41186887066318306 6.5492908623596175 -1.1496042438796394 -3.1390878746384066 -1.5408577536832626
Ni 0.2973985950191564 4.581278420131488 10.161324435121891 -5.229235079257522 -2.0325460091658805 2.8915454047039106
Ni 5.987543672217809 5.4419878230127985 2.3172253844070134 -0.6512470610172784 -0.8125899550355555 -0.6229402436527852
P 2.0117114919187844 1.731821116119729 1.633516946697348 0.5868720371753183 0.26260270670172836 0.025090367309724533
P 8.406702351933696 3.6279482664514795 11.88852853298788 0.6273568846632421 -1.9602316758721854 -1.2840282020198854
P 3.8020304162372076 3.2695592341480575 11.32675610813092 -0.07591696304328861 1.4290769868638291 0.17157228505576905
P 5.026699181136977 3.207061256288229 4.675022583063992 -1.851977691259088 -0.1498598330793419 1.6499550601332618
P 1.35215080737144 8.829094098815268 7.147997564008333 -0.636498184842878 -0.13447126643841356 -1.1614115209272127
P 8.342269712578878 5.87168829109766 5.499434184746824 1.3014039742941717 -1.0393975064155454 -0.2022044081193292
P 8.969389768869686 6.650702640222015 10.150257610599112 0.46951223360621075 0.7928490249632023 0.06206077388648667
P 8.211834273815343 4.123417879175135 1.9623206120327294 0.3501407989237131 -0.5587395406051603 -0.3794531747345852
