# total energy = -381168.3474132902 ev
CRYSTAL
PRIMVEC
9.21556882407082 0.00000000000000 0.00000000000000
0.00000000000000 9.21556882407082 0.00000000000000
0.00000000000000 0.00000000000000 13.48791649799730
PRIMCOORD
 96 1
Ni 1.8906937201585998 2.6441678322250413 13.295214329834533 0.7110563198654271 -2.0149210969952653 0.6787591503946181
Ni 8.417352996852953 6.370860872337811 4.4170358988345715 -1.5738802313558702 0.012919793385461622 -0.6528511722796047
Ni 6.87959712657291 1.6250457369584526 13.433047904577174 -1.1909498967059617 1.9556728528569094 -1.368552447116211
Ni 4.549459013196415 6.767443655555571 3.947158011558529 0.38514174047893024 -1.5579795009652135 -1.0160166655977598
Ni 1.996635897875553 3.445885446409458 2.8086694196570785 0.19522823391181215 0.16392993801916284 -0.21575129356582842
Ni 4.141670098445617 1.749631010145256 2.2137583825556595 -0.5329940562099401 0.3393779039802542 -0.5206620170071484
Ni 1.4136682378027676 1.5761387138944416 7.342403907989329 1.2116634751042294 0.20479685143685375 1.4773070255148106
Ni 0.3554481707910552 3.8899837018182932 8.406276804838514 1.0314836508851075 -0.3189407191718249 -1.9729444954531634
Ni 8.39784363792578 1.715349094600104 9.00462709217688 -0.7451681739474715 0.6050255681558935 0.6040323510046888
Ni 8.982672842874942 8.39718933254844 3.149616893106656 -2.141086928891777 0.2273855353706471 -0.8667463864733008
Ni 8.467402750435136 1.2864288808318236 4.164393847733583 0.3005393338465018 0.3951890974126032 -0.4064299604337452
Ni 8.002855148092245 8.681185513020198 5.478859253206003 -2.0657633764581136 0.5364251933786761 -0.6446838059774639
Ni 6.827049953874399 3.8688155405260316 12.324003976212902 -0.6532162689285073 0.03738923928173561 -1.0924200813591638
Ni 8.58076346095151 5.859479749887267 12.135496753887436 -1.24209299523868 0.7067044706546345 -2.441592067066234
Ni 4.997409376319732 1.8673783313604186 8.680998436975692 1.0315558988839395 -0.7416038536349808 0.18061331221211477
Ni 6.2113025159537365 1.9890607004083178 10.78321157604788 -0.3534732057310558 -1.0484285062695622 0.5867241987435443
Ni 3.945304760693978 9.175407246560777 7.686871728680371 0.4996332213613073 -0.3578677352543256 0.23571513828226504
Ni 0.9052268817659077 5.819843588930359 0.31362146915536143 0.7453890317090259 -1.5115111822003453 -0.5097759662222638
Ni 0.4417704027564954 7.295200843577011 5.9447993279787 1.1776727199810815 -1.1332877661078031 0.6640398419065725
Ni 2.547183187279563 8.768549104248168 11.905891781410041 -0.7194550854520836 -0.7385300998056635 0.8333274446932228
Ni 6.3833479679194465 0.362734920958139 3.2112570674364562 1.1888313077010622 0.5306535810022216 3.559947894454553
Ni 8.95180990331561 3.8648067681437355 3.8558713527371284 -0.6583101385116469 0.148882299657421 -0.09483565432466247
Ni 0.20495056154783856 3.8244149305538433 12.483403824815424 -0.43064692399958093 -0.22317483972340918 0.21489485910280412
Ni 1.1738330625171285 2.812582350124947 10.542911014543145 -0.17625040725772873 -1.8730468532245612 -0.24973253560727962
P 2.4824714639037415 0.5300196101360461 9.274345592069581 -1.183200591777846 0.9040284107532108 -0.4252167541229451
Ni 4.212012534294042 0.4191636911909545 10.484494446142833 1.4437232760220942 -2.251665704983309 -0.8008456700154336
P 4.703312932558326 3.799947595668795 7.861175916533209 0.7446868634356788 1.9619237188626277 -0.7554497583791376
Ni 6.741170069206316 7.1709104685884455 13.174847943996271 0.010487529794885164 -0.7891312097919828 1.0368595704850403
P 6.864345360382794 0.8297449232563177 7.466600284177206 -0.0911486923913785 0.19801530973864606 1.7025042949848874
P 5.331768639709303 8.286316825579696 5.07838934311272 1.3610764504541397 1.502190933240684 0.6891062979568972
P 4.309706778029031 8.022244704626383 13.219790429407722 1.5848724687013156 0.626750618537811 -0.3438999602203238
Ni 5.3571114536203694 2.7278267648376455 4.066620350107819 -1.8037337686510353 0.9735633815295555 -1.24456819625205
Ni 1.7289512739938255 8.493123402662695 7.288479007770927 0.9019321903458144 -0.4830827732017938 1.5281688453616842
Ni 6.378906063808489 8.974858040621639 11.908562453217833 -0.7333683530990659 0.47587828503355456 -0.46965930070703626
Ni 9.239160550792324 7.873551503733634 12.715976210412588 0.35465488474398277 1.2790703437939779 -0.33337103566454196
Ni 6.739815380608161 5.372962231775654 3.030221828208839 0.24416892547657307 0.023113446089011804 -0.6499483968105129
Ni 6.639439406382947 3.250073042779515 7.0333681058165665 -1.2068786521210764 -0.04478116087043255 0.40553264543045636
Ni 1.7646892493927768 0.7588550826274127 3.2179199236028935 1.073126009016242 0.32751611954566173 -1.751335457554977
Ni 7.740552416328358 9.255656418756256 1.0490957324468588 2.484162850548909 -1.9914749501571833 0.9967786433037543
Ni 8.705579123355689 2.4911893918891486 6.670799986651805 -0.0527855192321478 -0.6014543058648674 -1.2581109679334914
Ni 0.22895896111187874 1.7116536515534357 1.9900882363178027 -1.242074483295919 0.39827699230930763 -1.7400007492684486
Ni 3.599085060394029 2.255538084791009 11.316536810674798 -0.2813941283766186 0.9255521437575996 -0.24246171297747918
Ni 5.04610444130376 6.710196542822645 1.5749296312816663 1.0346065127848052 -0.26504885424937574 -1.0155690365373802
Ni 5.107673655754609 6.9933541065431655 7.556820701700603 -1.1031287260259195 0.35663000619248253 -1.327748268615655
Ni 2.4630081828200425 5.913943760874324 7.766962393094298 -1.156961198465343 0.5714379620084352 -0.4981136993929874
Ni 1.7692970337402434 4.928034575184275 10.002787454889976 -0.03070334262112777 1.6119832088751787 -2.1017508502963156
Ni 2.861258983971585 6.134269577232788 2.1161461573820564 -1.9120229773774429 -0.10761686524973078 0.635738423858718
Ni 4.290897802322672 5.908995000485144 9.261167328835825 -0.16776319572232395 -1.8628714553534562 -0.6094188121275828
Ni 1.4494707221825835 4.0636787405803965 6.402916306486268 0.9927638657174064 -0.011501572881696322 -0.5664070844527471
Ni 1.5058700025955751 5.529783564257334 4.443041312134803 0.7926577348880025 -0.19636748972257795 -0.007982761095160447
Ni 3.736415465085925 2.118355129198232 6.528650761089329 -0.18630881993499526 1.3584829786953507 -0.36681543136591666
Ni 5.968979137120465 4.7873128412126436 5.237101710290601 1.1984711447836713 0.6448504134623153 -0.13616279520822358
Ni 3.7121600882808607 0.7803900235537329 4.524818425619903 0.7186708989878913 -0.7512979409942933 0.3343146305247339
Ni -0.07141789271512457 6.587564970199168 9.932905797476295 2.551253730660135 -0.13961193009908857 0.7314194569028113
Ni 1.7698407522932444 7.871137024735562 3.902027528545702 0.8673583090256869 -2.7529022662759943 0.13958339085399835
Ni 1.310269557045616 7.84243974381954 1.3191717964049214 0.6972209566442314 2.280937457364233 0.017398140871789394
P 0.20053722569983498 3.74959372831968 1.3507341976281986 0.12495098565280414 0.5504042812665876 0.44634607990239256
Ni 5.999344435970271 8.406294314419034 9.290193605554258 -1.2727420875831046 1.041226074983852 -0.6085929737921777
P 9.216029473368044 6.3676077765885 7.866287792488288 0.22650544675853895 -0.5134827256498898 -0.9634820860341535
Ni 8.360115099688723 4.977393161114338 6.257489103139003 1.1451397803503827 -1.7597234245083564 0.30537403623098375
P 2.1909093015334418 0.8244395203586445 0.953973553934627 -0.09133561159120399 -0.7449370317732719 0.4486873264410595
P 8.211108569460347 2.3672584240796852 11.497032017576892 0.5529733275453445 -1.302020267721932 -0.6902591806144176
P 1.626640030342676 0.16596870596827068 5.352935879444695 0.20755513090828123 -0.6082934402738878 1.1935865629978604
Ni 0.2989429113380717 1.0583527712009195 12.903107548331903 -1.161720053306567 -0.45477878405077804 -0.1544065719097599
Ni 4.460169368111207 7.077962242731348 11.096508657185177 -1.075118871076555 2.176749158180077 1.7796443318019997
Ni 4.909161090497052 4.211173917542804 10.829529024308613 -1.5687529374316336 -0.2524103395497589 0.5908716452530147
Ni 2.8876523727138736 3.359931837191815 8.669992283283333 -1.1656844372709536 -0.6285974419385626 0.24064111482897266
Ni 6.4839635469307275 3.7916627994120504 9.416062607460265 0.2934220060754302 0.3186555838312383 -1.8439926161710825
Ni 4.493299337569492 4.627892718358993 2.778470001043782 -0.19310630247280292 -1.5411382610381588 0.25532519920370866
Ni 3.401199153807726 7.584403820361408 5.723125273920165 -0.9217150293996965 0.5966926228101659 1.3047296962332948
Ni 3.12228996725557 4.186052277280416 0.6488092121706057 1.861689262119897 0.27268168820428523 1.6883382878971502
Ni 6.377256477012095 6.1041346676003565 10.84250454503108 0.9888269925568454 -0.8619119411991348 2.621746694474375
Ni 7.831731252996027 4.934549982251593 0.4965053514631822 -1.0751430394462709 0.5775487028918634 3.2616276797465575
Ni 8.626168567911447 8.87796555136311 7.752071877197023 -0.07754447134438258 -0.8935406238480095 0.7257252347315114
Ni 1.2910458807479852 2.16146555955313 4.933852363701386 0.9245622690405044 1.8179092888204693 0.45789444686162434
Ni 5.542768300548496 9.107682032221712 1.4360316583547623 -1.7181869958274667 -0.9047344356813 -3.857388277660757
Ni 2.38038139390127 7.616234394633707 9.603018849574378 -0.052580088089561064 -0.7626293068467124 0.6278829323700412
Ni 3.8665485106270783 5.259242114080177 5.894475872006277 -0.39443422152444974 -0.04161124778288318 1.1965243054699457
Ni 8.507453611983317 4.388306363428117 10.117205191135659 -1.3191412436729346 -0.2599732394986813 2.742669789914709
Ni 2.7183070823757793 4.199672887811527 11.813890916014781 0.3272556667954235 1.5847426279916708 1.3254178207102658
Ni 8.011444058115922 8.34922229749131 10.179600120541572 -1.2534706409480025 0.9199332549089253 0.7574963564955213
Ni 7.11906367911075 6.7259183030162015 6.700918308260586 0.24243805882839536 1.388563600130815 -1.3612116904804232
Ni 5.987161454155569 1.2387751751103235 5.5885162266638835 -0.25062188019076836 -2.3532697883800564 0.916069658188461
Ni 3.0160068134969045 6.325916543812622 13.154670456338714 -1.4650688315774059 2.2528926354118752 0.18011374686787687
Ni 7.07503169188636 2.890767234932761 2.2349071911536615 -0.13904423052107667 0.033914907579889984 -0.3354448874744352
Ni 7.095849661568214 6.295099682096764 8.93458416231104 0.31952770202354647 -0.3404145727748847 -2.5652266479004595
Ni 3.5876669707810067 8.36653835106909 2.4467215082654863 -0.6144255213135548 1.215405458645165 -0.25688765859482204
Ni 4.084487494693556 1.045441759459318 13.253051259941476 0.3138980145415949 0.3024956862419242 0.2034552498072948
P 5.296012233172961 3.3750914476949805 0.45589694800895864 0.1827884654865626 -0.4052768206659085 0.8250340943361791
Ni 4.844265055747332 5.347573340021113 12.840428779410185 2.9365960171856456 -1.3275047851462816 0.18436712282759216
P 7.257158976004327 7.182512869575366 1.9317260397727904 0.6458107204930555 0.32410529409189986 -0.13757973016040823
Ni 0.14698463445670812 6.104577014897714 2.3729425868507206 -0.6530987695140364 -1.1686993128378778 0.6151816827532889
P 1.595860030901599 6.294076753971628 11.551698771075234 -0.8521319789942357 1.7903267512165102 0.3993524847616735
P 3.150581763149016 3.7424977404245814 4.669044840366217 -0.24503795834508765 -0.940578956183735 -0.7432210775234297
P 7.271304873951048 2.8438784214129407 4.895520205714811 0.7779407403928021 1.8940157421667445 -0.1596361957398154
Ni 0.5452216122552082 0.3734673722602583 10.56370870997387 1.5888952167074637 0.4908094524220903 -0.17170855352331718
