# total energy = -340873.64655056555 ev
CRYSTAL
PRIMVEC
9.23902327807596 0.00000000000000 0.00000000000000

0.00000000000000 9.23902327807596 0.00000000000000

0.00000000000000 0.00000000000000 13.52224446224696

PRIMCOORD
 96 1
Ni 8.761818617861817 7.1065644216139106 4.462286627182023 -0.5244268833662195 0.005652827410403167 -0.1675449090639308
Ni 3.5404122511879947 6.0294051595497615 1.7805824727928878 0.4653025664002374 -0.6980069428806366 0.8808925960666959
Ni 5.615053437373784 7.5708161092615365 1.3599593015218987 -0.6612404247845644 0.07517185734714796 1.307511629853806
Ni 6.95885091523348 7.029307707806482 13.008034052210599 -1.1935500533329702 -1.36021307401258 -0.6543002460213053
Ni 1.4643205383258409 3.5909866653690354 12.202081703021378 0.7132039623360491 1.2657895675246715 1.0084643071717987
Ni 5.951594104337353 4.550607071530517 10.961550637690786 0.7590721856230733 0.46180406632867566 0.5607593992486666
Ni 8.494755406989116 2.7825166822988616 4.721711013494093 0.3172000823316344 -3.4110306277941382 0.7347066122945153
Ni 2.6646636996000392 2.934877417457711 7.058503945704455 -0.6765343748291573 -0.928406068266627 -0.1991684495064828
Ni 4.738667393170101 8.189202424563948 8.747959158834966 1.395429988233345 1.9954671020357118 0.014732421114168177
Ni 9.28669677716746 2.8063164066193513 8.625069060569555 -0.8235587953422332 1.174716979786867 0.38838210179309884
Ni 4.426730245564242 4.74808195803135 6.934031202727826 1.3498669548915656 -1.8082108305857827 -0.5616405163020393
Ni 1.540440852253059 6.922846440980006 1.0245097632237985 -1.0188158256094517 -0.5223856845664745 0.3091324748321515
Ni 5.252800568242542 2.1595200943116963 7.187681199404685 0.293197805879766 0.2200715182077371 -0.9692590977272468
Ni 7.818699107521916 2.176482941304095 11.258255407390129 -0.6245178725525502 0.5581255611702451 -0.44782832087487384
Ni 4.184298271119503 6.995964072296914 6.8724780570211506 0.5568477228990861 1.6667500202034131 -2.5417200801380875
Ni 5.457869931991605 2.162883098835244 9.78729293513028 -0.3185139160470514 -0.26726745916724937 0.999285468886008
Ni 3.410493103907434 7.09258577918499 10.138883971239066 0.4115369426430074 -0.11372452080936542 1.6845891052673634
Ni 0.8322549249531972 -0.049662522569847836 0.7214309912695257 0.7216932307539828 1.2677585183255844 0.05620482932634191
Ni 7.4635880034915045 0.4860132834024712 6.102264098211012 0.4400497053707195 0.7815353997225959 -0.0882240625454158
Ni 0.6079406754278989 3.955207446487957 6.370275232886228 0.008382053416108145 -1.0324321308413058 0.9810002974235751
Ni 1.792425976910293 5.989834422257581 11.241433917455998 -1.0402667963943761 -1.9124315256697708 0.7109928136173432
Ni 0.3850261379501761 8.996221880957757 5.496494593285953 0.6465648250502606 -0.2661387448794449 1.267119856300321
Ni 5.300058173017116 0.7134918984478655 0.5926297658223416 -0.31316190770651875 -0.9855064128240447 1.1436716804452884
Ni 6.475640751535526 1.8269799244874014 3.961206344392186 -1.3058391272473895 -0.6767518901566022 -0.5718578231546733
P 0.7928357076450444 1.9379405957176346 2.724976044461901 0.17837748090306055 -0.3533634196260688 0.47302744584832074
P 9.297414044330413 1.5129917136831152 6.811587349293426 -0.8699142426783212 1.073141949855842 -0.9875185581580671
P 5.896353983331061 6.202350438880214 3.339548490898048 -0.5349087567341497 2.6794080537415854 -1.8245015973260061
P 3.145277697718002 8.416620985957136 1.43745530603581 0.3554498698414523 0.36917184741323517 0.5589066623106439
P 0.4579626844081239 1.52640677568364 11.988809010380947 0.6301606726606244 -1.1045981114825942 0.37218877986268806
P 4.90203180521781 5.918056449336041 8.73646581370504 0.7927500374914929 0.034728404620120834 0.4413311431863045
P 9.018986834655617 7.589968604803607 13.279926500623018 1.2283928720437682 -0.6301370185115406 -1.9509931879930529
P 5.023497246072421 6.645407806810758 11.667141323312999 1.0232154973390442 -0.33746757433141883 0.13794919768468503
Ni 5.107646271348438 5.2807670921238 0.03777836674941078 0.5991817077806068 -0.27133108771366177 -0.9374031295589147
Ni 7.04695424253169 5.430217534906503 1.5516912110671353 -0.08906327061725952 0.7208841045891262 -0.8350572829001359
Ni 6.382372810147583 2.9198455263593264 1.3138658136977828 -0.32891994187172385 -0.01620951988032692 0.5201501103677365
Ni 8.282331780600646 1.3009191701844665 1.6177474567869352 -0.9845684743908075 -0.6855082961929936 0.6849899617956784
Ni 1.5379463159306475 1.0242843310524399 8.255357527834303 0.8370534873945584 -0.7440209477169057 -0.057685527636926456
Ni 8.823304318697552 4.844001499139783 4.586069215109452 0.1496243200297681 2.526042778612146 -0.9485923134065148
Ni 2.4719746272288705 0.9717974390242171 12.672384951006705 0.33603084188489224 0.8714304222125314 0.3013430606947197
Ni 8.443709802613842 7.590883268121825 11.108726432908387 0.5141057039458695 -0.013926894493737303 -0.709182756991798
Ni 1.1971834152658107 6.196400507800091 6.477709368878445 -0.4371618422999632 0.3154504466303793 -1.0652283514357204
Ni 9.081747520722807 0.5567712681388461 9.944677851222934 0.1600182616695825 -0.008491839521095054 0.935486372152176
Ni 3.8978700671661564 2.778525424183003 0.26280494498010876 0.17521913777973697 0.016387697329404035 1.1966019527854166
Ni 6.475742380793106 5.849835500429794 5.340813353111272 0.3703347573730848 0.02114938038410551 1.5206776791909618
Ni 1.8657191496721115 1.4465446572728045 4.671840612897379 -1.068342985805302 0.7716860177323419 -0.1655610458646826
Ni 2.878482418524376 1.4152428459382473 1.8609314877377647 -0.9111804484169597 -0.7820542483405434 0.20083709545815734
Ni 5.91145054759336 2.302493981679545 12.546371138924231 -0.025976626569419778 0.26637605770123157 -0.9949372192196413
Ni 8.211764119746649 0.03199843370014901 3.668503919636804 0.1857850862210413 0.5442061228756757 0.27445883470936605
Ni 3.7254883682641005 3.7415365519382817 9.194571702976118 -0.29691819215414667 0.7282024926274103 0.39527342959629347
Ni 2.087400277523753 3.690250732954183 3.820223466570559 -0.9596447145659344 0.7356216679096169 -0.6123241586998358
Ni 6.590075295570303 4.2805688951177565 3.5618135250296024 -1.140341587630791 -1.819268888172157 0.12893953798690697
Ni 6.783494250791363 4.931541246009597 7.696942637429689 -0.09534858940533902 -2.328254754392958 0.057341256923630284
Ni 1.5853332670330509 8.17127871913625 11.840875615243208 -0.8354066958197547 0.7080748686395999 -0.3195349011123981
Ni 8.281546463610258 7.582965425054022 1.6977444649396494 -0.32373865478110053 0.014648346040794126 1.5848202753071414
Ni 3.6233879204901367 0.5092688292437384 6.017074758898316 -0.5758800569401888 0.2596932463644173 2.4343305004078144
Ni 1.2495409609662047 8.59044397251214 3.243067217165902 0.4160813674805802 0.6093555629898151 -1.1103848933677007
P 2.6769608397671867 4.617710098603388 5.727630937701876 -1.5979341869812802 1.0937251733238327 -0.2608687547297572
P 7.204294811311946 8.534298427211048 9.343154601460023 0.9605847098817005 -1.1280504289682638 -1.7310144866094384
P 6.3238713138753235 3.4217647124753676 5.495589168991152 -0.39208011946997634 0.31168506605067614 1.7112406464166205
P 6.4908019889617385 0.2210611893804052 2.463306575459661 -0.6500514980472805 -0.9503458057625117 -0.7042747781672193
P 2.384739768131796 8.18268891305543 5.03951032145762 0.37678205566032524 -0.31214169397212044 0.49049063563009077
P 1.280223757731867 4.238697640994908 9.874524098617988 1.4207982917948048 0.3438269408905433 0.16922229676635372
P 0.3096809780875887 5.624948431452682 2.47083822734866 -0.9625983978776196 0.0022831396072218743 -0.6383851174529458
P 4.505345095813872 0.630553185239389 12.094525611920066 -0.20068231504784795 0.5078566377123641 -0.9195177646380616
Ni 6.167722579115774 8.314723796698331 4.672543702579361 -0.017197080604576833 -0.6193401850063527 -1.3028175668122466
Ni 7.750090119632181 0.02550155243377932 12.82565942558143 0.29867862648867916 1.7735287058225648 0.31822338138982614
Ni 2.0943849792265055 8.190893165849138 7.240675313818464 0.23380943661911988 0.004786365645049821 0.4842112303792822
Ni 4.006650328870133 3.0272768906445187 4.967856151449859 1.9534984709134098 -0.8742653205581653 -0.5571094612009051
Ni 8.951625114927088 8.329506234164475 8.016257145233496 -0.3441647838459363 -0.6686989379451387 -0.9467712010373759
Ni 0.5195435471850492 6.004894030426214 8.917609802415152 -0.7951612180361467 0.7193638112898579 -0.029134455472111118
Ni 6.229189801904679 -0.08488629934464083 10.937833140678702 -1.3118002299268312 0.43356332631542754 1.8597213397602488
Ni 3.2184969582924894 0.26914199114137577 10.12949989515509 0.5880652861524711 0.3490462803079537 0.4762094431207282
Ni 4.022541449146237 7.680547990377397 3.6513572160784205 -0.3479129380344589 0.766065586221771 -1.0971858781789234
Ni 8.69606448820773 4.7226099704725035 11.04517211472973 0.03395295990667701 -0.5832632367781374 0.553890182932659
Ni 4.168268565492154 5.58291087490834 4.4400288958697205 -0.43588323269785567 -1.6914081850717257 0.4142800526057833
Ni 7.240844387946983 1.3660820023399065 8.349066170639206 0.8041865614632085 -0.3985531287888297 0.4531299355934454
Ni 3.9631252895557596 0.7632218658886526 3.899693850388542 1.6274347675435585 0.6147895895211928 -2.121439072753862
Ni 4.062721961983896 3.6553364634638377 11.730628196620716 -1.9022532995851886 0.1007543338019426 -1.0103700088349439
Ni 9.1496543428329 5.27945515079868 13.461610972202987 -0.37369878874931123 0.3796478072438945 0.4155563482150456
Ni 6.5635777764122425 7.302099113197312 7.609521150059606 0.8034422270980164 0.4685341859636576 -0.7329978571335247
Ni 2.7654429670254665 5.853697412217824 8.309540704561766 -1.0921218333924547 -0.9393959916192272 -0.09375090590091596
Ni 1.859251833280674 2.2285448382551665 10.437861540698828 0.6019078484625182 -0.29775251512998396 -0.997649733054798
Ni 3.4616033814466216 7.158617079541565 13.104204894755958 0.26939684680542636 0.03743809024180004 -0.41352671937952656
Ni 1.4518386176903666 3.6404616357635318 1.4367928680568582 0.9153484637517203 0.6361878526913107 -0.7085255830237733
Ni 1.8604898624184636 6.274802860511145 3.698712754501208 0.4293582870951444 -0.09508916509636527 0.9286336108964006
Ni 7.421568924993994 6.011268956583487 9.681143023392934 -1.2304243006515 0.902453095846291 -0.5423521003860724
Ni 8.469662219390338 3.763202061849597 2.385878015816689 1.4307911413414585 -1.1484109949024865 -0.24717274529990338
Ni 8.896717598763784 2.7726309272433785 0.07543755009675078 -0.32553559878052324 -0.08555191502989137 -0.9221513456061666
P 4.531519249152361 2.875017784743249 2.507822038084266 -0.44119718871160146 -0.7896086636490337 1.2974902410620623
P 3.597925171954706 1.6633475807606188 8.4618145929005 0.7935115982478657 -0.3588532390960465 1.4585816811911652
P 5.510726384956482 9.04494849045553 6.590485508209988 0.10494471773420636 -0.19415068457691723 0.9785281817339986
P 7.237786271196176 4.019326268997351 13.119011353682982 -0.517647912771173 1.6388394098360746 -0.6122385409645649
P 7.250240474761401 3.501248030926133 9.523324797102054 0.26405383732595816 0.002036827924370686 -0.9344697579622034
P 1.435504024290279 8.241014867882777 9.443151323602088 0.081496256903279 -0.9326093077146971 0.9790254330853914
P 2.9330850469149405 4.693774978390109 0.038699497384019794 -0.49752543098968505 0.9527960670752171 -0.5027547977094246
P 8.247934896421615 6.1599063653055515 6.707236275415242 1.3914383505754488 0.3669164757201552 -0.5076067264850871
