# total energy = -381161.4275609583 ev
CRYSTAL
PRIMVEC
9.27281185967997 0.00000000000000 0.00000000000000

0.00000000000000 9.27281185967997 0.00000000000000

0.00000000000000 0.00000000000000 13.57169746682671

PRIMCOORD
 96 1
Ni 3.7516220610926587 8.684665269237053 10.421271920105223 -0.18777794828135402 0.8562020352985512 -0.29629624229943163
Ni 1.4969842091701246 1.0717516005889756 13.480767591090583 -1.6396133118876213 -1.9001005149082437 -0.2324508657086964
Ni 3.2537833352540972 7.264506306743512 0.6448072309291903 -0.7638932611608005 0.04765359732222116 -0.6984687130084036
Ni 8.240052483763439 7.523227031851948 1.9971837929210408 -1.1154957322317047 -0.3841788623450287 -1.6381482973063206
Ni 7.641826296184298 0.5098572173554619 5.972836062484625 0.41338196627154605 -0.24250130796616304 2.649289379979334
Ni 6.519908783160763 0.20603724424023828 2.037166303315742 1.5148531020893845 1.3231994729027083 -1.7788125799293237
Ni 2.035447123987578 6.982353185937825 10.03476350134255 0.5205386040554068 0.6800624425870739 0.029342457717859143
Ni 1.1876061125958854 4.977024155034804 10.886958097926113 -0.28849577241840635 0.651924032479645 -1.1293974299144613
Ni 8.097807549059901 6.206571195900839 3.997543523921349 -1.832883136521482 0.25857661626147077 0.6073159068519669
Ni 2.8833530450626417 2.6384951737600595 0.32629448734214433 0.41393629611311933 1.1017572995996896 3.0012800876275922
Ni 0.5253706316813431 1.978354421056047 10.981117939187756 -1.0158500581129086 0.641372996436676 0.4269414501235357
Ni 8.998855955192722 0.47495342604401564 2.3044606703164128 -1.373529331505512 1.0566724914459091 0.31126340513222517
Ni 9.130242427149334 2.992234402513029 0.7475045501166186 -0.0464912015830038 -1.291667463732698 -1.1592191412615842
Ni 1.3705030547140458 3.602329789337316 12.571993078074128 -0.0258814957524522 -1.7512812072782742 -0.2701429809428315
Ni 5.232184120369696 6.624339190894221 6.667815696816712 -1.0279023612917522 0.1771423229443788 0.9129169714920923
Ni 4.088011858761513 0.17227679063732826 13.076628775042915 -1.3250771495413953 0.3180716863033103 1.3203087816184744
Ni 2.8609035674278793 5.0092008123634395 0.9379106153197152 -0.14579594742261343 -1.2468266532689238 0.7883416240111519
Ni 6.93506184519545 3.3470492774475904 10.351961360200718 -1.784490347040391 -4.988743602632537 -2.1077505195231763
Ni 8.479430123227052 7.304064122352723 7.222043319162815 0.15022467261792838 0.7130496961463719 0.013684439465628046
Ni 3.2768448184749377 0.4488356240175499 4.775894082857479 0.54487460969761 1.868087452336757 0.2640353253831969
Ni 1.5269446644522064 8.518765391350417 5.640519811087951 0.2267777265833191 -0.40175903732063717 1.8127267161782652
Ni 0.8458213929576355 5.558114186203766 -0.20954422170470227 0.8331382115005522 0.2189723716062874 2.992469688424814
Ni 1.1071644692742957 5.991395595523029 5.172405083827759 -1.8604546183818476 1.6396896736515116 1.4439384773566937
Ni 5.436380711445745 4.764964219458845 11.574283026026274 -0.009142071510584254 0.08070410001928681 -0.515640652533157
P 0.9797189423795484 3.687268746435387 2.333544844872974 1.2705183404589087 0.9219932227617477 1.0721186507976503
Ni -0.14228480779475183 9.076905213041462 11.562218170449821 1.4378827580809173 -0.7945433819464897 -0.8166037041806387
P 3.0471850858932874 5.824484981138175 12.418795097942178 -0.3045970488556432 -0.10209670676244997 -0.4413949065447043
Ni 5.150945015223822 8.240312122496928 3.3663376535021423 -1.2789495019453974 -0.6826962806654951 0.672500571079416
P 5.824336616147611 8.63127241825772 10.176873052992198 0.6945228409867781 -0.44378346138153896 -0.3818347875928843
P 1.8427024556207112 0.43636740112300115 10.096107788534939 -0.5400962144723602 -0.8370483451882359 -0.43549885277524353
P 5.52968374488688 4.571820820179837 9.477727144268826 -1.6410045358081928 1.710025800172913 -0.8430457004222514
Ni 8.19163913277992 4.847130605795745 1.6285357371787395 -0.7540384798539078 1.062352829660138 1.315793153136308
Ni 0.4243581824180108 3.7994048608662783 8.868330927462573 -0.7625897118580285 -0.4443377912231122 -0.3068591054169425
Ni 6.472190893070516 5.054442861673645 5.39351435654695 -0.299114171364201 -0.020254379373661893 -0.3537786527866165
Ni 4.710300993247805 2.5464717883625427 1.621098942026703 0.29422958957839 -1.039958778235654 1.7132103685484819
Ni 3.25628699446987 5.269136275832121 7.83260698298857 -0.21408444738636678 -2.007028581621066 -0.3078595216569988
Ni 2.9679674537438534 7.695376784966106 3.8924714376037004 -1.6502445663492225 -1.5973988833031005 -0.351302166221666
Ni 9.024133640460118 6.587897040086861 11.959081538272692 -1.1525101046725248 2.96342907821809 -2.175642041158827
Ni 8.349935304900136 9.210034973637205 8.825227188578875 -0.4517567093950026 1.0103921203221309 0.5298578245738036
Ni 1.7913032592020859 1.317304932784828 2.9346622952057375 0.7521322639701304 0.4064397306257581 -1.1380198814761497
Ni 1.4507314233616995 8.334746438991115 1.8921256158212578 0.34306023792784784 -0.43018386832023336 -0.6625889683926589
Ni 2.4601140910422004 5.025279868215847 3.8731450430203163 2.503103910427786 -0.6045278025838685 -2.272257413091732
Ni 0.3877546846834121 1.0979565670473976 4.802643363375036 -1.092942272411221 -0.1634861656135249 -0.40163973813395343
Ni 8.988563133972322 6.971550360062361 9.59206833337198 -0.9619131988851369 0.8018466004761222 1.2002328646697846
Ni 4.429538794228658 2.2857203174457577 6.0110678659906664 0.5530789998852733 0.1359607064997465 -3.667251856449555
Ni 1.0102543120000667 3.4078789235789593 4.56889802986572 -0.35671176727301146 -0.694992581534345 -1.5490922257779127
Ni 5.311596481569246 8.938527040904507 5.916771714393943 -0.5347143813351565 0.1622101271145787 -1.2680040586774872
Ni 2.1884948845665795 8.317397007907 12.090876013953356 -0.9692752956771629 -0.586123846155384 0.7644100528962191
Ni 1.1638769869175052 8.50028467721325 7.994788463299187 1.0720314904004828 -0.05785624888683584 1.1520298226019967
Ni 0.9790512999220089 1.6289085042175322 7.651763968708535 -0.8104443694474622 -0.1960245045608624 1.0768191415971131
Ni 5.561109304450783 4.1910513447084305 7.41446251183163 -1.6516962111940843 0.0032694147798911434 0.13549250861407633
Ni 3.2770210019012334 4.866520055500119 10.293874611832408 2.037652220044194 -0.27210756086837007 -0.06242869874886667
Ni 7.138043697911254 8.514629717238437 4.177028998537721 1.3259089014140713 0.4581723831133593 -0.8718423129389694
Ni 7.426391057073001 2.4270843350178195 2.5088909362526013 -0.2066552448018312 -0.9055160510423309 -0.26660874253732797
Ni 5.301609663141885 4.101503800090956 3.5787749925228485 1.0547691037756093 0.30742371967116083 -0.5349874324908851
Ni 6.8390326050526955 6.6807920698039425 10.431763179500502 -0.9891812905724706 -0.03855626300664328 0.5524683628844679
P 2.6524136644373746 6.843789557562664 6.510356859611994 0.02429435377099042 -0.05590118204299405 0.14835496639904128
Ni 8.123993969894503 3.9945790059536357 4.011223703332569 0.07911515826561215 -0.9573638889515577 0.7482439846593179
P 4.811829010853348 3.0034452321125453 13.006721046051391 -0.4292096773324221 -0.5050515641634011 -1.2259284696636759
Ni 4.264538379097318 6.8415826283280206 8.834551000954653 1.3834882424904367 1.812036117869144 1.9182848991267545
P 7.288337433352905 1.980412985300127 4.598566391572628 -0.00015040953493522484 0.6383565782078554 -0.14080080820086718
P 3.681009598395954 8.901287428272862 1.9889458268199571 -0.9215998439780709 0.8948161481263236 -0.18008957849816082
P 0.06942925189695358 8.00216776701738 0.031653670736896754 0.14458161539953812 0.8806234015657092 0.15018379207766394
Ni 4.884453673734581 1.6638206410596978 10.045729528707636 -0.1699416914308815 0.010616084952949459 -0.5813647342038439
Ni 4.075345197692085 5.141292018025232 5.543943475042492 -1.0839560097522105 -1.2440544898404253 -0.8330505368827524
Ni 0.12293244933801889 8.018200458810236 4.008509551286434 1.153148509587472 0.9772428872636718 -0.46589134902417184
Ni 8.305286715552187 4.648989160897102 11.00230353255915 1.4420461454299873 2.190113495302125 1.8223768376735194
Ni 5.336048886576627 5.081973840235236 0.15992447789165795 -3.9362280707777955 1.5205812628224133 2.735939413169411
Ni 7.183962662490909 8.220153029404 12.545148287593895 -0.6185994501855864 -1.3493031119682954 0.3097156010291311
Ni 3.4165026386555106 2.8543662350311387 3.661019270479795 -0.5190087976744416 -0.28373974579065975 0.6122645091064939
Ni 0.7398368619480166 6.0264282789200285 2.728277320518864 0.9923817997876394 -0.35733937355468137 -1.290991777821912
Ni 6.561488071766413 3.3134816983324136 0.6190714687534278 2.7552265435337966 -0.7311163238400957 -1.304402137690547
Ni 5.657602185189051 1.3075870259028655 7.546027021776919 3.116580694674826 1.5619081465956584 1.36603148046657
Ni 1.5942467332969439 4.180767796299942 6.534772173371734 0.47849643938269204 -0.5790491986967898 1.832963354940114
Ni 4.32821477848514 6.186625377481849 2.6169488680053568 -3.3340980790021417 -0.9057415367895757 0.4548831708391262
Ni 7.327032877454461 3.0968502664846924 6.596740520805684 0.37196123723291424 -2.5816786228088957 -0.581266775173399
Ni 5.498601279363655 7.754546597765537 0.9810245542965144 1.1100442221988303 -0.7222187642401497 -0.7843440728159847
Ni 8.421762505957085 4.955650323581632 6.70911401922148 2.587719429686337 0.9974373599336755 -2.182205810419274
Ni 7.04130972406332 0.8656930288813436 11.06211409666158 1.2311730058920667 0.9055674731055564 -2.071046479233923
Ni 6.111348690394279 1.028178657422618 12.98130148676177 -1.693510319016393 1.5022783507481676 1.741913392910129
Ni 2.311137094891807 2.565351233411852 9.656371574844936 0.311774797551005 0.2152463289049519 0.634740578721823
Ni 7.283413570228553 5.715445985885313 13.228455306293336 1.5412171939052102 0.9466102499794794 -0.8010793832927945
Ni 0.9994514861246024 6.028115930687698 8.157513330387745 1.1541286141125544 -1.2339554537332103 -1.8459546249934595
Ni 8.241341404618966 0.8544886902501647 0.02119022977734839 1.0070484006608786 0.17105909286477639 0.4538652710975732
Ni 3.4180882894921663 2.7243799576729777 7.792434379949707 -0.8060166726934118 1.7289537474256675 0.8218510686225072
Ni 7.560030822323808 5.154839596226136 8.629156362579796 -0.8392576941347288 0.5532674617469955 1.7776908076200546
Ni 6.131201780694166 8.321106132671106 7.991002374196224 0.9004556058002879 -0.23937484652203936 1.3975426637009738
Ni 5.3824407645637065 1.240284957058128 3.718808361585787 -0.06712224756979408 1.5257622928027208 0.9551794797057291
P 2.023670652861535 1.9619971808463312 5.911139408439645 1.7427088922282308 0.26831698347768623 -0.72923324788477
Ni 4.699201437391212 7.335851321581128 12.240191467738473 0.5825356145834936 -1.04908413757569 -1.0257554901520787
P 6.211661969639577 6.035543453027824 2.273286403955277 4.265979250301562 -0.6303923290554563 -0.7425073392858568
Ni 3.1414061277135383 2.043662835340077 11.81523518895225 0.3359799340422988 -0.6182940031300255 -1.7640364500614134
P 6.999507887971824 7.1967498701151715 5.783904374375261 0.2497855003324021 -0.08878533436552452 -0.37689955507479606
P 8.029559653400316 2.795826973441606 12.228275904433776 0.3582839968561378 -0.5614625959632782 1.0847972747065833
P 7.957250266124033 2.146878504713289 8.57310592370698 -0.007933395914463756 -0.1033586041940091 -0.3026237271793562
Ni 3.7207992343029215 0.4795453225019812 7.9019444340476115 -1.7848451592766488 -1.9546019883902341 0.43872918678708306
