# total energy = -381168.312030872 ev
CRYSTAL
PRIMVEC
9.25525369272522 0.00000000000000 0.00000000000000

0.00000000000000 9.25525369272522 0.00000000000000

0.00000000000000 0.00000000000000 13.54599931468201

PRIMCOORD
 96 1
Ni 5.19722299050767 8.053459103203581 12.615470886562347 0.1086537911546774 -0.6898917699726699 -0.7218397836341762
Ni 4.398096610747966 6.895460256941874 2.318194889778029 -0.6404787667571809 0.11413641153580342 -1.1406714601663839
Ni 3.9875798279833905 1.0413548824880206 12.115366023488308 -0.11653987877097348 -0.18747970031464486 -1.1707351123209837
Ni 7.996317166177576 1.6606794464712085 7.345521037137176 -1.1657196613842633 -0.8226522243675639 -0.7405178196596537
Ni 1.6793380381531693 3.5775905946860136 12.195544287248639 0.6705424189117807 -0.6136498194897948 1.6245602742092409
Ni 8.199673602901806 1.5397132791680184 4.881328220600087 -0.6338967426642889 -0.9533951341117965 0.17717677572674
Ni 4.539442846941869 0.6831719323948984 2.000622142354604 0.9415073815352754 0.5049224947847046 0.7072197197281563
Ni 4.312133813356073 2.1236364973260566 4.067592422700514 1.0657639122242162 0.9757128237723907 -0.2599321018481007
Ni 1.8665070359628413 6.882623219906715 9.885911432770701 0.23462859008630557 -0.23799493545537725 0.6229394723218368
Ni 1.189392667186913 3.2063253433317547 1.392745401809619 2.1999664768368046 0.6958747270289822 -0.8610915021803686
Ni 3.216644951330459 1.7538613418352877 5.900475121569822 -1.4226548853875693 -0.8384886771791882 0.9750602777900562
Ni 8.702446755649412 7.314075386790633 1.3050564995820695 0.5938435833971449 -1.6799240956915262 1.457716762087709
Ni 3.534748024797225 6.475790028158717 13.554262748423968 0.3636984830034897 -0.07801883987763983 0.033675537875574264
Ni 6.2053700223236286 5.474232737055832 2.9968224925519737 2.1948132147706394 -0.37574744374822383 0.3720496831816625
Ni 3.2037153617571947 5.240898533239403 11.401681370330966 -0.7388512305905082 0.5885458253333155 0.26358178278554606
Ni 5.484904044699334 0.794998536560223 8.362554963661973 1.3776076153399437 2.016652220753759 -0.6168788679500536
Ni 2.188321466207617 7.612973808600619 2.02271535872564 -1.1291822285798616 -0.8238326178289102 0.4985919245809865
Ni 4.823736478238892 3.8630503879631592 10.56063702053814 0.22978848838518492 -0.21159510530560974 0.509624014025432
Ni 1.7549071855158738 0.1019706843825269 9.43894746050039 0.9793812737629132 -1.0603041746612256 1.0423792147516886
Ni 3.38759874446414 1.8846473334314147 9.618174525015275 0.135593810078631 -0.23139182831656274 0.31195888853735304
Ni 7.795070927322139 5.413879226957584 8.215649096504105 0.5841659510980649 0.04639247122161043 -1.3536045675571269
Ni 2.5786432851576886 8.405565979170113 11.72188168431119 0.24790473836992144 -0.022955066134276593 -0.15446365039994042
Ni 5.82200815423905 0.9562250579390732 0.11320841355923182 1.4798146224280129 -0.7174298274919387 -0.702550596387261
Ni 2.602697689811169 4.257611113158438 6.217410182005703 0.7812824031715254 -1.649187842949934 -1.2201041496724148
P 7.62604222698104 8.6661106291894 8.235425722846374 0.2227950877864873 0.8999719812956501 -0.5075686741583001
Ni 6.896459824353407 3.3552423771426443 4.088466722144708 -1.2389207681582857 -0.7009243736377477 -2.012823333925972
P 7.473432346899762 1.3027510158578748 12.064013247720768 -0.07527958656960584 -0.56452143739426 0.07778332682806605
Ni 2.766608234795063 4.508993061905335 8.661393226322192 -0.07515026008059317 0.5450391602999323 1.0851875681664664
P 6.260994097724713 3.1082566739557334 9.096017168686966 0.5489132985433578 -0.40346624981973095 -0.8702721402383722
P 3.4023423637842614 4.283461037051155 13.516170900316109 -2.806488169922251 2.480985481262192 0.045267870698863975
P 4.918612085050293 8.447408981647369 5.688900019461871 -0.06775396761652203 0.14928776262595578 0.20502079452220176
Ni 0.66873928960281 0.26177374772532264 1.9603904795657563 0.33763701002974755 0.16321285734748017 0.7412066181965622
Ni 6.529072524345746 7.959944018702324 1.2489881719980813 -1.6243378737857894 0.15975395226460226 -0.05077028857433192
Ni 7.327856459714462 1.2629441692189292 2.105671124154502 -0.4908783579868126 2.061398157510882 -0.4929015590644285
Ni 8.661057260608871 4.894168959736771 12.704711894853917 -0.1782538108410027 -1.1590934143169973 -0.32578962377285825
Ni 1.7203480677874796 6.235329278908206 6.635453337168975 -0.040626772382426804 0.268938162001453 0.9333798673321345
Ni 6.312842029571114 6.353463338545385 6.007163208819559 1.4367183054591708 -0.20698408889615963 -0.38435292602904775
Ni 6.774308984562473 8.640593894433863 10.707503090104623 -1.2751324421921524 0.8071865246317971 0.4328313332454094
Ni 7.795987197449379 8.706565343595082 3.2413277877176716 2.5951548029184597 -0.2158060580631638 0.17702302375769513
Ni 0.48284474024284346 7.6586299756477985 3.912585431882318 1.0918536673327326 -1.1966184078456488 0.1467210303400441
Ni 5.897429217540788 1.9698326895032248 6.071939804713843 -0.07822504235117494 0.7896243473783174 0.09580187489267372
Ni 0.9700338966243339 8.088194070754376 13.34974477734652 0.9815579696992579 -0.7164157844051274 0.3897051914798966
Ni 8.96039993460176 2.805424769276286 11.209612641154015 -0.864041328837312 -2.2958963926669105 1.380249680948481
Ni 0.738578509331436 2.6189036392333485 5.885018847706292 -0.05079034317898994 0.47657685376247594 -1.3480155035051233
Ni 7.0894133557946395 8.716810909563302 6.100942068054415 -0.4216339218676932 0.6902933762864628 -0.16677820610123537
Ni 8.554029505544289 2.8003066139190813 0.38995438537379473 -2.101962966307122 -0.5419024144431636 -0.6527665829855983
Ni 8.535130277263255 7.595953396843115 9.899823004773259 -0.6095823342886405 -1.5129296598144266 0.2612593052999565
Ni 0.3879524739745843 7.512082286812396 8.18431636025405 1.5286457849981028 0.7495914998261477 -2.84477703820012
Ni 2.5077295304616642 5.122412773957426 2.005674585409754 0.03453480055207601 0.9534388428655386 0.7172848172736421
Ni 4.244079932087492 2.941051258615303 7.620924997149217 0.9379008951309394 0.1789086708161822 -0.1389979506641735
Ni 4.950153990036465 3.06160093949702 13.36274933447565 4.038937985644212 0.8250796028621339 -0.5211021898683607
Ni 1.2047286227509058 5.795843551716777 0.13581529651675073 0.5291772535670113 -0.17398912202737776 0.12558553391300953
Ni 7.831601414112169 3.924051765828142 5.9646288388826605 0.5572994657245242 0.4882625176305204 1.7582326988954429
Ni 3.16336245514343 2.1603891102075385 0.4103187203330303 -2.912927212813796 -2.104603746364078 0.12499032353117184
Ni 7.3145288942273465 5.761737941425097 10.379053568403103 -0.361223539100436 -1.3913596748187136 1.07952831299816
Ni 5.765726955817421 1.5408146543714674 10.491200404350272 0.19254194532890065 0.3717681473855017 1.6364732235967427
P 0.34849825250581856 6.567204170044992 11.471578898158596 1.8627567841524628 -1.0243609237973972 0.5309677698085308
Ni 4.302443562616483 4.932966983710372 3.9077366044109985 -0.8323062025175602 -1.0882371536260675 1.3052912251637196
P 0.9299864133863154 3.8081019460902414 7.706752667835476 0.7091079378898045 1.694868118595868 -0.6336954252867603
Ni 4.111887141912169 3.3637201896330593 2.1509422726431646 0.6586618654241108 0.274618757325998 -0.8131764236666448
P 2.3244662497600217 5.832827545943521 4.323246596606337 -0.5531036824756217 0.36445258756069493 -0.06933828138450639
P 8.033967538678677 6.261105160770438 4.086733213106003 -1.1956940962591667 0.49472061455103833 -0.1735548627034366
P 6.24472336152586 3.250343330454476 1.8549481494789122 0.9788791373155141 0.266316922328522 -0.2902217539705776
Ni 8.834482206509955 6.882502901607178 6.145264553027502 -1.2764300779576534 -0.5183346544255525 -0.9275768874971122
Ni 8.700716023186848 3.054298544240538 8.907984655696776 -1.9145596277563675 2.4281433977604956 0.6684461985043844
Ni 0.22048606047669747 0.04593752676301863 6.45885476473627 0.636674305409426 -0.4738656254789 -0.23764732230797136
Ni 1.2463402438828983 0.6067633335115818 4.350528308263537 0.5921006325641093 0.8248949976551534 -0.47909704908116846
Ni 0.13247970304344778 2.4733740283171004 3.1456793672130954 -1.0836387356221078 0.03958701826400279 0.9193776395157716
Ni 3.702268118767213 9.119858702502807 3.971429410084074 -0.2219175702775404 -0.7651795840723918 0.06373713314764506
Ni 4.209456027582425 8.625942827651846 9.961213103298281 -0.4296755612252471 1.8743912830675977 0.8814309850686691
Ni 5.982188831937315 7.664395998771738 3.6538983113027963 -1.0222197090846783 -0.5193129591784218 2.0764270268195464
Ni 5.32825887395668 4.980103991367232 8.528276761816581 0.5226515366333515 0.433258393480499 -1.9479394887683934
Ni 4.9673687621239875 6.564807059308073 10.138435479837813 0.32649796269379255 -0.577082304778406 1.9300425538833144
Ni 3.649170727656394 8.946868753530815 7.701144909551696 -2.3467540987487263 0.15606647611068605 -1.2361995125723808
Ni 8.931023759007244 0.9412315467660687 9.462192030445452 -1.690002562973451 -1.4115898858226592 -0.07882308094649006
Ni 6.06113614694085 0.7356973488202284 4.079892655014665 0.08699764633748243 -0.37549033343209526 0.22254157701478447
Ni 6.551063007399486 5.424402450540118 0.804242684066147 0.300297907259657 -0.5100261345598571 -2.16653005155523
Ni 5.553180052059367 7.807435946412962 8.091255708714888 1.6670125298361804 -2.287171354089087 -0.5363560307036375
Ni 1.317837079568984 1.723281983245407 7.8778388110986475 1.3557308698715103 -0.5880861120880775 0.4051847751727345
Ni 2.4707640467425405 8.20290368648167 5.739914052939946 -1.147510080354772 0.9921719977696783 -0.024004847555029626
Ni 0.7445148291254885 4.495147202204833 10.347057230454835 0.46689562191897016 2.7704017086123387 -1.3470680519901896
Ni 8.310912498450165 0.031061557313407505 0.3135615204219561 -1.898785652751562 1.4411557724052342 -1.680920912387157
Ni 0.3276109957062899 4.819960334684209 4.406878921088746 0.7498187853456054 -0.3539221203430163 0.03085760881080492
Ni 6.753086687575005 3.5292226382723593 12.125715248299205 0.840983418576584 0.3627985968970397 -0.7628655912272345
Ni 8.871373648198595 4.942555426658047 1.95342775212412 -0.46410880320245235 -0.012014250852056728 0.2543494655540007
Ni 1.0615220805410925 1.2233594486714352 13.315392051778101 0.18989448040372456 0.3352883072919129 -0.8890967291440429
Ni 7.844058985741097 7.011271247872617 12.461195060795179 -1.7918629853553785 1.7511279695298614 1.171195854007486
Ni 2.351065849211389 3.266900979521455 3.7738204859761617 -1.2642672173428744 0.16850598742561948 0.6644095665411655
P 2.497872685153485 1.4620987207131941 2.348849215923775 -0.47646063989958587 -0.055799109247491 1.3315858971941905
Ni 0.04551548718925998 8.967415416990118 11.36792468310794 0.7019854679124103 1.89414686842797 2.32956498856395
P 5.560362129016313 4.3579195539566005 6.072414599234322 -0.8084623060204271 -1.0332867655321172 -0.03581855236050606
Ni 3.997686565144453 6.450236272387936 5.697772105764613 0.04458961368491676 -0.45350608798594155 0.590038607828758
P 1.8805472559933647 1.5466362090182697 11.28353342781307 0.11997847213887725 -0.689833920151541 -0.5872381622654854
P 3.497782541078102 6.646919671114799 8.503989124767077 0.09241598913957633 0.3627170929268269 -1.0537406625110948
P 5.924287964098848 5.785338838641863 12.045562899249543 -0.3467518278468222 -0.1071430109371058 0.7558865888062402
Ni 3.3536504734872388 8.79523993035345 0.4909541936316006 -0.24151117613875178 0.291506277109956 -0.9111868761748629
