# total energy = -381174.7313266684 ev
CRYSTAL
PRIMVEC
9.15208472870693 0.00000000000000 0.00000000000000
0.00000000000000 9.15208472870693 0.00000000000000
0.00000000000000 0.00000000000000 13.39500110737340
PRIMCOORD
 96 1
Ni 5.137239139929674 0.17500891294518303 9.725802553660857 0.11914929136936253 -0.5276304779051817 -1.0360059642354933
Ni 8.565829790802018 7.261978016552295 5.904034674960781 0.08996932737129668 0.37401734843099455 2.312630160481824
Ni 0.0010469985117338887 2.9892539676793946 10.88978759053669 0.34580206233904315 -0.02071357839826755 0.23161294318843337
Ni 1.4820245629423408 3.0853050986291075 6.851248920317192 0.1525983150564275 -0.5338278649651451 0.3639936456464054
Ni 4.076906040507007 7.2725029141789905 5.770017035041864 0.7105387567990602 0.2125548981157178 0.9381055549425779
Ni 1.294260389282092 5.049992314646814 2.128746574597169 0.08409589930965516 -0.2012880669526469 0.021578240391408
Ni 7.740320885558269 5.018847769756687 6.41674179232216 0.2675829335251392 0.9087548696946026 0.6510205468287692
Ni 5.40167032873673 7.446365070887109 8.22179834364002 0.0031971667810590096 -0.5277680319243104 -0.11852399908053783
Ni 5.163386646468343 1.0192127819994123 5.045602059523748 0.824888055676618 0.009092963440203695 -0.8103456390860689
Ni 3.296361328341478 8.002518965651486 1.62873797502452 1.4733117883124884 -0.3782218734306454 -1.7027683472795512
Ni 2.914389913256464 4.8913134667758165 6.185664461698346 -0.17446014812652536 -0.3145950406086195 -1.998407158500642
Ni 7.834495839104962 2.401552836289607 12.819859791072929 -1.2765843441473306 1.8885732309949343 -0.6966614845963357
Ni 7.102997149879835 1.4599588862658512 9.758686909889102 1.453130685378923 1.2665290167938574 3.5267449253400227
Ni 0.7252798475404838 2.045564190215192 0.5700888592221238 -0.8806295722132963 -1.1408897468247772 -0.6283097354948147
Ni 3.618459804057933 8.615946607674875 3.922726357569298 0.03244140835815703 -0.890242669823028 0.7019836681401974
Ni 6.997601740254595 4.837892747256667 13.272423982561413 -1.6042675853984758 -0.33561509450371235 0.9280792810548275
Ni 4.985039968162763 5.300448269822597 9.337025648249574 0.4554040763396028 0.9474823681717877 2.4294456615116866
Ni 4.256982462857321 1.0657877420187634 2.4016297138027065 -0.1035331820986604 0.710412258523525 -0.10488249703770325
Ni 1.2527007717839838 8.251510587244427 4.28593142258167 1.558804053749038 -0.27457170613814647 0.4006642615945616
Ni 3.3199096427705976 3.755310929459654 3.9371793300319746 -1.0209400710413064 -1.3399898049871697 -0.37505915943194756
Ni 2.995147910350344 8.274482320325301 8.874375859209247 -0.3066217925951558 0.8816924662601718 0.26432508870947385
Ni 6.522928857290625 8.273411526392845 11.365176166539275 -0.010755952964923411 0.2243727166862523 0.5226692772451643
Ni 5.5523868627510105 2.2174311924166843 0.6352462124077728 1.176198706538716 0.5433761707752125 0.35296412730512117
Ni 7.844297722025129 3.2645486812541793 2.011085540798627 -1.073227567591113 -1.0899502796624323 -0.7303840736597615
P 4.2250599907513084 7.249943024918291 10.35006260336334 0.2321374482333357 0.1719533225442716 0.36009379637136696
Ni 8.000441442380826 7.924616419044154 1.6401908940593433 -0.8272447288342527 -0.9818045384924251 3.052986514862949
P 3.8664813046522375 3.940814538151386 8.176924756202236 -1.7127964209395148 -0.6063478865117429 -0.5101282073553601
Ni 2.4281762512427005 0.7546973940113425 6.35460188152566 1.4825651885899565 -0.899029929097355 0.987620373843254
P 8.218727819158492 5.3742781386526435 2.1612428824259586 -0.33133909283617774 -0.03170581574371314 -1.5564880040213518
P 6.07919917334914 3.234841013692219 5.695112711445406 0.7780147881638472 0.2567953559913319 -0.5892251107885272
P 0.5570938138828673 0.14044514913911482 7.269105660266791 0.9832209592239775 -1.5380601363334674 0.1483999607043638
Ni 1.858431510412545 8.862155995460409 12.814930478149678 -1.8619255465004192 0.33655791803295587 0.9029146088637419
Ni 5.299066305003787 5.240904805510178 7.124144872441579 0.7314006878497339 -0.5091211062470844 -2.3678913949479736
Ni 0.6045812367660284 1.2153236570818753 5.175774908579207 -0.2708538909669271 0.8289797092474884 -0.9301225367371013
Ni 2.5698505253829156 2.6394612830773907 1.6750182379103233 1.9903518922963332 1.4326176530272359 0.5510213460252962
Ni 3.426284325479365 1.2487836794498746 -0.008480321861648788 0.6713561730623276 -0.17824558331088655 0.5962735329948763
Ni 3.492847438904545 0.9408892394870119 11.024581327254515 -0.8444091564286813 0.4776479753394678 0.6325919078099363
Ni 8.75850863404969 7.316625115447076 13.11571557856783 1.4413601751065561 -1.1466968404248574 -2.4308245441370846
Ni 1.440574770462946 0.904008167786092 9.832266011593086 -0.6429292851802023 -0.40634357136752597 0.8301996976975186
Ni 2.277496325567991 3.9187580135597897 13.00768528370196 -1.2953701093952656 0.06404617974763163 0.6617800993381183
Ni 1.7542350239082594 7.152729579187195 6.25927010444852 0.12356927481392913 0.974879786348134 0.530470518457138
Ni 2.986114802561171 6.155216390468561 7.9660204510990855 0.9749332652938887 0.15289939123661409 1.2769697525112071
Ni 6.730241884281849 6.894375374748943 4.566008100512931 -0.8644038543830532 -1.2205998583619109 -0.6093041409265894
Ni 7.499309881991833 8.52676869247964 9.052208190343853 0.19593991526685609 -0.2274603544726405 -0.7801184647704112
Ni 2.167643850599968 6.342120268148888 13.557483055508303 -1.005895518003358 0.6505736890993377 -0.2654877415590073
Ni 3.2836948428498722 1.654303408964008 8.714225356087491 -0.056918567563914876 -0.0070785041133361966 -1.924812930053259
Ni 0.5326467647172767 7.332595503584975 8.928826188278835 0.07899920151303814 0.4021776129152944 -2.016644250333959
Ni 6.5917067752598575 0.815633805644442 2.62706752971559 0.9537825993582026 1.071288441586871 -0.09360101058661299
Ni 7.508635856497574 4.46381958143412 4.167399110301335 -0.21536382831942263 0.18183972842004814 -0.2152023630408939
Ni 7.638467332786534 5.303349480733608 11.022398555007586 2.257649690480886 0.08307671401652143 -1.5677471218749388
Ni 4.541127242523423 0.2626803949670678 7.233287145621922 0.4633277020620537 -0.6078460683238242 -0.08478932583225397
Ni 0.17110005748747723 3.847710378537148 8.708210605895957 0.742216033297683 2.3331979573308463 -0.38159053279256216
Ni 3.2338068280993353 5.413366693229701 11.335117974125922 0.45217862742376963 1.7818999606053958 0.7383082136028446
Ni 5.739913082204047 3.1412151852390924 3.381326538860568 -1.092252702543364 -0.19488550586041276 -0.252626569325623
Ni 5.997324621898342 5.565071652412402 2.179741991619732 0.7288876916198931 -1.1914995985618448 0.24893060853127452
Ni 0.7557800856541582 2.922965416800998 2.9119792540957063 -0.5467096060238198 -2.084149335164469 0.6184510975331801
P 0.727490991250579 5.531657390468867 7.205278105016062 -0.75129948365619 -0.8176198041499789 0.9680167406797135
Ni 5.063555704457912 2.870057214035844 9.563642252696647 0.0005353036781797233 -0.5354078078577553 1.659554530896239
P 5.482345957066574 9.137771032006441 0.6594690354934903 -0.8433876571427024 -0.3207268645379702 0.15542729986479037
Ni 8.260507086694027 8.553401259517626 3.964397630503099 -1.2921094363661232 2.213324900421582 -0.4994583863463398
P 8.69362950424478 0.7923930012677195 1.9984803742758028 0.781249493051061 0.544624955580649 0.5257034360857978
P 4.384223899121624 3.863927872967152 1.5105808982247892 0.20178608963498795 0.3023712448489179 0.2423061612362214
P 2.8169385133181564 1.460132775878814 4.310042590231695 -0.07315019893142886 0.7845675016807004 -0.44463321097634395
Ni -0.11876935127905765 6.268189726385021 3.8673113987520127 0.39487208039281674 -0.07102441083767767 0.4058414349201268
Ni 7.795141874066013 0.41378955342324836 6.416566987500707 -1.0873251833347597 -0.44915346744420065 -0.4252640624211127
Ni 4.052232019636075 2.709355755403542 6.345613618952462 -0.19999377362125556 0.07592210524961118 0.3132945766296411
Ni 7.424921735983327 6.118260271671521 8.653639469305785 0.22625090754557164 0.1650967046337544 -0.08182407255634296
Ni 4.2452220337701005 3.3354041224940723 12.227010611930954 1.305827300172848 0.17727730586034632 -0.21075101213775962
Ni 2.736985899694841 3.390298327680959 10.28619569414757 -0.7805079868993462 -0.706207733523874 -0.012339752512275523
Ni 5.737176608821105 7.869447651310484 2.6837290024952725 -1.417965193221384 -0.30855500506212663 -0.5000451120877453
Ni 1.8657714824965537 0.40401329634078215 2.3712502832096165 -1.4409351717539958 1.7181283746753897 0.2094178951486329
Ni 8.122832273651957 2.7992200769657365 6.62764609742531 -0.2916852258899816 0.34344410362982786 -0.4549569614998552
Ni 1.6962199577729347 5.386413803220468 9.684277714085344 -0.950864397270143 -0.10133308912354808 -0.9629146435664577
Ni 7.023721790538586 3.8171698712499453 8.823274278001927 0.4116050768767815 -0.19764378533184027 0.25014159812024017
Ni 5.6782554862813965 6.052731343839224 11.654762775882626 -1.978166663084051 0.34393492722331737 -0.501956213067529
Ni 7.638147009815286 0.2862671481527371 13.413218741343433 -1.1601740489756858 0.04351257857065409 0.4454315385079232
Ni 5.744306082952581 1.6301968173564287 11.607572795758479 0.5848220966248251 -0.7634597731678078 1.017208629023332
Ni 4.005364192900155 7.992323543080932 12.53549810699487 0.7916665746193269 -0.24929544806986098 -0.30768622930392814
Ni 1.6864638352772325 7.56619331838826 10.94276534914703 0.5421027033794277 -0.1701664058471779 0.30946183314711223
Ni 0.7258006011708829 5.4307556545259805 11.752023812455162 0.3463144831990875 0.29365880467658456 -0.28035308870661396
Ni 3.656321979259359 5.79179625146121 2.393445919491584 -1.5860862865037586 0.4256276164081186 0.7255277740087247
Ni 7.804998669495536 2.102243051956171 4.410491297972388 -0.901955587384582 -0.2808498258373744 -1.0266525480450515
Ni 6.36317006340228 7.088774809956457 0.29110036418461366 -0.7909124700621217 1.164683506810265 -0.3690813445819579
Ni 4.359183794854981 5.721865170795487 0.15555981733953891 0.34384699549520137 -1.316430529609991 0.420409819652605
Ni 9.071903477033112 4.297196723876191 0.13085101854601486 1.5908369138148666 0.37575772816086894 0.9579282460954601
Ni 8.659391554660896 0.5391438297826603 11.386005396546752 0.9459525617908223 -0.29807904523146733 -0.5834930934007564
Ni 4.742326676806271 5.522487001406302 4.418367582231114 0.9819495487107216 -0.4971729327462727 0.545260532282119
Ni 8.957383438769773 1.7180385281573192 8.450504369068113 -0.47000485697191313 -1.3523262150653355 0.2493370999410738
P 6.2284605258654695 3.8098848116752935 11.421448675711016 -0.24902599645855822 -1.1569419151916331 -0.3437742332757369
Ni 0.8174395119937872 4.085124612740722 4.7636775756526335 -0.09557638914542894 1.0428983204799522 1.2032320565074246
P 2.087306849411156 6.021476973930386 4.264901761915042 1.0189281828176 -0.5299922932691388 -0.5238596980088397
Ni 0.9906765813037283 7.417087551315109 2.0852933907347446 0.9455075038336037 -0.16913590770013454 -1.1029973426543778
P 6.181821501251869 7.948915204434482 6.253536323263194 -0.27375383822254146 1.0539545782941138 0.7776484059633639
P 1.6865462040412675 1.939308484610031 11.949265885230371 0.03029428010816718 -0.29611137998213516 -0.67182488516863
P 8.48230786407052 7.489077851081706 10.771616785609622 0.5754267714528541 -0.6345235776150104 0.1189834552154596
Ni 6.3429988682985945 1.6640595314597102 7.873046251090324 -1.3944668529891275 0.39226215357379546 -3.201143249208255
