# total energy = -381176.9601908484 ev
CRYSTAL
PRIMVEC
9.13062706680194 0.00000000000000 0.00000000000000

0.00000000000000 9.13062706680194 0.00000000000000

0.00000000000000 0.00000000000000 13.36359565020354

PRIMCOORD
 96 1
Ni 0.3436202011617835 6.344781594877789 12.034599554888576 0.31885561565718634 0.43883305935479905 -0.18005384016421894
Ni 3.763763265508725 1.6658738177320982 4.117110323918451 -1.052623518187516 0.03835648829101136 0.11741739627992036
Ni 0.051935008003662256 0.5785192840391071 7.002951906047689 0.5896778820552296 -0.08978060839925828 0.10381600344640186
Ni 3.985591855425915 3.986851881991404 3.4381057474069987 -0.8924594749686889 0.06232534040178298 -0.05522421058062747
Ni 3.6763101173619113 5.210173325790748 12.245049557081757 0.7029537453629507 -0.548087717318269 -0.4365046683319385
Ni 6.313536588304559 9.011783041400594 2.290773949196698 -1.0932919424411558 -0.5050060556374464 -0.41072164583056364
Ni 1.8845979943719944 4.800956872079754 2.5817533448655996 0.10356660643975711 0.9123734402837964 0.7172632200070873
Ni 8.888218262337029 6.62852496842241 1.5402482560900468 -0.3349592060872683 1.9318621235905569 -1.4852861870655452
Ni 1.5287865796577338 7.6450559654448655 6.117386061504229 -0.04997144682212039 0.40430931454631663 -0.10116005388079351
Ni 4.9534383477585795 5.35900255055511 5.157306080741169 1.2433875456803878 0.4956981479729592 0.26448423999515747
Ni 8.423953256717793 2.2845468613875393 8.83971180487932 -1.1776344105439782 -1.9984472677099578 -0.2742845139150309
Ni 3.125934165806927 0.09338805588281601 -0.028242856321541505 -1.457391003317174 1.2755255638655132 1.5047016154776796
Ni 1.3500636811584923 8.68584703916664 11.194844806627954 -0.8342700111121504 0.16975682911358506 -0.8858689662353646
Ni 3.787183324497718 8.897239322095754 2.899553045124859 -1.2098014821948262 1.6516532737712908 -1.1161526490894131
Ni 2.2024442608304136 5.626392970630225 10.469094157599562 -1.2443403965119602 1.4645993481401551 -0.5450679566553387
Ni 8.460868382835727 8.881178548699403 9.212261485534562 -0.5757928965430212 -0.8779481687263911 0.6785987135573539
Ni 4.305739039960446 4.690339322507959 1.1441872101729482 -0.22615629094923628 1.0862535475371358 0.5715348925976157
Ni 4.59116244892572 1.5500609412344801 1.4380299705587882 -0.1059919280517981 0.5900296089676935 0.37359877283633725
Ni 5.442054736349998 2.88105074199219 5.004479467350928 0.32595031772043864 1.7080643055711682 1.1804842212879476
Ni 7.966947099791052 4.510018564233641 8.630023297001804 -2.1559425058473707 1.4464635577713927 -3.592115480326033
Ni 6.077445958566392 4.580297002455193 2.8861355883278508 0.5067029837238951 0.5392408084506003 0.6333516687940963
Ni 4.731883676659975 3.149555098596215 11.77610784416655 1.6478976633836007 -0.6867938477736366 0.7677429739241939
Ni 8.50061400341237 1.5551740925147282 1.2977643611261125 -1.1362861866144947 -0.7705210508899633 0.732210842455855
Ni 6.247887378117089 6.510137255030096 1.0465963265503138 -0.3821618319149999 0.6707064552934707 1.9280604904562797
P 0.5835173894155495 6.545089296281506 3.750854384651556 -0.8255969088181845 0.51188349948357 0.5570683235503245
Ni 2.9690791196580317 4.0914797400634795 5.51051891892979 -0.1935451897824344 -0.9267795884067974 1.0780650981890725
P 6.1478430949426635 7.374844181538329 5.080438068807197 -0.3398530438444598 0.48946502257905383 1.5438749432430314
Ni 6.924001198029744 2.1440538993354377 3.010283814475002 -0.8017751238082386 -0.3478134363421171 -0.642010887130991
P 2.542660564139917 5.01790057639885 8.288663839156072 0.2976568700923842 -1.5479267447149019 1.8859391358061974
P 7.640527174310932 8.657469049561264 0.34771985281326806 0.1605373673978461 -0.9494333212505713 1.9535074697744745
P 3.631652219305316 7.042626307731498 1.009643764860507 2.446840459949367 0.6799254027885774 -0.2929556079619729
Ni 1.0273964434929823 1.4589464115459172 13.118601322242089 0.45547863833128005 -0.6721719840954036 -1.9386498359363518
Ni 1.427226612353807 0.7376022032458244 2.077678804278718 1.4274715900499222 -0.43120613893716064 -1.4261929804478146
Ni 1.6763192553474622 7.597348437874694 8.469432911230143 0.5345158921711053 -0.382781981997502 0.6000623106133472
Ni 3.9054706009898847 8.652264592008155 5.6479503816528425 -0.518685610007068 -0.6897745276685153 -1.305345732550739
Ni 3.8173600476784677 1.647923004487513 6.927340268428292 1.9361975177411173 0.4534623792321997 -1.5032929080556108
Ni 2.4129052197763374 1.8642549567784361 11.16635359724423 0.4254661511295898 -0.829778808110016 -0.022519521258754765
Ni 3.9345790407781545 1.6999675800186091 9.292817357829414 0.6361199755678528 -2.3485839528686134 -0.598002599870841
Ni 7.155307379069965 6.961190242966262 12.317119424376854 0.9160012668443707 0.6684868219343326 -0.31706381386408616
Ni 1.1170500728157602 3.7301716877229527 11.753777069012795 0.9566447513973461 1.2540519673727695 1.5899349708258876
Ni 7.033851774909501 1.7561026765739038 6.620605975377126 -0.08846394647036378 1.1920189614004246 0.0791724938661088
Ni 7.114612173255562 6.726094851602286 3.3385873883642567 0.8861628433266996 0.6999301280452784 0.04292842393240994
Ni 6.572663790685701 1.3958811688804291 13.243243515325423 -1.2768157434318463 1.0880204096295714 -0.26786472643161613
Ni 0.9256264717614741 5.395178095862866 7.036187389369301 0.02811681284087416 -0.6661152363783625 -0.5128522911547425
Ni 8.453919975470962 8.885488204778468 2.9225786610150903 1.1399986024690754 -0.4091175345682374 -0.5711062897006293
Ni 7.77451912973529 3.5950110120059673 4.500551929863353 -0.23102904566050536 -0.4820671874530859 0.9575081278389057
Ni 4.72025125749741 8.395456568957698 7.7718128118076715 -1.3342441607526438 -0.1638898288098468 1.788590485251694
Ni 8.346087267221444 4.865236488174301 2.6389357243706164 1.069820341681777 -2.5333583384369533 0.29611703640909004
Ni 4.434261749640394 3.8494359413347383 7.594865820315588 0.03797725057472169 0.8378677557657376 -0.8784089104128937
Ni 8.675803349151868 1.3393625859791163 4.677204915156822 -1.5152210269517645 0.03711464546411027 0.7174115726594935
Ni 8.41856618661896 6.856872826221916 7.644404951719363 -0.30223909014642786 0.9742115566365157 0.8531416512056726
Ni 4.2127983848146515 6.2901713130792825 9.269711392419065 0.6713458886496826 -0.624405258234086 -0.20865067796530515
Ni 1.966874076847557 5.836443051348272 0.43170427565407077 0.23215827416894208 -0.9308193056938098 -0.2868224984810415
Ni 1.934761660682142 2.8555945531183835 7.77600924810839 0.6909461793791133 0.137019486781564 -0.0250577142995762
Ni 2.8061522063638424 7.3136324562119315 12.186985158980898 0.08227607249209702 -0.33649106935076245 -0.17627149030365127
Ni 1.510799243904004 9.093164322402115 4.175802909176599 0.46715530333826 -1.015985041028876 0.389859971890206
P 6.0809795113261345 1.049382993998049 8.481566601830716 -0.5008951187928664 0.18852716774255274 1.418823170346305
Ni 0.8749752299542455 2.5481663323934702 3.360810422116035 -0.7670824575220595 1.2573756324293635 0.4138388513033066
P 5.510379220332311 5.017407522525397 10.835951805204614 0.5421788080330017 0.8021505048697863 -0.1377764195522466
Ni 5.302566143299373 8.478791804198455 13.405825290908195 -0.11795527106126137 -0.5224157664734616 -0.44044771214008666
P 2.291120913033572 0.3630264363957821 7.265118694252392 -0.8654238110071354 -1.2136679071287677 -0.5543550383842195
P 9.346201396383389 6.674972469427092 9.861625306686964 -1.356493716179464 0.3434561878146859 -0.3635871542366061
P 0.03735887460404087 2.1102431864947975 10.891705241539348 -0.16767603532515638 -0.681268289969717 -0.02749100633141717
Ni 3.473829326664089 6.235981040135939 6.948307840928223 0.21250296183185982 0.9452511648484236 -1.2163220569221633
Ni 0.8934784461496431 8.235670591449946 0.17073359962385382 -0.8054561722042516 0.211635471625242 0.2121476353749701
Ni 1.639605003029824 1.8894920105973747 5.499239855043199 1.356770366879618 0.026632000765231555 0.919754563239216
Ni 5.929931544131236 0.6624206181716058 4.835537296800617 0.23847058954021513 -1.767786661132465 -0.9150869825602176
Ni 8.254169242331699 0.28897887523050425 11.838342199748999 0.8601543350780799 0.014424145845129997 -0.44767816845025477
Ni 6.810881856581543 8.714015024344436 7.086300837229375 1.218390509415418 -2.096376730468596 -0.6772933644823691
Ni 4.705660515094132 7.079112294366983 3.283274961327445 1.332492725279176 -2.38147299028715 -0.03798367833262491
Ni 0.7437991599849393 3.8776221877671055 9.475938479492397 2.720629779395534 0.4481751626913314 -0.22268530168150033
Ni 9.047867280435488 3.0703286456342287 6.57626582315009 -0.6815367131397553 1.0165257440236943 -0.1163341905180706
Ni 7.652871782401816 5.601840713857748 5.697007415935907 0.7544616834342556 1.3035030229150453 -0.38690268903409497
Ni 8.43805094524762 8.234227952338733 5.2106663796642 -0.5190244814037255 -1.7891661552495057 -0.0891468314700013
Ni 1.9689010761050838 7.385673105499712 2.296360066970369 -0.13704108404811885 1.0819700896704334 0.9088165761704735
Ni 5.900311789214942 6.142985601226428 7.391097611170418 0.5229379575255187 0.21984114736448587 -0.00916881098346163
Ni 5.617189298325779 3.332605914429095 9.520573550980776 0.9452321386850301 1.0528109516079738 -2.2734398634356072
Ni 0.8117392445585065 4.61230898172046 4.713072758325034 -0.5565330198721448 0.28169391900522456 0.3671126508913613
Ni 3.43963512747743 3.6913573911294986 10.04101839322901 -2.0761210655433535 2.2311315895856993 -1.1489370426092855
Ni 1.0155722811574088 3.2608391839598996 1.088760650295059 -0.38122697880555634 -0.7308286173963479 0.0614503939959974
Ni 2.8567176202745808 6.358331445770447 4.51613334532718 -1.1076057879606667 -0.06733976289723886 -0.1228586219001497
Ni 6.3186862620939515 9.071296470051768 10.605055589329542 -1.629786812715503 0.28891100557895405 -0.5269625053038796
Ni 1.464105215962596 0.8309619541840533 9.197374910807213 0.2982569655702283 0.714815272687227 -0.13764092241564682
Ni 8.148089614521126 4.64355398829369 10.766821999895662 -1.17686590780907 0.8880608316803609 2.537107263956424
Ni 6.85382319670834 6.708153168984987 9.909454271600042 0.6315842924810285 -0.3197660432865977 -1.0286119857642673
Ni 6.2197011316847215 4.765584821973182 13.016890699587943 0.44425448748068647 -0.6454762199717722 -1.3944228871250695
Ni 3.635806654720518 8.40324499403279 10.13549938519798 -0.45424733702734027 1.4946082357974193 0.13059867085688476
Ni 5.014449199284682 7.062823255288478 11.414675615294932 0.13130392445402547 -0.0520445273010652 0.32267473229296045
P 4.32033891299101 1.081906288391341 11.937299025213642 1.3560224329700001 -1.2870916714365574 -0.5947349848631629
Ni 3.1061298352232516 3.136279166522143 13.300306283612992 -1.2578751977736014 -1.3439647304745177 0.740094616079306
P 2.683418314383317 2.664243997082387 2.2462867938703543 2.2207003669500467 -0.7154932725908582 -0.015292150272380114
Ni 8.182183376807636 3.2126477331435614 12.854469623045405 -0.7747566862378656 -0.7532620066991995 -0.05106827943072495
P 6.767785295790881 3.9385417330203465 6.628036479862601 -0.8061917648186954 0.20158991446378186 0.56806056089577
P 9.239373057135351 4.843222545787376 0.25861771337857425 -2.16018765427697 1.8987784536627106 -0.2610505317232601
P 6.054144597732118 3.27563993079076 1.236147235948209 0.40586097530415266 -1.1126412935020449 -0.5825358716938097
Ni 6.844108209275869 2.371013901787448 10.914022320752174 2.5264402711608813 -1.5762302196452853 1.3283972150535637
