# total energy = -381172.94293016585 ev
CRYSTAL
PRIMVEC
9.19136764903524 0.00000000000000 0.00000000000000
0.00000000000000 9.19136764903524 0.00000000000000
0.00000000000000 0.00000000000000 13.45249563204347
PRIMCOORD
 96 1
Ni 3.0801008920033626 4.731743734873555 0.9066117064194327 -0.8602186126571122 1.3698513684332922 -1.4216503553824549
Ni 6.353468675445171 6.106165732512616 11.957775613735135 0.4919631064105592 -0.8467205781706773 0.03430417259850866
Ni 2.5218539752579665 2.9671849381668047 10.421984447587572 0.9481791371284961 1.7033584154550665 0.8892353116044363
Ni 3.919704769505037 1.525794634491669 8.685039277263499 -1.167577026307976 0.4348648187356704 -0.7825818387092394
Ni 6.221030256329912 1.8504061722731684 13.408909686450736 -1.621103168898576 -0.13690738668373195 1.0791444472961804
Ni 7.990763793127013 7.136196368792135 3.116915996724319 -0.1278301069728121 -0.9500367591625252 -0.15637783670351776
Ni 6.9940886307158605 4.765062443270585 9.976465061638145 -0.017178825772131704 -0.7431822538656944 -0.36564480809658323
Ni 2.404921393678097 7.304591418872686 5.67571559412648 0.39380764368404436 -1.50547063243322 -0.1432047896566695
Ni 8.550600816507632 6.831557673313186 7.966527994423209 -0.12347774354138737 -0.05926804163269793 -0.6197443624233068
Ni 3.5952127195053754 0.7872783395614107 10.725674593906087 -0.41716405902179765 -0.9620240134313883 0.7708187846360401
Ni 6.576331771308014 9.197250309077207 9.4326210182881 -0.18073929626701776 0.9613498701824992 -0.8207038423919414
Ni 4.351671483583728 3.798709603342689 9.118962833553978 -0.1300021749234664 -0.5934162660517392 -1.118445815998964
Ni 5.359725559372957 7.942352858747108 11.028638622165742 -0.46653515325575784 0.8696746158636894 -0.4593106104828606
Ni 5.307435867767244 5.393926639082019 5.714471915733906 -0.48746573276083793 -0.14277875786284444 -0.30560929217024146
Ni 7.541020973658017 5.862686398598866 5.606650737087548 1.1248576330625788 1.8232283870405375 0.4977989963660459
Ni 2.4571467457089744 7.004612746885406 1.39217144806265 -0.6174833343032721 0.3199452491769393 0.8147124006951968
Ni 4.39419994255009 3.2585053416547742 1.8046791173006917 1.5351974700736917 0.02344460417618543 2.5272329422655058
Ni 0.8193644855319472 0.8136116084048571 7.477031589936835 -0.15996683960635677 0.9350677965575186 0.25791969940376225
Ni 8.887207089312064 3.555368139946443 11.025544807752931 0.13941678336914698 -0.859722389746984 0.054970185588292426
Ni 7.086893871732363 8.42933910067811 6.892574568676962 0.4058126385647204 1.003421859651885 -0.21884330222759088
Ni 4.981914384570212 2.808486781150768 11.180826533345195 1.1537738018762966 -1.0320063561577968 -0.3703748665824009
Ni 7.791338685240013 1.6835644633565057 7.689365973946216 -0.34757638063064655 0.21699545038557466 0.7614124037204757
Ni 0.2399572017598905 2.8201965837708554 0.3701060511477846 -1.7875738710617213 0.27639538961044663 1.712313053545193
Ni 5.0251689615954325 3.143705157412315 4.234442020822832 1.146691698218535 0.603248935871445 0.9810206091385492
P 6.003636024328099 6.79882721245751 4.095988770597223 -0.3699362363830855 -0.023470058097482163 1.2421534161629704
Ni 4.636291379920958 5.831536853010579 9.88033346460264 1.0974437598260003 1.751668929634996 0.0368693622225236
P 7.327266523318334 6.860225549586382 9.781645748172593 -0.1874267355895224 1.1782532750749 0.9331721221967025
Ni 8.21717475697365 4.808758205951823 3.603250570675914 0.46830664333388383 -0.6158018328357912 -0.33301699475923296
P 1.9198193821529965 6.610826974787753 12.798624002441485 -0.32340621114234624 -1.6188331419174766 -1.327352061618501
P 8.297819818346216 1.2916813044004216 5.601161652217284 -0.3148670633230835 0.00756829926556116 -0.38291002293493404
P 2.011438936718956 3.7724314827062444 2.4579188206070017 -1.036675479498692 0.027949176914758317 -0.7198096405780248
Ni 2.9100605870805847 2.5391613208887547 3.973746335819846 -0.5037135620782679 -0.01826614529903951 -0.6390047533148155
Ni 2.116845543035411 4.463916467568429 7.426127956600438 -2.2732148919089945 0.03063083751197951 3.9588470937288913
Ni 3.8927189135454006 2.285121105334125 13.443375477553408 -1.5886597036578898 -0.9412638980659015 -2.422710913891015
Ni 4.730126054134829 8.10550882916247 6.074702761281203 1.2607563759761384 -1.8238223118707944 -0.1199851570070966
Ni 7.623375629447644 1.6991162577310646 11.79786603443862 0.38344635505437835 0.5844688270504644 -2.1927884710311267
Ni 1.5194342079507739 4.1960524347919685 12.578352872307738 0.5202488407291298 1.378468163568026 -0.7332413406028985
Ni 6.248834144026744 6.532939323765287 7.798613652880358 -0.9176791687674261 -1.121412611936772 0.6495717301973845
Ni 0.839053314568438 8.63450881346115 1.9989193745927225 -1.6999151941014723 -0.9517969363867415 0.8730677007056384
Ni 3.0989799615337077 4.654324843610606 5.677450924373475 1.0725243708765013 0.09710079620975536 -3.078526568115582
Ni 5.426225105649514 1.41962514464502 2.7082163111797644 -0.3506359933925768 -0.2450623838251199 -0.37438244507989715
Ni 4.433318404050163 2.7170878194128165 6.497354024060475 -0.13685339351734496 1.2793775906217513 -0.25748106920444686
Ni 7.674939202994496 8.596245149169608 11.490812766629768 -0.046000635099830454 -1.1569455147360592 0.16559267043356643
Ni 5.9886908602305615 4.986758235418553 2.9588088446599867 -0.32155244576305914 -0.5620074127231547 0.12479646235281087
Ni 1.0506101088590913 7.049769937052195 3.837970531044183 0.3436487634414662 -0.7503378910738691 -0.7063956811649641
Ni 1.9758040036278417 0.9255983149534318 0.9800470588632719 1.8840725149111037 2.2564872947416683 1.4335771887270279
Ni 3.606260743641439 5.0194243566993935 3.4296734274107425 -0.37053916007440696 0.17924985620568484 -0.5763379704132139
Ni 7.1969605015404845 2.580926896324923 3.596471017761804 1.2842086934618075 -0.5727204282652847 -0.023284681559553447
Ni 4.5208569912979755 8.123386039598946 8.5389985528912 0.25486959972352885 0.5957274306834193 1.2758009290140868
Ni 8.729519982757731 9.061980948669179 3.9821536799772983 -0.7822439957538463 1.4967538213855127 0.19997269057533304
Ni 2.73927578136328 8.852289082911977 7.152221518610127 1.217297019240923 2.0641777771385486 0.5894873633109783
Ni 0.5766397629173405 7.690178490862711 11.03345489891058 1.1429386589340058 -0.023749279900797806 0.12168697018955173
Ni 4.07513079957229 7.036221860865375 13.002146622108734 -1.6289548037325106 -0.6168858099285892 -1.919766368768287
Ni 0.563509893966952 1.9824769366750816 2.889474680543528 0.3552040723792334 0.35402445024883544 -0.22908092079519904
Ni 6.176681906532484 0.4416957769306241 4.900112129987389 1.0201569130183785 0.547211999581535 -0.31399828756488507
Ni 3.829307666860955 0.7485073117654507 5.051183289975052 0.6298505976193733 -0.05677715689004415 0.5789561247623513
P 7.672209366747898 4.0172343735880425 12.84222325576047 -0.6056675726152666 0.3988637180507131 -0.7105438990053827
Ni 1.4439638866685611 0.8689261791646283 5.025421724210859 -0.38794295737315126 -0.127687924967993 0.6592964136843161
P 6.573684657371919 2.4197286872581296 9.503475434644246 -0.3492853929019533 0.0025780451398213665 0.3917777577382091
Ni 7.2133487103879075 3.579091060325129 5.662384434220534 0.0072386838402843075 -0.8399431502375276 -0.2399590011602835
P 2.4284145298609414 2.2790731852995743 6.964586178243367 -0.06037284466110248 -0.5823037010783455 0.18072284120678553
P 1.944130550073037 8.99095924941846 9.426997739447463 0.6456883359825784 -0.4838286502288829 -0.49622625256228725
P 7.788893781396259 8.367802893031731 1.2659886738949817 0.043459613845531604 0.5418378797538154 0.230816415429067
Ni 5.9553445777300285 8.373115503639589 2.6668496411075773 0.9160400905021063 -0.032742998758975864 -0.46415482594903934
Ni 5.994104575884589 8.057520697702913 13.354521605568598 1.8605703180241056 1.667983121279566 1.06857489931045
Ni 8.578698827975144 4.548201310603124 7.542181843415409 -0.3804394499072545 0.4464293836448183 0.06886725528535881
Ni 1.0822284142068943 1.3175458134843514 10.69395426437533 -1.9584306181077045 -1.7454304049244522 0.23901540630009158
Ni 6.290590528095077 3.8147209661089305 7.753480360269935 -0.2625165747458253 0.16952748671159837 0.42023447041700535
Ni 1.0532847968986874 3.8925994257635628 4.41323894188074 -0.37439247238222617 2.030774519087754 -0.28494533606298666
Ni 3.7157115518047057 4.684573635151192 11.81501804595302 -1.527222165177699 1.4696263690411013 -1.208147748641487
Ni 8.826240746471374 5.684603646821633 11.895194347566068 -0.5680232798999314 -0.31461123855853557 -0.12148488148107464
Ni 5.497926966119923 0.9114656677723906 7.272163354018738 0.9836030251537449 -0.88110085542276 -0.3493622688864757
Ni -0.00480065141952253 0.5735753608815971 13.190495212619386 -0.888988742811269 -1.16836841186102 -0.30690384261194886
Ni 8.919726148707566 8.811672428455017 9.13712313811973 -0.36778242326487626 0.34283783750439667 0.12415754321723135
Ni 4.78168043631385 6.409186747252839 1.5183294055371672 0.9375494253287919 -0.43667641802311247 1.1232028710679751
Ni 2.1884738725631516 8.824430047008141 12.601759609632945 0.7253133440050735 -0.4070447111996087 -0.4783030924249634
Ni 9.134574371819454 7.17474496548652 0.05628334092943943 0.8709578534514871 1.5789658734088936 0.2938884041888874
Ni 0.7028335667264092 2.9736280870182026 9.00590809006313 -0.7703259041600218 -0.0036152281550840965 -1.5769575847296133
Ni 3.8189949521515842 6.229982648599899 7.463538661957016 0.3518122730888651 -1.0855989446722725 -0.1477157901531456
Ni 0.085672739577579 8.042750169594214 6.125742426861536 0.546800108855097 0.4297604076295695 -0.4815159429353062
Ni 0.4688470775112666 5.329329705947031 1.702346104387814 0.4404556825598866 -0.3475540120331434 0.06807689817357952
Ni 1.780845900508002 7.102427283371254 8.264272244890128 -0.5836728135117303 -0.582970388128067 0.9787978904556176
Ni 5.312730095639434 4.2409522666594155 13.132030760103019 2.5482730507652565 -0.030726739659895468 1.826742570841383
Ni 7.7618803513331205 1.3626938122833072 1.593394387497915 0.26944055555916824 -1.2289307468251094 0.7365043276248865
Ni 7.280951220804504 6.161654020124444 1.0240681959658207 -0.9901966192108625 -0.7529084800145227 -0.26238647692586425
Ni 7.290455095144512 3.7185241103618067 1.4218347494722328 0.08377862517955248 -0.14101266710135713 0.6973363991761733
Ni 4.102622180762777 8.966666464234086 1.4028803107256513 -0.922032046419483 0.33913802005530624 -0.3827971515061536
Ni 3.816568431043497 7.383517694460356 3.6414563293501034 -0.2562952764264618 0.9738749992327034 0.032474061368305364
P 2.7375478042105517 0.32811161065255867 3.238285251557498 -0.23776970681844856 -0.5358896325901803 -1.1985994428314197
Ni 3.074871003706008 7.466488171894838 10.71993090814683 -1.1382551374154073 -0.43807149859842626 -0.505818781346729
P 2.574750297140701 5.127827348929622 9.646125463422706 -0.3533613627435398 0.1904776066007042 -0.5505395212928712
Ni 0.4428777868340333 2.994850955346132 6.351703932821107 -0.1576245646264253 -1.56877710580135 -0.015239185547257625
P 4.450736046094955 0.28446456222084004 12.589786933892814 0.9820914736052248 -0.46313049844958304 0.9072608016475794
P 0.6203934312159297 5.960831824326727 5.754856947721457 0.1262887306276212 -1.1991149490152575 0.007171578047774746
P 1.7339147763493152 1.983230628837442 12.596486521906773 0.9007384271480294 0.5651135624523042 -0.7288997758047512
Ni 0.3390704785206359 5.534076615809723 9.539205038824045 0.9899911880682758 -1.1890279970929005 1.0237122344698046
