# total energy = -381162.7301115355 ev
CRYSTAL
PRIMVEC
9.27829802271081 0.00000000000000 0.00000000000000

0.00000000000000 9.27829802271081 0.00000000000000

0.00000000000000 0.00000000000000 13.57972702097925

PRIMCOORD
 96 1
Ni 7.5603282530043545 7.477333878374828 4.648449510999691 -0.7205444618615203 -0.0045742496342437355 0.9225241555645531
Ni 2.3355702581602134 3.323801766465517 3.4506769231378485 -1.943375780657111 0.662583311965704 0.8449100073244997
Ni 1.151251202239434 3.5513056307378483 10.13589467571652 -1.2961021024652841 0.8484442457300032 0.29505259970031766
Ni 3.5168553106708353 8.151021809898062 0.4754190560737296 -1.5347017613841956 -0.9236706104641706 0.8222886703805581
Ni 1.032414762859335 3.391357053405437 1.6348629953503766 -0.6119616331540945 0.16344914172800237 -0.948205105270425
Ni 1.7537281974539356 1.2578588450000003 2.8652812743395524 0.24423551704845034 -1.3498235032481398 -1.1647886649295616
Ni 6.447173741902857 2.567100903716973 12.87817077143382 2.5750932562818942 0.884296222431606 1.6261559008311348
Ni 1.27646183227023 1.3787550665117656 10.405995205603624 1.0422447460563535 -1.3532219874067275 -0.47967760417498684
Ni 8.76867810046124 5.5792539223422235 7.4948002741534845 -1.1454701671066079 -1.5370643480791013 0.6242486780515637
Ni 4.056972865764035 7.716769633734199 3.0295145696377452 -1.5707236880047595 0.6297071300629735 -2.445318109767569
Ni 0.7930699348192892 8.383860695457368 0.8973060446390723 0.24598952362507956 0.8602934317591054 -0.9732281096773238
Ni 7.187776757811576 4.926655561923841 0.13378006596235897 1.8250986074800568 0.228641005044303 0.6360328151706853
Ni 4.847446732833593 5.540544863543522 5.510720702804656 -0.3440434277767236 -0.9148494126281148 -1.3496445544681144
Ni 7.079072219727781 2.2152121779260905 10.09582077929814 -0.7954972612193267 -0.18927381610059016 0.040974899750464915
Ni 6.409995602256069 2.3548134479848795 1.9563634398906586 -1.4655539987439405 -0.419326099670123 -1.4085446712384322
Ni 7.951983763553444 0.42126348694710863 3.9926158081069314 0.5597576974570295 -0.7827386760020777 1.7037649068648657
Ni 1.390918915046065 2.3562051926684378 6.190006231445164 -1.0371220801178074 0.47156551659081364 -2.3466548541667005
Ni 0.26002708186751133 1.3530820162490598 0.24507881613630603 -0.04337528166184143 0.3032855291330712 0.4268311497979165
Ni 3.325638869447814 9.054421840591543 8.793674762807736 1.4268946345005296 -0.23613499942850302 2.47337938678016
Ni 5.1042792967374435 4.971024382435681 13.176789077716824 -2.0110572431644846 -1.979747891528242 -0.9454383411585652
Ni 1.4035930699643362 8.239082135175742 9.93788837609731 0.03412059583279285 1.1575929185120708 1.6230692914860112
Ni 5.564111740185108 1.5229305374305162 8.069684539271758 0.6704537158527163 -0.651010262416124 -0.740240654738867
Ni 6.25463050408151 3.7757291001105715 8.642884793322928 0.7095573667223973 -0.3284309180504473 -0.8975178633282026
Ni 3.092809262186399 1.4505876487791551 7.276560790324705 1.7052414914103922 0.11055126528770637 -0.30156443267690647
P 3.597947634232833 6.336103237857014 12.720198471552063 -1.1521012992698803 -0.21951307460110583 -0.34692537731020895
Ni 1.492905965457218 6.760019390170984 12.110549352068288 0.2416207051334226 2.239580748794317 0.6725015995206804
P 7.192991161225974 4.138222920390168 6.540295378679743 0.6927917172282843 0.5443971558405593 0.9597665848557793
Ni 8.474760179889506 0.23365073662471425 10.30417423672471 0.4773918934646036 -0.2737188712195479 -2.312669755470507
P 1.9928948821744863 6.480798293457626 6.995501662799261 0.46612557652216496 -2.201372356045396 -2.2926586024559032
P 4.387400888534448 4.5425247509638575 9.52399185767517 -0.5252874315943017 1.1027865121951523 0.138147172628104
P 2.1316239922315785 7.135604888773919 1.91328801410474 0.6106881657583095 -0.7487690039248523 1.080153605286985
Ni 4.12990956548038 3.7914650933326706 7.2822511704208805 0.9003422201508752 -0.6928161427083165 0.4512113784144938
Ni 8.238497602408648 2.198947321724239 5.8988977794746384 -0.6133795965475437 -0.4732287632258495 -1.6352529780363965
Ni 6.645302515054217 0.2494618840597257 6.0602928434481615 0.8821110418548291 0.49697727179569895 -0.8386087476968201
Ni 6.430296518040239 4.42159141626053 4.544062164924295 1.5928863401447275 -0.25281400274608073 -0.747502735617919
Ni 3.4452546858507054 0.26771322383990936 4.8885932004881 0.4528643406368846 2.155194314827437 -0.13491169640994186
Ni 5.3162141771497025 3.7108366846651926 11.358925573925365 -1.1116910137736338 -0.6753236423505079 -2.1077080963210153
Ni 5.9919062210172624 6.478571501963932 3.3234343458690576 -1.293320940175721 -1.4778060766384162 0.6646669339676102
Ni 2.3762555944095674 4.794449095283693 11.67468089641192 2.1563070882756414 -1.5320884921310647 0.09916873448237759
Ni 4.911207195936344 7.783564100247107 5.002635543348235 1.2749943739523912 0.24458672974028198 2.110261201760172
Ni 8.496842528868632 6.858879654193076 12.279345714268976 -1.6005747099279208 1.9344455680470172 0.27894618105675834
Ni 3.3457171060826156 5.303809092870253 3.817532471255718 0.6700636795031493 1.2996201429208714 -0.9729709993611954
Ni 2.650772594092499 5.025098302540866 1.0042198712300217 0.7399524340744869 0.7889646023071316 -0.12650264641064018
Ni 2.6758332766944393 0.8044961586713029 0.5135185307010328 -0.30400415246665063 1.996201409098575 1.0464091618466882
Ni 7.789901177706242 4.123553931425464 2.507524025132999 -0.432030691720985 2.6119217379641535 -1.0762072190447272
Ni 2.4546108200939005 4.387623567683818 5.871792160017657 -0.3175165851307886 1.3717544989932764 -1.6112147061402704
Ni 9.32858626495464 4.723896918125177 12.244323851051913 0.17793756515216452 -0.9500298171839897 -0.4797367395476964
Ni 6.668257024035039 6.453798446596594 6.741138981793831 0.5313716901151687 0.4914082623483537 -1.1623977960998821
Ni 5.11758437591226 6.7801069051036755 0.8546425752794868 1.6635297134939029 0.8721022514685753 0.504251436859609
Ni 9.408750758727598 3.956897144718302 4.505672279573022 -0.3484988924449159 -0.9239572884666539 0.4153668579120589
Ni 2.2206028690004063 7.64161542082205 4.542934851730613 -0.18327697508720694 -1.0164038737338494 0.48714125954188364
Ni 5.174831473895959 4.785245023776428 1.9159091332587745 0.2976059622497907 -1.4631767567610157 1.4685938140115289
Ni 0.25996027812270056 6.150203261325184 0.6557437034032236 0.41817578811576367 -1.1032518818673451 0.9754706258545973
Ni 5.722501563471935 0.41840391553729084 0.4329838328422477 1.193119907774087 -1.685843803610071 3.0836415207446444
Ni 2.3148147057794133 8.583975024357272 6.865856006376859 -0.03457645242328884 0.0007865004570373551 -1.3979303860576955
Ni 5.3240357822713005 8.426438804476362 7.447570026572249 -1.5304859235306352 -1.1725212576871291 0.9612565391377446
P 8.670968345377556 3.329452249880764 0.21415332143785137 -0.7728059902693981 -0.16435185604792985 0.019855858383662578
Ni 6.691063080249615 0.3066291886815668 11.622277069927005 -0.42080294132596563 0.6828947698295464 1.679845677045107
P 8.258037697765806 6.070892370958141 3.2472929220613715 -0.026945418240592305 -0.7722133509907216 1.1877455308360512
Ni 6.531652644194846 8.103053009804754 9.861108605394765 -3.2396164655827886 0.9497891619280934 0.24199891440844779
P 7.425069226358268 8.571551383482042 8.036672355377757 0.6562918225300375 -0.12797948806648282 -0.8065103245003787
P 6.661715824022315 7.871856382972046 13.132356236949544 0.9509374165999235 -0.3044430397762821 0.15732528821845163
P 1.2832906595175557 2.28800042487619 8.215082889852463 0.4217164542791704 0.0741758119824658 3.1111063018238165
Ni 0.38253030457389187 6.143829070674487 5.432338570056441 0.3169267740655897 0.48266882559282687 -0.024232647295119557
Ni 1.4894544386419937 4.4840436393607375 8.010830440093445 0.6251084549486976 0.19130010250199958 -0.006393562231169633
Ni 3.4614638722652145 6.867424966550124 10.433738244125676 -0.17025588023719065 -0.787271787985741 -0.7581172779089718
Ni 8.329359973649224 6.9736429207992945 9.747256467641384 0.9318377196559952 -1.442374732414 -0.09971200858035731
Ni 8.676943569218967 2.29205504105429 11.670051025764616 0.7847197109878485 0.13019449343993061 1.122272645944222
Ni 0.319545507174777 7.813338158177364 3.2080744847084874 -0.6293811141821225 1.3684658009396753 -0.20801638681541595
Ni 4.01342053546655 6.146621838339494 7.32372330633134 -0.23174766899408475 1.528209725901949 2.8266507609130547
Ni 0.6489427110495687 7.463036021325738 8.047182811227987 -2.425718590369087 1.1003236524769566 -0.0017486072599905366
Ni 4.394303942164898 3.0332704246237747 3.7735347826594943 0.9092212678080598 -0.003652509150922742 0.17887293248224032
Ni 6.391225605623813 2.140633219483146 4.239129049097091 0.13441881593392332 -1.2875768386030921 1.4708939228996154
Ni 5.990802103568306 5.984427912917609 8.776944136051787 -0.6425860429081708 1.4076429853597694 1.7215289157165061
Ni 1.144598662652025 5.989605203140446 9.93374654391904 0.005056588587300969 -1.4658429907392692 -0.2678379869587387
Ni 4.703558889149445 1.3760086903362103 12.48924771961345 -4.074387327590758 1.0476214369872345 -2.0083218465111927
Ni 2.7457638078942987 -0.30568094663716905 11.99375042690492 -1.1128716643452963 1.1412551005839957 -1.272440497182286
Ni 0.38596234696354664 9.09302883811345 12.113645520074313 0.17459950191786705 -0.478804200431098 0.5020914530938128
Ni 1.9591125995555807 2.6124068323157417 12.979910091291298 0.4183277403125957 1.4136621949706556 -1.3037331366479805
Ni 6.283829307542563 8.81188713373678 2.912172864047788 -2.1167681496407544 0.4489912308347235 -0.5109105940473395
Ni -0.06597240931982004 8.638178840632923 5.7099767891496995 1.160536317411111 0.45266867968631064 0.5750007396590291
Ni 8.211293632994028 9.55701795901601 1.724544239269507 -1.0244413993263455 -1.3158296628011985 -0.9036203766815147
Ni 3.9148386203811696 2.3972152693439557 9.38412058914777 -1.1162027856010583 0.16970952081541738 1.3288371308044598
Ni 0.04455438646964669 0.5075637191149813 7.872426070462517 -0.03311683715862684 -0.46188402763699166 0.10654780055526811
Ni 8.56508440985244 2.1906246885165603 2.862293662418847 2.1919927146027085 -0.4920860051416686 0.2938410958907198
Ni 4.091562360299403 2.913784504391349 0.8994317026857604 -0.11768273412616505 -0.7920285859444359 0.20204577105427782
Ni 8.4208996606358 2.7154423303885085 8.013790217120478 -0.30628137853660153 1.4583430828177981 1.63075663282794
Ni 6.770884277000629 5.6017816296200875 11.284128575481997 -1.420288699148238 0.9671605633270052 0.3295164378051422
P 4.58577089743096 1.0343353705226455 2.75149686816077 -0.15585050344513804 -0.02188831543265908 -0.5934419770833521
Ni 4.738640133473004 8.019344206237665 12.032697010129615 2.8797193586032597 0.23378269714624256 -0.5512411753455861
P 4.698938296800031 0.6611761468180463 10.502859707749495 0.1154744136209366 -0.8958505029281087 -0.918301118622141
Ni 1.02131791858243 5.572425095094897 3.1021116836513025 1.420893165501456 -0.9827491617938816 -0.9837344085252864
P 8.221314194715648 4.60154400384462 10.270034739637024 1.2856320561718955 -1.1014659936115156 -1.2254674708668571
P 4.731532957288967 2.086336620228591 5.918411895597703 0.3812058957596338 -0.5322394374321028 -0.38947687751917437
P 0.5587576555549902 1.2008808176551231 4.573325916470581 0.16691601723068028 0.11673271150806995 0.23807901052875127
Ni 7.312393576777387 6.986020170185072 1.6262944872486027 1.5939248087115712 1.1263049070320668 -2.2837196480950603
