# total energy = -340862.736476959 ev
CRYSTAL
PRIMVEC
9.33145692949443 0.00000000000000 0.00000000000000

0.00000000000000 9.33145692949443 0.00000000000000

0.00000000000000 0.00000000000000 13.65753045443903

PRIMCOORD
 96 1
Ni 4.643799534262874 3.0877790935146896 8.299134634033026 0.18660269702633023 -0.05843063333306712 -2.3406847526261947
Ni 4.80375936871748 1.034410662055879 2.7731615584251683 0.312626604028339 0.6438857355562008 0.5941449166876477
Ni 9.078481119037493 7.174882571080981 13.786184336552731 -0.8791897544429763 -0.11237057788463228 -0.6655421374837119
Ni 7.586539792931693 0.035538853664704426 13.398242079308421 -0.4220113598117699 0.6660306470843562 -2.7447436417246016
Ni 2.8884125165036854 5.204788061140833 4.554799830780537 0.3786286219507608 -0.6877240728973898 -3.5815757571369735
Ni 6.9176422982767525 1.031387270015085 1.7758751645640274 0.4742546333872026 -0.1291161727740873 0.5091468172786974
Ni 6.327772912243678 6.0714937795018 12.041312004446526 0.36551111073219633 0.7355949284367397 -0.11997075882939338
Ni 8.199719158341011 2.063465067841956 3.55938439403106 -1.3666955964131302 -0.8389075098841616 -1.93799111930643
Ni 2.9174146845987097 7.1719058363247665 0.4162510980904739 1.8392805554073937 0.20369436240129435 -0.27607400171528584
Ni 7.841353886937754 4.838621691755772 3.7763211712692595 -0.08301037955496027 -1.6185788598148254 0.9836498192312801
Ni 7.140234871551758 8.993126282626557 5.6700880962190405 0.4069557510302282 0.6380734997497979 0.7627239234430477
Ni 0.3965981166796208 0.9194517785788339 5.066274714116342 1.5262430890938812 -0.10315317305142235 1.0054877410419782
Ni 1.8459301442154392 5.498299706977674 10.098323510556064 -0.7296523377000596 0.6681618344947461 -2.9036995235679415
Ni 2.520426513019999 2.0139803518162434 12.856434362121364 0.2088514811222016 1.2032197152122504 0.9554185922997288
Ni 6.7933566236121345 2.3859602188599904 8.950216511143879 0.3172677023447762 0.6329508338112518 0.6109385912062187
Ni 5.8705781806427355 8.308188013532957 3.455928397494406 0.009114560706758496 1.3468790759078353 0.9807033350084465
Ni 7.259948132327521 6.71001738189506 2.5884705637060064 1.8481765723454429 1.0210100050472932 -1.050699818802242
Ni 8.502049030963503 4.781998411189296 12.317563254425785 0.37012392691385937 -0.2543960025212199 -0.30670741033042664
Ni 2.259332348509449 2.575724726704399 1.7751781047324 2.947585426317614 -0.06123956353677195 0.8026760383559531
Ni 0.682649262712096 5.147726202099301 5.214445185903233 -1.6775116295952917 0.8373656193183385 0.7159725262201218
Ni 0.34666175813917194 2.1266763569911507 7.0565727614253895 -2.1224009224464995 0.7328798434984216 0.8169549168724705
Ni 7.489921888023106 7.639645114240826 10.051833259054707 3.152068860279107 0.06971597643889928 -0.27265751983456915
Ni 2.4669292705203927 1.6305601185934415 7.429997137999739 1.55602520545232 1.5809628492342644 1.8844926331676577
Ni 1.7872726060412678 6.517238813466774 6.830075906576716 -0.9280008624084082 -0.05521135506482104 -0.4018989053326111
P 6.438649283319959 8.40404073897443 11.500678184539508 -3.0590442910212543 0.36511284685251316 3.6177851171779953
P 2.6552847283704804 0.47421624216147584 5.799260654870584 0.08057760174375155 -0.3341873609182503 -2.3367167691173822
P 6.264654937663644 4.5674495537759086 8.560553533244253 -2.0840354352944237 -0.47034707080268023 -2.0713511549585357
P 0.5092801246691543 2.9035854654491517 0.8835014076641325 -1.5918548135564197 0.6685246171508035 -0.63328302033969
P 0.660503849158971 8.581217111439111 7.109850714687468 -0.316647552262274 0.25740007945486637 -0.646753286911983
P 4.456974435347016 3.5495089131768243 13.011078998716599 -0.9884071314106074 -1.0693709128491842 -2.1473560497299404
P 0.3830264457409452 5.349668261219131 8.135517801613027 -0.6890175948978327 -0.7544475423668684 -0.11100429366472495
P 5.940125529037914 6.139557426247332 4.673702187950296 -0.19756253847194363 -0.18730357974809678 0.3966859936731039
Ni 0.9879959953555404 3.8468464563492386 3.2521452419250445 -0.7347714040941797 -0.2009337689370217 -0.531254447811014
Ni 5.828539967236014 8.009012173348085 0.703405222330424 -0.05664345952565729 -1.227266728859125 0.27178103076688676
Ni 5.093603751986322 5.27015491683763 0.30074445809245776 0.07194306599720514 1.7664797693955836 0.3829331628633857
Ni 7.809682922164744 0.6437949424051257 11.00922580830843 0.026890910853573046 0.8849181722863211 -1.0827928426820448
Ni 4.49230333123111 2.014876171680182 5.38334735552047 -1.7977348707551233 0.19123042560632875 -0.3005953838954178
Ni 0.9820705202138607 9.363463813253082 0.34133816196857625 0.004091139350238115 0.5724057252383432 -0.039023432451048924
Ni 5.19875060851616 0.9138407735352244 13.716530609548707 0.4272096161832578 -2.12126192374605 -1.8986411567538977
Ni 5.9013533255518045 3.3055473035641074 3.706817680721585 -0.018421697040297304 -0.2667498961008825 -0.04828840269274264
Ni 1.613315586212616 1.8072792496692383 10.644323851335491 -0.2630927589642694 0.5414699548914352 0.6288126432731622
Ni 3.077439839251727 8.700902377844127 7.541961556952429 -0.04838636172318764 -1.5942456823860993 1.7316503204212244
Ni 4.577639504728214 8.754530260740557 5.658287535803027 0.9159056218067709 0.7296947609022207 -0.39817440529317233
Ni 5.0078569943849125 6.30258731002731 2.7344696054685373 -1.9557499859517478 -0.3299242147665221 -0.32614135068532224
Ni 0.4866476090650125 8.848442043143494 11.739125836260541 -0.46310581585923466 -0.28897965403336034 -0.2739279019065605
Ni 8.604900349091999 8.820046419748012 3.786181721792429 -0.9874835911550736 -1.6641622048715792 -1.983320439370849
Ni 3.8961632061504634 5.346066318849543 8.67672457297469 -0.5485949959719907 -0.2097966186442903 -0.5621696493326318
Ni 3.413194990547442 5.195643233363121 11.59809766159718 2.7849664938003906 -0.3160952793032298 1.5463007790757046
Ni 3.345691231216873 4.878112417424416 1.9249470550890073 0.18967825062786042 -0.6254717518253874 2.1300805504789446
Ni 1.2463187171620294 7.362286220325633 8.84334613452165 -0.47180514340544555 1.297667904290507 1.366053591953757
Ni 5.706755123024893 6.715952188493656 9.045847147910749 -0.5410485510833005 0.27881814011932626 -0.43331032976435696
Ni 0.8319357767461446 0.8391508592336199 2.619555512984689 -1.3917437976310094 0.16665376470822912 -1.3681156166891084
Ni 7.763100289239917 0.5469288207425733 8.01134317128571 2.224172384659047 -0.5424639433735884 0.9055178508145437
Ni 1.8240012204627662 3.8059746750570227 8.233538224496092 2.2579487097785433 0.2617766112560072 -2.206783756868954
Ni 9.357771624534303 5.123221796237805 1.4261330924968736 -0.49232768883882944 -0.6963755779248008 -0.10852472177598084
Ni 5.553541931920578 4.384329043255714 6.184772067588268 -0.8075552208251252 0.23275399877141206 0.10970562945795943
P 1.4000917956813057 3.984214833610133 11.367722653254203 -0.4310089353246899 -2.184509004631154 2.277050206494685
P 4.025767811257219 1.1856922415785753 9.079211772114018 -1.238531760249983 0.21025556055857983 0.4311454609025543
P 0.2684240239180925 0.8102336073965312 9.474311256812923 -1.2228847977413455 -0.505595095371697 -0.7337357637408137
P 3.389801028058952 7.166036349924584 9.876183512941486 1.5569196922421316 -1.6275391543319067 -0.18501349816233942
P 6.572145105960701 8.228823972462113 7.564510089444327 -1.8135520402930378 -1.0201029198519915 0.7347217818031669
P 3.1318702274429366 4.646710948820677 6.593077430114742 0.9023289115636008 -0.7155876320768773 1.2123895546369765
P 9.575194570677827 6.802874709666485 10.865889964349734 -2.846270592026511 1.1884991211726241 -1.340752137074491
P 3.7037765589126503 3.2648061626687155 3.7207346155661534 -0.7798032475228376 0.40435353752069075 -1.1735242450303467
Ni 2.3987909721195333 8.929821678908201 10.338546005382527 0.9941476334388104 1.2060954940981485 -0.8339900179778864
Ni 1.3752048000862507 7.112072534579176 1.8993937934701477 -1.5283375097290646 -0.0800340705354557 1.6240229136485322
Ni 7.796133646722668 5.375264447539805 9.593226678022367 1.0592495081444662 -1.232494810027284 2.4290165443940683
Ni 6.829217412540441 2.498945499199295 12.92601903634421 -0.9842303743250985 0.15480097913470114 -0.019169116729283116
Ni 7.97051058211254 4.470169115426284 6.491438268239639 0.1105389239925322 0.07690400954690627 0.8364040267360175
Ni 2.241089350238608 4.642203855130234 0.10922470320214397 -0.8557513209143779 -1.2411062058453786 -1.282941910934242
Ni 4.383769155840752 1.2241751699002874 11.391308843755164 -0.4239993367760762 -0.08743396254395264 -0.43601178785592004
Ni 9.059025031367568 2.0816147515436367 12.576782729241904 1.3802861906133712 0.20990820452149012 0.2881453310575231
Ni 0.11614211221399783 3.515747702054624 9.49232470124363 -2.2400535746656773 -1.0047290084990825 1.6793126873597723
Ni 6.853395217409878 3.800021205544595 1.374479745883875 4.394878679079153 2.550145585197621 0.9661053825896135
Ni 5.619655304170658 -0.10196016399301377 9.506064338406796 0.8424895708084651 -0.28739405471379537 -0.11242559949228378
Ni 2.775847151725602 0.41600941335634867 3.619819574747735 -0.0767818821467452 1.7275630377257278 1.7649201382179474
Ni 7.848072535917296 6.9708875914396256 5.351225681378417 0.9305390554492298 -2.1184776761326938 -0.4802887553964245
Ni 8.282666478867613 6.889554612959499 8.033728403281577 0.07534694947243153 1.6701055669392073 -3.102894455436985
Ni 6.357176332986092 1.7789862722998322 6.637218020764643 0.4265131043368655 0.9769441250763304 0.044417863993742854
Ni 5.195111340318908 2.713121098336041 1.165889023711374 -4.14159596422677 0.1865312203584465 1.0618774326856162
Ni 1.4439216488159037 6.319999808632624 12.378215858088604 0.4144883119618475 0.18352817186606457 1.267688070098965
Ni 4.225638286941689 7.535002156384453 12.214339611166341 0.7772858804176226 1.0767173259119263 -1.410541647063803
Ni 5.511233106263293 3.8755500178229507 10.822636795252548 0.2892264799368438 -0.19393676879389823 0.26346634025360427
Ni 3.763460557347585 6.6131008703651615 5.878201047797441 3.1692471718306066 1.2566500671172487 0.7433138943475521
Ni 3.231240912141752 3.2931551287796177 10.01580450390191 0.12384129752839318 -0.19460936938089063 1.4157435029797167
Ni 3.248177506444348 0.6093600000935878 1.0674038942738902 -0.9923797429051103 -1.9648997707718159 0.47541085847883285
Ni 1.7934873563473446 7.531064281565888 4.361750650101685 -0.38433672807913166 0.041053061286568014 0.7552163022120928
Ni 1.9775130181883938 3.2304010810193087 5.315701758044778 0.5582191493253161 -2.6238488284190424 1.1443949317645583
P 6.276141961127278 1.0846418946348744 4.492877215831445 -0.258117160126549 1.1568956353347302 -1.7533460602271027
P 9.384832849590794 6.333455769505542 3.5047001902117345 0.3985027351668685 0.4867116282036328 0.14187218688817502
P 3.162608046524343 7.998187683325489 2.7220960935978797 1.7396953022128876 -1.9251456308023296 -1.6493534219935206
P 8.904636076691833 3.082170887908155 5.087129587177979 1.6907990907328172 1.577994767744876 2.129997760957151
P 2.607377028563577 9.16587954451304 12.524856904086958 0.9359892799305236 -0.33632857563096913 0.4645050101996065
P 7.50176350684955 2.853522199094645 10.895608788335911 0.9589934541351807 1.071879795313967 1.01312571720321
P 7.384448430501208 5.819861712304105 0.6008067866843537 -1.0651591887606817 -0.45386090022219894 -1.405336962934412
P 8.520310692148177 8.788310134776589 1.4328526746221075 0.3840747326669966 0.0072764790567552105 3.1552192329826303
