# total energy = -340893.2770367673 ev
CRYSTAL
PRIMVEC
9.01483786705421 0.00000000000000 0.00000000000000
0.00000000000000 9.01483786705421 0.00000000000000
0.00000000000000 0.00000000000000 13.19412645221314
PRIMCOORD
 96 1
Ni 6.371164652777079 1.8828210394312426 11.399844134856457 -0.1403351814183583 1.230887613441164 0.590242239199132
Ni 4.571244063788767 0.4494311436115869 6.004924237392706 -0.3452960692369021 -0.02406372581742307 0.11462209292297033
Ni 2.4794410493501275 1.4372356257194983 4.841465636441764 1.2651349646598082 0.5189712595682868 -0.5080394431471315
Ni 3.210174804510366 4.291847188997798 4.5646668379685025 0.36207123181271195 -0.20809660523404808 0.06892201978269422
Ni 5.033840476846511 4.6441200143521275 2.587776865269867 -0.5385162715797499 -0.08889717735304045 0.2990298391805108
Ni 7.336527597115022 6.243541590910988 2.700045855018255 -0.48421894368876606 -0.37875152068187035 -0.7089930095784951
Ni 4.964272971836931 4.452428498669386 11.87265616235982 0.8445762781341648 -0.7161401621462375 -0.9537802853653574
Ni 5.7267479716698055 7.713699405083899 12.355587345541977 -1.093612301895052 -0.04567924720466971 0.25745201573872434
Ni 1.7911942257837925 6.362122770241818 0.33943118859313437 1.2057288547873493 1.249262516403926 -0.7149366287564397
Ni 2.6096693994043454 1.561820687172446 0.4542946487240229 0.3420330822149142 -0.5915676428787746 -0.5546774547206447
Ni 0.560624663184046 0.047516309725929275 4.8498836921859585 -0.08280314864016063 -0.2845522143896261 -0.6341019166965596
Ni 8.469647662189427 2.2356798292569504 1.2873954955501663 0.5067317800793015 0.9887588583230714 0.1872066491589163
Ni 6.661063813862745 0.8667460252888561 4.900061182095744 0.6350951338477644 -0.537874524230693 -0.04359871052655717
Ni 0.6554625621346468 7.480359337743227 2.534855258666428 0.01819518285178802 -0.30103529964631387 -0.13751339569884707
Ni 7.547483821649062 3.7323322523741607 3.8745341102881325 1.0857246716168591 -0.43424878241822634 -0.01117915654527107
Ni 7.5209621681906995 3.874838811813249 12.731197783565584 -0.5032350797799526 -0.2886135289431933 -0.14347449837828838
Ni 7.897421803955902 8.72346944151426 6.7442175812540714 1.3813722245886986 0.4651637268295279 0.3085784021008944
Ni 6.75363718550242 0.5745219374775239 0.39270166942799395 -0.2149498807104556 0.9892633087633156 -0.7965272451457379
Ni 1.9901156415595338 6.4752589874078454 9.322442324156677 0.061433167604816784 0.5155576059010476 -1.922679171539708
Ni 0.10711160091646092 5.014611827347298 1.2220135798338279 -0.9018067205115438 -1.5380164275797255 0.3472843033115245
Ni 6.47725126661053 2.190082778545734 7.235473967348806 -0.6398624733294206 -1.6219182086007036 -1.8607268982066278
Ni 3.4020646466295736 4.243563716556264 0.6723473537483494 -1.1408208412600547 1.278636855800985 -1.1455614412688335
Ni 5.995570441461911 5.403232479603095 4.656946325888687 -0.5213754981344053 2.2368803191440185 0.4147315383209051
Ni 5.401970402280127 2.8070042036883556 9.225940286107363 -0.12321086303324587 0.8050977604235683 1.0816661852767693
P 0.18193295352479497 5.624582812375575 12.204131756399248 -0.0482187257970718 -0.7204141069312431 0.3878809937869642
P 3.9804656689076188 6.115170297489137 12.681297049183048 -0.5517595097429014 -0.09259133837517602 -0.4761227969441929
P 2.3127296498241248 8.403226335649244 1.474958215419199 0.011240348800509673 0.17111899956843435 -2.160436279952666
P 6.436738584543269 7.682850629375362 5.541810372632546 -0.28544438718659226 0.04498067847574834 -0.4856407637369572
P 4.667468444827029 1.2326619065044662 12.700851134334828 0.4706178079655637 -1.4476172117598618 0.17977333280932267
P 4.184913180390354 6.177913570116671 8.216418157722586 -2.3334612382945616 0.6441654715801487 -0.3099570276159759
P 4.466293319545988 1.2192297978528823 3.790712343399435 0.27445600649588864 -0.5313230962654204 0.47061703663461524
P 0.20985280836024536 5.416349068923937 3.443997165685173 0.376543457286958 0.13880948880245128 0.9028824700742257
Ni 1.4245337189476313 1.1158927096158966 2.511765554042735 -0.6177229611179039 0.4703637829732287 0.2735175538420193
Ni 1.9639726112980613 6.428634245162213 4.85274680474149 0.6316454847362671 0.3598958214279479 -0.8394394711282316
Ni 5.926697078979964 5.6041371597435 9.138911941334525 0.9246851677716139 -0.48007355406182484 0.4272348129942384
Ni 8.462084213089643 2.43662056874944 10.054795144225524 0.6363752861117685 0.42152207888017723 0.4971523639209825
Ni 2.50987514250969 4.995464311390275 6.998190809857661 -0.4843343862207078 0.9404432019368191 0.459583404528273
Ni 0.6885154657393668 8.877911646493414 8.964062847526789 -0.05045198600296472 -0.5216531772758242 1.0711771128199874
Ni 1.4969228682578464 1.1667273812174288 11.418144256039486 -0.6027339439082394 -0.4803728304697985 -0.8410842058205064
Ni 4.268733144311447 6.97459988023999 1.439835505004812 -1.6521348413933996 -0.27476813841966874 0.7957266036213134
Ni 6.019757251872785 7.768365382844441 7.762064912551425 -1.3162286980118298 0.3644551586638562 1.2470408261622588
Ni 5.215859071332508 3.068623817901525 4.805591088536409 0.11791978983763562 -0.9068633090988447 0.3029268602420718
Ni 0.9349919550445288 7.230549161337826 6.784432773666633 -0.5674298692903066 0.7513347077694996 1.5204768760340652
Ni 4.8545263337668745 4.763683811027268 6.773376074833634 1.5671871356064107 -1.2117431793022293 0.045663820585702
Ni 8.14058804473968 6.880439897108583 9.091320808453021 -0.1461751851389031 1.143669109342127 0.3786378779221415
Ni 4.612054235510729 0.465445101872442 10.529374981464844 -0.3653041369277128 -1.0393031469295262 -0.06753568095812885
Ni 8.464067477454305 7.048891160372677 4.67694844849012 -0.8645889738106659 0.02748432146319783 0.6059071994298985
Ni 7.486994258526828 6.101864396569851 6.812800665951737 -0.8044549846332468 -0.345769666439211 -0.14020328382618436
Ni 2.2048851425765403 5.557521432335888 2.5168986028120046 0.5209561512087996 -1.0516207879546147 0.5174982745671861
Ni 2.3786822047872045 5.18433418277238 11.219190386846869 0.14586382454607139 -0.5959552304235092 1.6564576371384698
Ni 1.0358589776637062 3.319101092320494 3.923128594641397 0.1306727186279298 0.38533945831203315 -0.6642622423300237
Ni 3.3580632222481093 2.699051518384517 2.526160447394983 0.7478956001809636 0.16580864309911444 1.2232210980348417
Ni 0.7910763764227274 3.3010353569260147 7.863435864615988 0.8507314991022833 -0.3797524511425589 0.9921789397482138
Ni 3.8723957907095046 2.6317647673942997 7.254223027465292 -0.4961781729331713 -0.09365268976015484 -1.1109443654155964
Ni 4.309624449575598 6.977908325793769 6.112218839520997 0.11856667939301516 -0.03476902805006915 -1.0965207337910985
Ni 0.7008162122192907 7.474454618839342 11.167310895518678 0.1478739129975647 -0.06733333513933565 0.4635457316101307
P 0.3275847899494789 5.471375640205326 7.9988468450485914 0.6477192503696779 0.33914290515131273 -0.7288169862829578
P 8.456531072868584 1.4331248595818324 8.05473703781241 0.7300056072744202 0.4213552142850098 -0.5739532722311211
P 1.687316247265535 3.2240666699010316 10.224775324018013 0.9229743557280943 -0.4426416344676118 -0.32111458689469213
P 3.933218902838523 6.213323853863934 3.797335544893609 0.3377496243482119 0.2879494129966331 -0.34938412326334667
P 6.7892007214960435 4.023809010113536 10.538268119172756 -0.21960897674902177 -1.1851746847850815 -0.8816600703603397
P 6.274814064006521 7.633566509913476 10.205709843086982 -0.5365419214621985 0.4226675053385301 -1.1958121098942696
P 2.5916487381999715 8.318144294405183 5.847201532857639 -1.0004288384618318 1.0997873203575124 0.14008758418392647
P 6.849816492350576 3.685626376586337 1.825711139083155 0.6560673652240572 1.5651117411346207 -0.9959882861919749
Ni 5.21828406276021 2.9306697516631415 0.7729304089698592 0.23431131595620291 -1.2512808323855353 -0.9101095839502842
Ni 1.4961926663781293 0.9384806973587322 7.045755799708904 0.208700300256318 0.6007140852647331 -0.38954475464263233
Ni 6.843758521200331 0.7618565819446204 9.311912993347919 -0.4684539675450255 -1.5445136052682948 -0.6106727391393418
Ni 2.844803419511236 1.6189206711987103 9.212033996975865 -0.5162988549424463 -0.5249760710014701 0.34965923130160426
Ni 6.346184536620341 1.7287304131349157 2.7373456488147614 0.06448969504295345 1.2957151514395104 -0.2947335257980021
Ni 4.08602942213584 6.716577186397278 10.437715714400518 0.9236981212679963 1.062010872939687 0.5119701456601053
Ni 8.32570774350497 7.1921008771774195 0.20456831031221945 -1.4869977704400132 -0.20191413057241997 0.47645395503136656
Ni 7.502526824437351 3.9500856647761835 8.163166608047572 0.5530514890814474 1.1755232777382463 1.128653095549269
Ni 3.1997085775677556 8.218782749735546 12.458553923936293 -0.05701369838088245 0.6366961597862971 0.7756540012411545
Ni 0.27642378121157957 4.913005588010382 10.09311091026702 -1.1621651112637856 -0.8304678637572407 0.20712267135655296
Ni 8.579727849266268 2.1443865646162847 5.893565746284459 0.1557098641022157 1.072631328768011 -0.4078044721837687
Ni 3.4836218862073465 2.595750489499616 11.58317619124214 -0.2416345890904935 1.079610331189005 -0.882922482012531
Ni 0.8433254761097853 3.3919139390177055 12.299353687449551 0.6609488616860746 0.2544991037579875 0.5496380925245243
Ni 3.184491530987975 8.357701403642197 8.039286506927882 0.6832539529411781 -0.25204190046674657 0.5026596668924569
Ni 5.489432360761784 7.963879189848169 3.4745673828988553 0.20840565183403464 -0.5388134911051946 1.6241779511691576
Ni 2.829252823924671 8.39038920630706 3.5291387048601743 1.4470651959111336 -0.46974723243515226 0.7267968705291353
Ni 3.507421058583307 4.181559660646469 9.148187308174537 -0.44000162574160356 0.5112674631661259 0.6001453572454567
Ni 7.1159795849264285 5.952109907361719 11.32223629581577 0.7918455233993524 0.2006468338242222 0.8579683831703547
Ni 0.35895011587663095 0.21574400500709784 0.21446029207287934 1.271328752175346 -0.5214140646818246 0.706049610679455
Ni 4.6998136836470845 0.33004043182645304 1.749646640311698 -1.603512452400006 0.9932814287837732 -1.2751270428755137
Ni 6.097104562094658 5.614567327334026 0.5865459284301969 0.4364694442186289 -0.29328368072535294 -0.17501704907125987
Ni 7.714483695991744 8.719142319264085 11.348492913036308 0.8952442368026776 0.32377182201188115 0.46376093294473036
Ni 0.3330333580494906 4.988162292593104 5.810574245977514 -0.40414424972336205 -1.8802310296778262 -0.5375222830975969
Ni 7.910150755241832 0.014666239976686018 2.370417401289371 0.4153534881756202 -1.1194421184739625 0.6105372420027421
P 8.607556654237705 1.6680966126043422 3.6082240758525344 -1.0053967239900683 -0.40709998991757634 1.0406534903098337
P 1.5875490348849437 3.2871434915353492 1.442712139817376 -0.6171907427635177 -0.025771966757781425 -0.043585340790118485
P 4.898392535578021 0.9115533761894156 8.230073834357096 -0.6308957510544361 -0.48473727808608136 -0.17464655310571855
P 8.403334513705499 1.6513921177510633 12.209923789827867 -0.31016091609666585 0.4832470666938001 0.25520538579639274
P 6.289427116438883 7.719973732346652 1.3702499703191893 1.4093008326781664 -0.3758582582944753 0.31503701324204453
P 1.9822637176430709 3.1562119841154788 6.016020601512998 -0.40481505053814154 -0.45798083592784355 0.27363736724933513
P 6.938342201718734 3.992779937644574 6.002575872088184 -0.02022738279046839 -0.10519591451306398 0.40903654481865687
P 2.4894565343916777 8.48224139090504 10.40656404013447 0.007135068382884487 0.11411764248272604 -1.5373898497393201
