# total energy = -340888.1914333442 ev
CRYSTAL
PRIMVEC
9.10059847497661 0.00000000000000 0.00000000000000

0.00000000000000 9.10059847497661 0.00000000000000

0.00000000000000 0.00000000000000 13.31964577072457

PRIMCOORD
 96 1
Ni 6.251892821286285 2.328415452657094 10.985484545580617 0.4759168515809739 -1.1157811246826075 1.426721599257775
Ni 4.555959870472888 0.4089472287025556 6.415101136392466 -1.1519223504898548 -1.3915175405528166 -1.6007981387926367
Ni 2.975513515846436 1.7320350254448873 4.757165004838306 -1.6249685653912531 -1.209821022578852 0.4081232889757681
Ni 3.6238947634378547 4.6569037101029584 4.684066266733311 0.02345206037535316 -0.5103701481628372 -0.17675177237417947
Ni 3.9387936760667506 2.9776976595095457 2.499898032007024 0.4701719786773967 -0.8091145948924452 0.7542547096297719
Ni 5.530588477142778 4.848698825519811 2.4217648427585594 0.006988772613007318 -0.28656538816491295 -0.915331751581172
Ni 5.5704399983959405 4.5663436534712565 11.17234622649842 -0.6650921944304868 1.6093989930877701 0.1908928397612519
Ni 5.691741877085916 7.9899888453963035 12.384899972809908 -0.3080634101376888 -0.3137648313978403 -0.20572527678839408
Ni 1.9210089552968905 6.63821323169888 0.4175654955732442 -0.7865192260904326 0.26504345493273707 -1.2413679441471976
Ni 3.0413927490849937 2.1134593138126774 0.16253032051075753 -0.6730525869281441 -1.78908285150708 0.9250384373459746
Ni 7.991572349552057 -0.32367552991515935 6.695186619151106 0.4959624573779394 0.3507946304576281 1.8246242389467995
Ni 8.663542348705066 2.3335754920611915 1.4008669727054008 1.8740904639977272 0.14189069883093627 -1.316489150762068
Ni 7.290607843271263 0.5092986193640078 4.708068185471171 -0.47220597838829 1.2886312480095357 -1.4034484876624473
Ni 0.7056604151564807 7.775797156833975 2.779929821233946 1.0203353475777717 0.3011026625491395 -0.6965563264770391
Ni 7.712893819336404 4.169830572630815 3.5731944185980526 0.9254487854105159 -1.2204291371120015 -0.25649942201746795
Ni 7.761800436192877 3.4099396904390304 12.458264448393916 0.05235614500421305 1.7999413914881388 0.04103069268906482
Ni 8.308527997463715 7.294703112639595 8.956902874636116 -0.8675118038844156 0.300043882267322 -0.6306144723685914
Ni 6.898872576693875 0.9005770358918626 -0.009622972955719148 -0.43092768846479335 0.16790152107240114 -0.14074013016626086
Ni 1.9822104808569543 6.394581106677547 9.045744738252838 0.6181397369403483 1.9400739699773877 0.08693568275129544
Ni 0.4091064891779908 4.995263965913094 1.5977311215403893 -0.6026460121801234 -1.1908573369921556 -0.800068425529777
Ni 6.243310956809982 1.6879335246472564 6.637486093871036 2.9900124851335734 2.040961486923085 1.4535598024965417
Ni 3.607741200929436 4.551837299308767 0.6524574057026982 0.08147414541609194 1.4696705920154751 -0.7177576431450026
Ni 6.162515842472101 5.665841573480869 4.557370463255313 0.09277388669962731 0.6457130185729266 0.16820079748037484
Ni 5.266762123836274 3.195757102475298 9.060542311570408 0.7635957845250398 -0.12560044631134495 -0.9325314032889102
P 9.170855217455362 5.740047854435034 12.547599564454558 0.5420132289894148 -0.7248821700049258 0.5896637409878425
P 4.22751926713271 6.0458188666718495 12.278542187074905 1.341943843389747 -0.008560230865185257 2.130245358191583
P 2.584178675607284 8.510552185702801 1.50755784034903 -0.6854103371625486 0.005137835447197603 0.036917184741323515
P 6.355339325530336 7.841330567325873 5.547912376630679 0.5849046290363024 -0.29680994871105654 0.33801984729046297
P 4.712426462138936 1.1492690937327337 12.466110074443781 1.4396871582795074 0.7651474452828758 -0.47792822558404785
P 4.1510287359308755 6.339886509113832 8.071305424033751 -1.0090433196037203 -0.2621453074493356 -0.4544530252802431
P 4.722018493059427 0.9121711985035386 3.593360435027576 0.8026053330190177 0.5189087817614676 -1.0589993398068729
P 0.3097416034043767 5.740921511900278 3.729820270739536 0.7531118542745804 -0.9668214348200316 -1.1602298419142858
Ni 0.7550611945167325 -0.025687349597893767 4.965897244302719 0.2559870011574236 0.749704114144612 -0.7991096611609335
Ni 1.9453803583377607 6.741696138337316 4.833153182997626 0.05315807208021813 0.10821721783789105 0.9561536706935404
Ni 6.1285069055177575 5.6940989321223565 8.943103636984558 0.24844955512979794 0.4089601830547666 1.221154188203484
Ni 8.959120690514034 2.1786013985649353 9.97962450464797 -0.9768430807220919 1.2561281331755076 0.028874002721872852
Ni 2.414152192032761 5.327444915276348 6.788291203150331 0.8129481097059225 0.0017702045265453384 0.9037736144299273
Ni 0.6269411473584147 9.111155290663687 9.03349078224293 0.8362813851152242 0.44604191839841245 0.4797552514904576
Ni 1.5454272512279201 1.4546669814271003 11.44756925942706 1.5642360233978867 -0.6141547841506713 -0.008296949901469581
Ni 4.25689599940154 6.994838388891774 1.1606193603020292 0.5541766038248263 -0.13686753458473203 0.060392642155444376
Ni 5.849728268717546 7.815211849354515 7.755523753341015 -0.35249078721312843 0.38711814747901074 -0.08420902784875174
Ni 5.030310371107415 2.579564672118964 4.7651962830995345 2.448350725946306 1.9696753377835883 0.38500418645980145
Ni 0.9101963686081432 7.574519217679785 7.116886516666646 0.5868416981580151 0.1356334050673148 -0.7146226970604467
Ni 5.348685712400093 4.8263932583603 6.882487858981111 -0.8646226552620786 -1.1247033668729016 -0.41536582947079426
Ni 0.664064309152409 7.33823127572566 11.179644906572648 1.3853427792006723 1.1474656002700818 -0.19948083854057905
Ni 4.661717926760397 0.5759150010888651 10.309951662077161 -1.196542560302391 -1.7358623016200427 1.9821161346501022
Ni 8.33840526265534 7.2633697516725615 4.675781991831107 -0.5970698036439266 0.3283108475328152 0.4427977004295019
Ni 7.387137892582133 6.124184121184519 6.702165868214602 0.5363359760989796 0.5997098123699349 0.07008287286001479
Ni 2.3496471491822435 5.8795145279232095 2.618815553864771 0.45042513506777265 -0.7288437257558351 0.03143739257367489
Ni 2.475089800233532 5.392714408408954 11.343383786576991 -1.6313821822270806 0.20059489754036422 0.47597778672589636
Ni 1.2527520003711698 3.318678887715414 3.7217753415804133 -0.49239890839639716 0.719392093424632 0.08821377813277066
Ni 1.9421496458360767 1.2608333319246772 2.6177362228712515 -0.6717477520737914 -0.36750448701314126 -0.933392979958257
Ni 1.1063415701540245 3.4134343203000066 8.063727355582618 -0.219319470533061 0.7586469251601966 0.4508524524131784
Ni 3.8916798771337464 2.819474652314413 6.975964657462924 -0.06482728088803029 0.2961232070566771 0.21018202700816704
Ni 4.4832642888857075 6.868531180973838 5.773440680864408 -1.6866393029281728 0.7711877379396848 0.18792912914723764
Ni 0.9700146031815704 0.22716550192120208 0.17367218337219778 -0.5796279540183952 -0.265809129454168 0.8828438062557956
P 0.23293619149111083 5.660353912527305 7.875799994569188 0.2959648271019419 -0.23808698094855127 -1.7078141372335747
P 8.42961146178738 1.5689431980007387 7.8999748246803785 0.32099168816358264 0.08193411577164599 -0.4205286046186564
P 1.9566924023929515 3.436932065875632 10.47486269918071 -1.126881348360827 -0.10528487468244448 -0.45330528482904514
P 4.2462209972480895 6.38995800259063 3.434150922944605 0.5635780996443842 -0.5056483172071357 0.8468133949947997
P 7.369874057044966 4.106945436330437 10.186265426554955 -0.029794457653613205 -0.0935264485949357 -0.5283241615380966
P 6.31387699832563 7.861652203991393 9.87755674109126 0.26448449710547356 0.559774666737894 1.2798097930631636
P 2.643915004793344 8.67530942269007 6.1372270990927245 -1.1628413113952039 -1.1894499151216678 -1.1199293425230261
P 7.095500109965359 3.6846867620610855 1.228753721872748 -0.9239236070152411 2.0182391056249047 0.9595737521186828
Ni 5.413345465426748 3.1901511337399824 0.006636156496416118 0.46496472344484435 -0.8960441069961536 0.7158815091682122
Ni 1.4874109351765588 1.2907014965177075 6.87316338565935 0.6239062071104804 -0.6719256724125525 1.092464304333538
Ni 6.719090251424126 0.9016727479628561 9.22875686596441 0.4579016459504759 -0.3273471980679653 -2.276895426084376
Ni 2.612982070164548 1.7623127169747508 9.183776247342378 -0.31708695379253776 -0.07991477134877205 0.1810354873511979
Ni 6.450458782058779 1.8412149068046024 2.3512506746549096 -0.3327709401866979 0.698377695956494 0.9677686292246495
Ni 4.248805567249437 6.929232173611105 10.340174750015446 0.2117023203074354 0.8431601145129285 -0.5894230857319461
Ni 8.285822003965967 7.652056317720192 13.211743048814753 -0.5304859450761058 -0.21256981051405327 0.6094092990458859
Ni 7.664242019240627 4.078278550752118 7.916744497713766 0.5047949680679048 -1.3208381717593833 0.2221965349705399
Ni 3.1473965215346027 8.667246292333756 12.608124005479056 0.4065729137695127 -0.19152661669050886 -0.8342615264717181
Ni 0.16634802162190201 5.256296435450538 9.903835629597912 -0.06309872823269777 -2.4378986773750464 1.7204955893559855
Ni 8.91008666527721 2.5821037391273296 5.917692449094514 -1.8327579237975276 -1.220347890252105 -0.7307414569991802
Ni 3.789225338136691 3.208752757270803 11.665359324674364 -0.697367766634741 -0.14552932402478808 -1.8053399367958909
Ni 1.1399318795729383 3.630392590835607 12.798195467521774 0.024677705252338145 0.5509876645738834 -0.40684725047682185
Ni 3.366575338127699 8.514783964050077 8.356306140094247 -0.672978539157099 -0.5782135901693719 0.04333337268031247
Ni 6.046073683432545 8.038085508977707 3.266722660269324 -1.7450707075921883 0.34805640559085865 1.4204391086831731
Ni 3.293861555343326 8.40038033909609 3.738171890071353 -0.046389128787500754 0.094898646352114 -0.318405158383329
Ni 3.423281167981194 4.573833446116005 9.246910740044294 0.5808114328035352 -0.7535885368006828 -0.5239576570392848
Ni 7.555571771402304 6.478825347883421 11.075125441754093 -1.359735105934897 -1.0814828656213697 0.9232810883352356
Ni 7.997824460787711 -0.019037542203583207 1.9939247713701012 0.8306910355116404 -0.233493705150914 0.2994008493666844
Ni 4.7851948485148865 0.4738836399265375 1.267413974769656 -0.8568568952737307 -0.9050180283599897 0.5190957009612931
Ni 6.435943327297695 5.60283812939874 -0.06213433691618355 -0.0986498858644301 0.5203519419658974 1.0123613282333597
Ni 7.86050552856826 0.02581657809796111 11.099088227917989 0.5719964056150665 -0.5942611305505379 0.22965941900648834
Ni 0.24440112560271948 4.811559282648344 5.748718904777581 -0.2574515015180921 1.0000012640061102 -0.3519094607883617
Ni 7.681906281116031 6.379146491458235 2.3522098777469593 -0.21716437186327117 -0.04734840737697652 -0.13059327154024605
P 8.572809380700035 1.6503480524445706 3.370190095890146 1.1615945834722963 -0.21050007246921815 1.9083015626617974
P 2.0768567062583907 3.3837026646859205 1.546330940668532 -1.942719635130351 0.289696734705043 1.2139119048187739
P 4.5460129162071405 1.2610881486853733 8.366962030990646 1.3807829277441317 1.0180195549604016 -1.2483893697703532
P 8.74584816240993 1.6030431409410448 12.35909977578942 0.4089563264000247 -0.9188528773605531 -0.004972256403610792
P 6.401843384357388 7.785125270395174 1.2548961014004563 0.39840143370231385 -0.2642078464053192 -3.1284288522626635
P 2.0449409069811946 3.2968465516829095 5.996518193896156 -0.8245805517385284 0.4910274819701672 -1.0619180561155646
P 6.954659246089145 3.859800480250936 5.7092132062710785 -0.07540865594830239 -0.2584244069543227 -0.27485607014778474
P 2.473433491289007 8.519134050179105 10.411714555580897 -0.8354020678340646 0.26763204159551973 -0.13939210077879866
