# total energy = -381170.77523486386 ev
CRYSTAL
PRIMVEC
9.26801716745022 0.00000000000000 0.00000000000000

0.00000000000000 9.26801716745022 0.00000000000000

0.00000000000000 0.00000000000000 13.56467995009272

PRIMCOORD
 96 1
Ni 2.8605178499310466 6.484785179713533 4.294089164185088 1.365410044832487 0.4299283006660015 0.1438100273408362
Ni 6.219349171814383 3.332222844974173 5.641713522459634 -1.714188416191035 1.549126421449958 0.8060300424298507
Ni 3.89618168158951 2.8212863338194163 0.20017155873626488 0.08149137180727256 0.6785418921774895 1.0867729103757153
Ni 4.461651204981648 -0.08998873820871456 10.448561289948675 -1.7768608555195917 -0.7723071962561087 0.6199158550041647
Ni 5.1351301989064915 5.788951728698859 4.861323318020801 0.8956730968099801 0.06747757402668379 0.030762992214469598
Ni 6.055360878386746 6.527937067031216 0.7172731548230925 0.731055131584857 -0.06750431349956115 -0.35819015159075085
Ni 6.618226088991884 5.8857283625844365 12.133443227337931 -1.5231559655281253 -1.1448117075870026 0.19727868868293766
Ni 5.541004468945859 7.333058974929507 8.771301369769484 -1.0132303611018745 -1.3066623944796334 1.02065956368641
Ni 1.497553996660905 3.7817402072341086 9.926130584066385 -1.2561726132601978 -0.8664769348619982 -0.7928778213186086
Ni 4.2840759985798424 2.32311188212266 8.889680824563305 1.8174598599878766 -0.023615068315778684 0.27296605221392345
Ni 0.6996898729031809 1.0046159745892542 13.26369273365476 0.6096841499738274 -1.430482608962104 -0.2894635356483144
Ni 7.216124403991533 0.7650164177802042 6.80251041292575 -0.4511087913983586 -0.25714374046968613 -0.5040424061725964
Ni 6.680349607181409 3.2742792024676963 12.306026679764372 -2.4269113251256074 1.570289171570502 0.14735532148993333
Ni 7.332697522265119 6.629672090030831 10.230617381744972 0.29555782147151033 0.40327573107547965 -1.779635332940935
Ni 0.2667594807318313 2.1311156412134844 7.4275306529783345 0.49060839215487756 0.8124778549377234 1.5000427765494295
Ni 4.996721632497067 3.243704014267302 2.806966320697734 2.8473016043941866 0.2645048088204477 0.1390203192616767
Ni 7.520467547406068 1.2951961127059457 12.14410515413567 1.4491485608027235 -1.1370235790011514 -0.21422817205308264
Ni 6.917666451394595 1.7187722952832796 3.4775907653756173 -0.7342103893843872 -0.2949955212101371 0.027284032526933653
Ni 1.8229540747802888 5.445886810109651 6.282454173007977 -0.7169513451936234 0.22083976383232934 0.18675824876758804
Ni 1.4426224596909936 9.007381860510122 2.4376951571387058 -0.4415491727343815 -0.414349472391138 -0.4801044072997602
Ni 6.870325420376828 8.373291938986513 12.272820301527574 -0.8011318337972848 -1.47362649133943 1.1852358770403202
Ni 1.0806600543662277 1.4072927787513443 4.122306468430523 0.008173536949727857 -0.24849994875175913 -0.3778434070453041
Ni 2.4271546413641354 6.982579642711831 1.5700576939302853 -0.5615664685309942 -0.07537703137941856 1.0032416253202787
Ni 7.5872065380793146 5.580504757551521 7.943625742415097 -1.099384428492139 -0.5730073633780842 0.5424639433735884
P 3.4652930335711 8.419613488130366 2.934040102272638 0.05692011022581165 -0.2853366579641344 0.26237490696163845
Ni 9.147810854633303 6.928083702542592 6.9077589411835545 0.5655881880958775 0.38760999951376474 -0.47539954562492315
P 5.368925196646155 2.0141996063095817 10.863721186255994 1.3317702452908549 1.1248085249921984 -0.8484776700711001
Ni 3.1469644524498674 5.415163333636688 0.08346127381055216 0.5469836856208129 -0.1628575308905905 1.4247801592606881
P 7.871781001156947 0.11663243358261385 4.558288818611691 1.0763501723804947 1.0608980994914827 -0.564729182529692
P 3.242276739643822 2.6389566346783555 3.5193969366197337 -3.5576171894388473 -0.4911460098259025 1.4325248362031135
P 1.6099008991662644 2.9727906083001217 -0.2128715224801268 0.561740017994381 0.081254316095802 -1.0469812323000742
Ni 5.275225544416392 0.9057707193013348 12.677427633638176 -0.7424448614790374 -0.6488860169842695 -0.12086473139857248
Ni 6.914978726454275 2.861009054833933 7.808670439153132 -0.013334512325377032 0.12736293752840647 0.5953721042265294
Ni 3.6124135359939737 4.573469830515979 9.85305783055102 0.6162276075193 -0.1403287536604551 -1.8348019508107498
Ni 2.250042835814109 6.988993110500456 10.60523248392672 1.1890002291787587 0.14340456437230142 -0.5496838581607953
Ni 4.61120919588488 1.0287869630180595 4.482340199410184 -1.2317615314056851 2.14568714666795 1.084308765105939
Ni 1.0231983487456018 4.620829397567817 0.9870354730744533 0.17842504631154432 0.31994473495630704 0.5208733616870062
Ni 2.2263167122030123 8.60609525890337 4.955489151507454 0.06574593604755774 -0.05480383521375722 -0.8214373781238562
Ni 9.239554955268558 3.574498078301396 2.919227957446366 -1.205208720617821 -0.36266721352549797 0.6030350200884259
Ni -0.02424976657360773 7.4038758930984105 4.324989659783432 0.8601615341669314 2.119195013914692 -0.019328010904650583
Ni 4.475377138211349 4.649106117543387 11.997565756380926 1.6113913409274507 -0.17900894383947236 0.05545612408577545
Ni 4.238421746662551 8.577225385837522 6.327217768488149 0.41669740379802434 -0.765505599953243 -0.24732546882768372
Ni 7.122526699949162 3.745252024165011 1.5521250077681321 -0.1545055593814694 0.05603847895180672 0.5081713407393054
Ni 5.459260558692 8.391818705040649 3.8081892742502603 1.1124695438108714 -1.3468132556669061 0.2935451619168557
Ni 5.328099581604404 0.20373511128644728 8.229297538709742 -0.9314787936546796 1.7714530542404587 -1.812862470425181
Ni 2.157668510020435 5.0031258322686565 11.652738060951549 -1.3672499262547033 -0.7383524365772187 1.3350831117141717
Ni 3.746531010515922 3.966757631315489 5.521937377498549 -0.630467919488398 -1.0791110229550835 -0.3480792884089941
Ni 0.4479000932872263 6.453589034371755 9.312586929508967 -0.8596475706449905 -0.30370641872057375 0.1957393692202758
Ni 7.184918990632719 7.874218489637306 5.737181512339786 -0.9513145974336842 -1.930159539077153 0.8115571428956667
Ni 1.6916077373519802 2.1070002608868927 1.8379460191370507 1.0386079206347145 0.8721151069843819 -0.04560725631615371
Ni 3.195640077920759 4.773093649445441 2.5342753090631285 -1.2592774774377666 -1.403827468268421 -0.15027223802641215
Ni 2.3501188837643543 1.2000413818015963 6.335939899320338 1.6543611596207575 0.9403971791902319 0.9003044249344044
Ni 6.926257903186582 5.828906150139266 2.6960754236686655 0.06397136064563823 -0.14940886158485234 1.8456777171829892
Ni 7.688005491358336 8.355376862056728 2.560944028083024 -0.34396012403429793 -0.3226420792828121 1.1732643065007407
Ni 1.130234677489571 5.311111306378176 3.780543706234815 0.4298018023904662 -0.483278948373 -0.4858266544955181
Ni 8.991598427498522 7.934080611670149 0.5173898314166343 0.2775832392709607 0.2976057051394746 -1.1539005572621481
P 4.470770933744664 6.421540231462703 10.502046089459332 0.17078938414315747 0.6980961601603333 0.6555320615458775
Ni 5.131061539427869 4.585119727929709 7.541839594690126 0.9411839367575854 -2.3124956917864887 0.4454050561453619
P -0.490349464913612 6.496991158149399 11.768064630933848 1.4648834550394771 1.0534151608508762 0.8465884234681872
Ni 8.538346054373244 2.7619617567746375 13.635894444200439 1.325652048208259 0.8627776316335398 0.34341684993631827
P 5.7355401465227835 6.474451340718856 6.8053315973113815 0.16155835246319272 0.8178625162884043 -0.46868279572637994
P 1.8449285431716602 7.78766447854198 7.052710727620101 -0.6229505280654304 -0.6062733245200655 -1.9709966276981732
P 7.024934480564453 3.8628168202614046 3.9210060652193244 1.9031027920696775 1.432363628034901 -3.0952371960020435
Ni 3.4832173785179212 2.467127598838613 11.565965324654183 -2.064401977334212 -0.3099274599296211 -1.1372359521222737
Ni 3.654416189199244 6.151813131676078 7.674244339663899 -1.7557359006155182 1.2610978184759571 0.02344743238966284
Ni 1.3630565334404978 3.23321261898302 5.388474224979314 0.09053497006677956 1.3417921483032311 0.4682760472062645
Ni 5.417943738747363 8.700462208359694 1.3646339499399542 -0.08061282585706117 -1.5372564094852492 -0.43492369699806394
Ni 8.424794309653258 3.4903722876693926 9.516192288556915 0.38223947923047075 0.06421870076975393 -1.066475336468944
Ni 8.803439145642077 1.350127649675857 2.1161848657691573 -0.46302559744060257 -0.6494089793672752 -0.6012272774557258
Ni 4.58719576374568 7.154232586227898 12.681035672670129 -1.1708646959203124 1.1725827070526837 -1.2304726373909325
Ni 1.77242484590228 7.381419487821189 12.950253958321502 -0.3440974209431106 -0.07271722515906831 -1.0112475263438907
Ni 7.606873270228825 8.263048876348233 8.450469497246939 0.3810359458406728 -0.7728813235920238 -1.2099542057226065
Ni 0.28432051941085745 1.9313620700455245 10.95092859255233 0.4666356833893641 -0.4587673363848809 -0.06073357043463088
Ni 8.391929921245076 5.4541816853565 4.847270223789745 -1.4510756026221074 -1.8732751671852834 1.2058011027861812
Ni 0.2972558907874232 9.464128276057814 6.122445566095419 -1.394723963305256 -1.5872995900855695 -0.3301972659222507
Ni 8.23536530946294 2.444346812965145 5.438446446033484 1.8510546652241862 0.1477810961734423 -0.9979482381318233
Ni 0.4803390797134768 9.071831650975579 8.79276146321538 1.6362523658351884 -0.6939613120563533 -0.10679925444444187
Ni 3.945098275503327 1.1259899256872732 1.9534088289697737 -1.2915772180117369 0.15077643135634033 1.6944528854353202
Ni 9.049606946124246 6.400798409337065 2.180780164102073 1.4164855233520637 -0.45089410428439114 0.6722133788563003
Ni 2.632330002497913 3.3529461310657402 7.8244603597766575 -0.8851143474575272 1.1468896731619538 -1.341147829851013
Ni 6.1414051485451155 4.19505669495305 9.8535731322982 -0.3226140542583541 0.04483978202250988 0.6083710875893588
Ni 2.189411468367313 1.423613756751009 9.19005725668661 -0.26985193206497393 -0.022197619142961773 0.5661535736810444
Ni 6.571626499336963 9.610748305560765 10.064043311564406 1.8072147852211007 -0.14430239359622243 1.9978497433352755
Ni 8.57529763829412 4.358090382626023 11.654460985318465 1.1964289175426621 0.0018429667460097294 -0.6718691081430042
Ni 5.991633993250064 1.6219029812273467 1.1811253590319675 1.6073788773339477 1.5737933280690186 -0.2778650321774376
Ni 8.176198288707766 5.536796789211703 13.739256930991502 0.7843322457414427 -0.19954305923708213 0.4068220536658413
Ni 2.996025527008333 8.351345274646249 8.56298878486916 1.0150815553780002 1.087475849980011 1.9673101799855217
Ni 4.669820135617919 6.443931760620676 2.5696522568896594 -0.34089691172794195 1.0328087974544342 -0.2795809864272798
P 7.5082615689702035 0.1683896747178374 0.7610589745060096 -0.3724356057661715 0.6083525756465975 -1.8780409640050433
Ni 2.176352832364174 -0.1212608812901849 11.159322736002565 -0.6709964757300638 1.344931208152845 0.4296351949056149
P 8.101970740269769 1.1237748696157683 8.878679688342066 0.7493575294384707 1.6756995160872172 -0.1828655985814012
Ni 3.270015914631327 0.0983725864191046 13.6135121830595 -1.0104183455743758 -0.6093920726547053 -0.6579522409515959
P 8.957334568517963 4.220654958005336 6.970156792677333 0.5830529205395443 0.020775027763822285 -0.7607619146206704
P 5.188931037798062 4.587714772699673 1.0923933639332781 -1.308968674015307 0.4124252587852316 -0.7973335430971171
P 4.951021040494599 2.045015762952901 6.5549412882678 -1.682516796119367 -1.8739554810817598 1.874573574281733
Ni 8.878324723289603 8.670035308431869 11.150383733571745 1.087953818057694 -0.2885615926593353 -0.2660035048531612
