# total energy = -340896.5952476107 ev
CRYSTAL
PRIMVEC
9.01437982132962 0.00000000000000 0.00000000000000
0.00000000000000 9.01437982132962 0.00000000000000
0.00000000000000 0.00000000000000 13.19345605599879
PRIMCOORD
 96 1
Ni 6.5639828765176675 1.7848922631382875 11.534233328392725 -0.12606170221847965 1.208651684861099 -0.557609283655459
Ni 4.669268424839626 0.22029070810784845 6.172703807489073 -0.40839274058707087 1.9790007289495726 -0.7714214512170456
Ni 2.7071714845024175 1.2750659874063004 4.982943600006292 0.8852205340180883 1.7671629115055374 -0.742599898999663
Ni 3.145874303977436 4.087904031381998 4.659294915080094 0.2439544954729218 0.6839998299682671 0.05772563684624251
Ni 4.866250651218243 4.635671831497456 2.5027325631915116 0.0058441174856028386 0.30015161148977987 0.5367653503269142
Ni 7.478266343040234 6.046602550552049 2.376985571378811 -1.7568700142199616 0.6696199070975113 0.08580953956665222
Ni 4.817960618877485 4.600047002710696 11.309443543349786 0.5214811704743342 0.16160694631294106 -0.6613468684554417
Ni 5.634888784059714 8.181036403021164 12.19376140869499 0.5413162029223904 -1.3100300254002857 0.5368157439488755
Ni 1.9138970517939886 6.573087400068939 0.2860974831860643 -0.04880005222183854 0.19137337894209622 0.32975657884040627
Ni 2.894066619936604 1.635343703023825 0.6280760079035069 -0.3712845228808638 0.03448337848885029 -1.5271157215068216
Ni 0.6170279840773294 -0.015693133713277164 4.594607725967292 -1.385298556226298 0.08264759689890283 -0.488507543761791
Ni 8.643320839931954 2.2286251065158904 1.4949375268556002 -0.17006690415483616 1.2722150114350412 0.11884230165190499
Ni 6.758224731451148 0.9241542123529065 4.794871186576268 -0.6438811075705105 -1.2960817907503097 -0.06679366058578175
Ni 0.7385048642006861 7.429597706749819 2.42206828740319 0.029516264291562067 -0.3243222951987124 0.5315077014724008
Ni 7.607000700303323 3.806700454964237 3.7538815982352025 -0.1787952851667695 0.2961332343590061 -0.14325004107230813
Ni 7.654127877655849 3.7934583311060006 12.761990047975473 -0.44432699258983477 -0.3620105537781056 -0.741864049274903
Ni 8.041079142964676 8.870960971853021 6.68768360412627 -0.746039006588199 -0.41047790525087374 0.18919308346132577
Ni 7.088818094539623 0.5965175658236562 0.44687976334963153 -1.0524767081970068 -0.22722124187864093 0.38744519180112624
Ni 1.8185970290375026 6.487874468256883 9.161351102677814 1.0617897580678166 0.7015270402187531 0.04176319997971517
Ni 0.0690222043363731 4.737858840385796 1.3128740989694156 0.7395356582520426 -0.09637548800795662 0.49252000735529367
Ni 6.316646324834688 1.883843109695036 6.975710164579634 0.600577816797185 1.0621335145604804 0.7421026476482703
Ni 3.394526955104461 4.424798445918335 0.2756669443730176 -0.8122713953538722 0.1081547400310718 0.4592643306259574
Ni 5.888607516608338 5.664446935272211 4.696065471533555 0.08493330760928598 -0.9573551472008093 0.5681276666882796
Ni 5.167880812157968 2.900665145916338 9.343803050331385 0.3894905043659292 0.08527063634404669 0.01496536306058068
P 0.15518705465042396 5.518567227717518 12.429765983589547 0.2497461624540344 0.6947488409546551 -0.3705054786229942
P 3.9450982273233297 6.323560354105803 12.335855076753113 0.08483843390263454 0.6084723890539133 1.1858411147244867
P 2.4378037887013098 8.578155888692203 1.452335568139449 0.6159260171184812 -0.18127614260709426 0.4152568146967558
P 6.188984678762293 7.700290516374725 5.699480420747126 2.372491098503514 -0.14122529733279549 0.39000498210850254
P 4.824342799743128 1.1941529147367755 12.661100208333698 -0.4243955437732304 -0.8141876385399784 0.43472546494432873
P 3.9352184671132364 6.227142548259853 8.077060039751707 0.24787157113914085 -0.49711842535925355 0.008201047753553618
P 4.76900352243495 1.0462900436362614 3.885380665768762 -0.6226355679281728 -0.528159096715142 -0.14656162194404437
P 0.2247113599390801 5.444532126800094 3.4293882659260797 1.0306999786415474 0.14551492584708486 0.9413942529961786
Ni 1.5184001544786216 1.2805106727775564 2.6194814011340344 0.09856941033548186 -0.9054070362682923 0.4093214230489273
Ni 1.837364967684779 6.354335446585053 4.775621880050142 -0.38095032810540197 -0.256765531194661 -0.5270668920922278
Ni 5.972477305837088 5.556067047493055 9.049576399483403 -0.5160219471319758 -0.25920653653598585 0.8382235964432596
Ni 8.744155691857232 2.3961122823402854 10.277227650823033 -0.45242133956219505 0.055012865900769765 0.00763026285174815
Ni 2.3119450185796624 5.171802067350843 6.888831375389087 -0.0869444245020438 -0.23257787820486395 0.27876080451882956
Ni 0.4459449721691692 9.100647367978189 9.259075092150079 0.6603914465207078 0.2189353477207649 -0.48683632670695515
Ni 1.5994845003634675 1.1415540088737322 11.46235536855037 -0.915139690175024 0.21573046763022202 0.36201312488126686
Ni 4.051981728063365 7.002631609714163 1.6548021431602373 0.25158938631036026 -0.5214120077992956 -0.5517078305693596
Ni 5.651953004933534 7.875205541116199 7.916522049279466 -0.2137502039753996 -0.6607920243932361 0.3327231176678979
Ni 5.161029883545129 2.9647123140666247 4.984065890285633 -0.22340906722140233 -0.5983496987976147 -0.6576609349634223
Ni 0.7373492207162572 7.249625614966501 6.900428374942267 -0.6658972068302854 -0.5714554455099319 0.7039402776459361
Ni 5.01426676677457 4.4566192064490195 7.005711823276014 0.1938292966817565 0.6435998288846658 0.05531599896348538
Ni 8.321417338926079 7.048595932078458 9.212224656255993 -0.09186911549717082 -0.15469530679477228 -0.04524267388788337
Ni 4.67637175608557 0.5108034344972922 10.445430568399875 -0.9903596271512881 -0.01565956091412787 -0.5485674851681649
Ni 8.260326887335017 6.963563287861477 4.625915568289989 -1.0101851465176472 0.6989785627652865 0.7298235731706011
Ni 7.285989622893067 5.962318099854628 7.1326333887706275 0.06441153350685036 0.42237157136466613 -1.4081322662913618
Ni 2.3338770045204997 5.338883596086319 2.429337483236602 -0.6235665643828745 -0.5868049313828086 0.5099436021483799
Ni 2.3031379695602636 5.310875918191465 11.395874317866575 0.40704214009644735 -0.4100801555918228 -0.35868637450087903
Ni 0.9866779503248121 3.2783496288383245 3.925659618822376 0.05634829688274167 0.42293284318477486 -1.1042183595456725
Ni 3.760213298574226 2.529489045176548 2.64225352726792 0.08133144919064057 0.46791095055736187 0.6659535139895176
Ni 1.175087501557626 3.259743949026616 8.165918386736175 -0.8805647804136317 0.3296989861295935 -0.006016381397408993
Ni 3.4765397821039414 2.706639636096947 7.159983016943459 0.1267859819790139 -0.7147425104677626 -0.4366399083582222
Ni 4.119481403659332 7.020416980968283 5.944258691455996 -1.0134419628920481 -1.7297495038540855 -0.24265994503121432
Ni 0.9426427052278169 7.439756912732278 11.35505360058976 -0.6160406883194744 -0.07100255646080675 0.06663528063104653
P 0.28205633674246494 5.3596977989376935 8.131905329049381 -0.21714251748640023 0.5527290727450223 -1.4997105900209913
P 8.448024302567285 1.622786672026872 8.013573566022103 -0.11034300593164223 -0.13234522123434625 0.43257165182611956
P 1.838473736394488 3.260618343862728 10.422896421891487 -0.0150833766956837 -0.4308384711850967 0.37385202649772387
P 3.8263247596881182 6.1865958681275535 3.830456049929255 0.9126146097603252 -0.7685258748368055 -0.4190147390772912
P 6.82141553352483 3.798848930198734 10.557099803351168 0.1013919673859415 0.3696876107073891 -0.8906507038947242
P 6.46124599046435 7.604674990326859 10.078995129972574 -0.5492940789215444 0.29281342595715376 0.6080872378003527
P 2.187627707395904 8.259064874169493 5.727556607928109 1.4940158536290593 0.7639004602496522 1.312465888535288
P 6.799744964596852 4.0120930976530875 1.6483775947097503 0.4248619418866877 -0.21949713376150587 -0.047050416520583484
Ni 5.264226502965887 3.0881372016547637 0.38327610268322854 0.3831982435993142 -1.270633011659902 0.15539876061970012
Ni 1.4234156350135163 0.9949531509387408 6.961421471231988 -0.8075768180916801 0.02154867270505321 0.5897827830642101
Ni 6.812960045315826 0.5739167129050919 9.195469628607727 0.6145854439301867 0.7529593878571161 -0.11240117401225158
Ni 2.556036393551297 1.5933096502321589 9.188990993878717 1.2377617148531779 -0.9185692846818632 0.1708202373810929
Ni 6.376790266551607 1.9945126499316401 2.5868277119141054 -0.3931075322932262 0.3988390354603647 -0.43195870083246896
Ni 4.255535437282454 7.023932589072239 10.218806357077053 -0.29290084346463746 -0.046139474670539894 -0.1631894603087125
Ni 7.942326612762509 7.1655845525224295 -0.023137208513911482 0.44730253027839095 0.26413431285490635 0.1583953813541788
Ni 7.745768062232319 3.8133620816022473 8.31764301812319 -0.8153006690984991 -0.734907929672044 0.07628745900882991
Ni 3.130865361687467 8.554105523509238 12.420860677830833 0.6744805776239222 -0.7650829105935275 0.10883531103786417
Ni 0.31847082519565256 4.855857071362187 10.28210893745968 -1.614874928600677 -0.3452932410234247 0.16190776538281149
Ni 8.524754703031077 2.208847557336196 5.8275891800553055 0.27433002244098564 1.0259976880698718 0.02530068354831772
Ni 3.6366441809100274 2.631946485457499 11.50045825033143 -0.3162328333223586 -0.00979924547860893 0.0283114453501835
Ni 1.084150438601948 3.454292292871723 12.688911372749919 0.6449051779596506 -0.6663767175698653 -0.5794778015937762
Ni 2.99566769414095 8.3690132640258 7.899449715463869 0.4997859448890877 -0.19759210615829842 0.4064651845470548
Ni 5.779109845739719 7.637604519567253 3.467966205520164 -1.0235579682801275 0.7821617204526852 0.026405743687038397
Ni 3.1129808322560573 8.349722491352805 3.6722663053828617 0.60222717947515 -0.3408444612234517 -0.6499735936214935
Ni 3.244437532204774 4.375841349475801 9.12006884915761 0.6199618777507516 -0.06106935650749482 0.16726543015029904
Ni 6.972153991766786 5.876951923586758 11.361109460908319 0.8016817927634838 -0.1498768023602064 -0.17709192932241757
Ni 0.5723788597191048 8.907766684387521 0.5100092676409881 -0.32297246603903734 0.5560380825135972 -0.9037216781460694
Ni 4.73041296270921 0.3293106168495189 1.6137578692655312 0.09237510859931188 -0.05306448392514732 -0.06055744986808281
Ni 5.733452012287052 5.440592842847711 0.2734250681282637 0.3441853526712266 1.895580001330071 0.2947679785803633
Ni 8.093660020068212 9.021951832728082 11.251365697472425 0.22135886956059295 -0.9834065928722224 0.43513144213349575
Ni -0.028454791130639725 4.795154238100535 5.745222087931503 0.16113232066936764 -0.37803366867923927 0.14426099883532575
Ni 7.722826465759063 -0.2371620212549388 2.70589865408119 0.7918457805096685 -0.08023384525108762 -0.246352306281137
P 8.453487016698048 1.6558874744825869 3.6052434904758672 -0.03338320344613606 -0.5153863704305058 0.1536612091033031
P 1.8620914113492737 3.3004709167539903 1.6739721231445301 0.19350945144849255 -0.12670447800880114 -0.3615937779556611
P 4.7712481029936304 1.050481730221748 8.268945535817563 -0.8621214861067799 -0.11208415699246504 -0.43690961707984116
P 8.649144129252866 1.6569511712935276 12.620622037487525 0.5292204481001209 -0.19859380794993542 -1.5753190206849257
P 6.267076250568899 7.627283054749226 1.2478975482665187 -0.2019796937030328 0.030381954725967025 0.36507608007730674
P 1.5882615975700674 3.0493483255744422 5.9828366310500805 1.3523452412287291 0.19690690716581571 0.1322788867727851
P 6.835072318851739 3.9417989643334628 5.858382301294065 0.7373579338744334 0.38111205049424685 1.2869595167340673
P 2.482983860027029 8.502209739266986 10.156757676918168 -0.35393703274135174 0.5266097499501511 0.10338174412246066
