# total energy = -381169.32140953693 ev
CRYSTAL
PRIMVEC
9.19338257909004 0.00000000000000 0.00000000000000
0.00000000000000 9.19338257909004 0.00000000000000
0.00000000000000 0.00000000000000 13.45544468584801
PRIMCOORD
 96 1
Ni 8.481777839131919 7.301742852965217 8.877996072970431 0.30098310625213975 0.12531351119854547 -0.16131281211128992
Ni 4.00315724379226 5.698895016320605 2.730082469608519 1.2806328031850913 0.4079006314420007 -0.47473928633310497
Ni 8.786915394745241 1.9413297902637026 12.499004635366425 -0.32543455442628466 -0.6654408360191572 0.836334864060979
Ni 4.2244787319617965 9.085599195905832 2.6216051538464336 0.38624011574943157 -0.22116500838223202 0.735761793031907
Ni 6.944488012462259 2.823756601011936 5.029631486190124 0.4997970006326811 0.6598453442092507 0.05285725301034768
Ni 6.221253811548025 2.5168539159756462 8.960047930329488 1.4265483069047045 -0.4927154111955514 0.10603357992301093
Ni 3.560615394659711 4.963056688120483 6.770012323707721 -1.2208155739171425 -1.0591209529864019 1.1212930556397722
Ni 5.791168995582781 1.8128890445954882 2.683890319682963 -0.12538755896959047 -0.6671889290585155 0.6837334636807579
Ni 0.7043528321179149 4.534957642756081 11.89032089863518 -1.1602457827538857 1.2027234923021222 0.4986299769077735
Ni 8.002526814031066 5.914590154454428 10.949017828248525 0.1633532395800864 0.5571079185390083 2.726690640877633
Ni 3.7274844788071424 8.848648957637092 0.3672324184339367 0.7489425533882392 -1.0034074614741817 -0.3476509426223239
Ni 1.0113456123018354 2.1721296556992855 4.363547027697469 -0.01290693786965519 -1.0727154038413846 2.421557774123178
Ni 3.066489476817381 4.220047521639552 12.26762466750069 0.6945485520183909 1.5404777446360243 0.0789421230228576
Ni 3.7308400633872654 0.5079895385185643 7.936909047070443 -0.13619519110805575 0.42326554393384525 -0.3504986964837641
Ni 2.850297896033347 1.4820284049953611 12.88642756025205 1.0841012770808234 1.1407313668700418 1.2386978535142021
Ni 8.278365059899587 7.100683579630175 2.6574906027506855 0.21914052175303547 -0.11015685806276512 0.6148888341032185
Ni 0.035855110742295006 4.982068602947044 9.480665498928209 1.307261204405897 -2.173230603503857 -1.4116425934374655
Ni 5.812957311897553 8.430230543951785 6.661602119637239 0.21570655637082206 -0.8315436133199227 2.131078138505523
Ni 3.6005146743247347 2.0796074551120034 3.941866801932633 -0.37848926815941913 -0.5468805843840453 -0.4032860154881248
Ni 6.197626818750994 7.115383798105838 10.399713229173598 -1.3853553776061625 0.5500096169313302 0.5726497229283491
Ni 6.446482487242362 2.1612263041594884 11.816302218827113 0.5899049104643711 -0.11855176699467972 -1.2771921529346586
Ni 0.48660021500044337 8.78571106164936 3.9540305662010184 -0.33832452301507543 0.3262598785410575 -0.13437125052543955
Ni 3.406194150297174 2.4645527634377844 6.292021711335456 -1.8782615646562812 -0.1598745370028666 -0.5361925085425797
Ni 0.8325113409461027 3.239885862476832 0.5456612616253314 -0.10851520869428408 0.4986423182029477 -0.08254346722087073
P 3.2348111153857966 5.842826611351852 8.755672603958693 -1.4171822923087722 0.04305337954604843 1.4309564632747291
Ni 4.031380927794938 2.8178084825918277 8.624388345110665 -2.034468937220206 0.5190923585271834 0.9200481832202347
P 8.20347576677717 0.8681715519812783 4.986063127604752 -0.46066841006233566 0.8920743237151281 -0.46838763308346426
Ni 7.379932570373287 9.12062598289287 12.550888408342814 0.1782928916090542 0.3798059300883136 1.9601869386771786
P 9.275203514756397 1.4134641589719166 1.425591149710657 -1.2084724789707573 0.15263636738321454 0.11140667130946619
P 2.6697398654754965 0.5200108053595748 5.034327465925814 -0.06952314370180285 -0.15578056943915106 -0.17478924933116996
P 4.57191504004949 3.476100630152668 2.719668206013003 -0.040569179671614 2.0896514959296204 -0.4545340150298236
Ni 4.490912147623562 8.08945943811228 4.921624871607497 -1.174560399604345 0.5287100841226056 -0.9084229402764806
Ni 5.6021346664417155 0.07020986147506651 11.117278790493026 -2.6247068055439633 0.26901118133123353 1.5789399052669646
Ni 7.697030716503704 0.3206136955644965 2.7778632360147473 1.2134910152312715 0.5799706820697946 0.8488525369120155
Ni 5.799010950779617 0.8677514144050821 5.125676590917414 -0.18979266471853765 0.4419397233045808 -0.4386893346880832
Ni 5.237727374422771 6.089558608506211 5.771551236855317 0.6677792543443467 0.6455330413516367 0.14268182727366394
Ni 1.5154831235900668 8.403551348194203 6.1902849835573335 -0.08372437490284934 -1.7751909240163362 -0.7027159183205317
Ni 7.047665343264232 7.173660649211042 4.816242048365054 1.4453261017328398 0.006745289143633545 -0.25544089884596655
Ni 1.5745322188178201 2.537079357280497 11.489724776092409 -0.552826517554835 -1.4230212675880527 -1.6025660293263368
Ni 1.6321287596245888 3.3500133903817453 7.913779416261863 -0.6397298044062982 0.7394492691858233 -1.1909714939725167
Ni 5.1974879396085285 6.434383995989096 8.248968300301227 0.6453952302221917 0.9167317172524923 -1.3457436767518114
Ni 8.118915035358071 2.193228468333209 6.932554082754156 0.5930532262853657 -0.9657554554493624 0.8796417543787302
Ni 7.369691142367103 4.007487326907981 12.702598524232261 2.032439822605319 1.3157563863611017 0.4127782712492762
Ni 4.188845181735614 6.406491273753225 0.41911986876329055 -0.6658211021767114 0.3398769551038598 -0.4946123711079481
Ni 7.108001512029567 2.4592297950216437 0.9831265249903629 1.9199908260742673 -0.3765012911951129 -0.5267766145453185
Ni 8.639968370283087 4.671056475972905 4.350454731805543 0.5295300089207396 -0.0816896038610077 -0.273736868941677
Ni 3.3158691681061923 3.2040316710727783 0.7936545908465196 0.6011043787246164 0.3875508641410551 1.9011014453689328
Ni 4.856817960975548 3.9838971076405953 5.153583103226903 -0.26449940950380896 -1.5403995830999213 -1.1671095997532543
Ni 1.424477831100649 5.7269532194398804 2.847131695130897 -2.3668017614282206 1.7444474721858927 -0.9948341179828738
Ni 1.7867706451649965 3.4990381192688513 2.8338242740905466 0.7867493398233677 -0.01576677591595349 -1.2828447232347455
Ni 1.5373082134344833 8.134874747224082 8.359343130193004 0.1620023819791468 0.1545325559646629 1.218788773295101
Ni 4.782094148736537 4.900872649490478 10.083174040693788 -1.6355617675260672 -0.5579173018141811 -0.7153024967362906
Ni 8.496781439227155 4.822664545317585 6.95419070825914 0.8546393187971216 -0.3976738115076699 -0.2907526867733831
Ni 8.306119881399288 4.935982176919217 1.6823742718552852 1.0943064997485992 -1.6280677731418671 0.17659982017734746
Ni 1.7395074661885244 6.9774187082595205 12.998550971478457 0.06427989302499251 -1.4879742754206695 0.6734793900529176
Ni 8.264345151722361 8.323679241804864 6.566256631311448 2.150478397409006 4.365350330602734 0.0679462861329862
P 1.170887570667464 4.224083416518111 5.661782250864444 -0.3462934001531649 -0.11299792705598603 1.2157605279917383
Ni 3.4358520019560146 7.377192942414721 7.153156648419128 -0.3356068669735962 0.5843245881631163 -1.2873773209977766
P 7.327134975185215 6.6910632329124775 7.067580048243582 -2.2651660534625893 -3.1867365868646216 0.311102968294961
Ni 1.519188056701819 1.2137838929985705 6.992148345558899 -0.8704233211042558 1.1491650994596918 0.7323877343533515
P 5.718614821592835 7.441022596496349 3.2487629925331794 -0.4694304725256818 -0.28686466457288656 -1.976586463081125
P -0.06284963951658305 8.07378472110102 11.650006801742148 0.6758319494454941 -1.5090308389806528 -0.28411821217600103
P 5.336813650051717 2.3540758870012417 6.911456189458472 1.6206627389270476 -1.196453085912378 -0.44976873243069637
Ni 0.4048453038932715 8.494988729656951 1.2027086252076824 -1.7482645319391372 -0.3440953640605816 2.44715439164536
Ni 6.511378573683699 6.206829394544701 1.437041507503926 -1.762865312571448 0.25263633951763587 -0.17718397481559164
Ni 6.2640490066726064 4.252932250524758 7.1381135167795255 -0.7338092972912265 -0.09838789045229507 -0.7175236727573255
Ni 5.449037269146406 4.209337231130393 0.7548245015559293 0.08223879149625837 -1.002424785845938 1.2551940513970123
Ni 6.921201174814446 5.404182756361693 8.97008526524614 2.0574281171195405 -1.4576278019183284 0.04893966312349636
Ni 2.24928052089488 1.2488382601328414 1.6720675708339814 -0.30877791970621016 -0.7281505563435524 0.9396137640569882
Ni 1.251587081473819 0.021382888150433054 12.875743930551884 -1.1384528552485103 1.3563348220040963 -1.0727722252212493
Ni 4.031914143974793 8.023800300930805 9.507159907699322 -1.0660382489315252 -0.14960400831479395 0.5108859114569911
Ni 8.277611202541861 6.974136670738687 -0.11099078651333384 -0.4802674152401858 -0.9346628478096161 -0.078934923934006
Ni 8.313447007181093 2.6848445927772557 3.0863425861345744 -0.11589915986318106 -0.04586848039734036 -1.0743459974662724
Ni 2.7352978754504473 5.114931365555091 4.482936888381763 0.30848481394582355 -0.8851050914861467 2.4108838393490997
Ni 2.291698787340599 4.098538586309455 10.012464978553787 0.6636652321759732 1.3531803355355148 -0.7270390684469286
Ni 1.4097316457129305 6.532698027495495 10.644615743228108 -0.8263859803783832 0.7951769017654305 -0.8800140501164845
Ni 8.255593051666807 2.5820625774189683 10.318212974759218 1.1611878349521807 0.10430322749546551 -0.7648864783120053
Ni 6.401903775929988 4.6174774432798715 3.582431291121716 -0.13329910050718333 1.0046207650559924 -1.5855823502841468
Ni 0.3008892936010612 6.634799732555346 5.3609858104257375 0.23823867603506713 -0.7352820251820111 -0.4562286291234271
Ni 7.768978127254506 -0.09590444597639733 10.332274253157296 0.7188722163654201 0.39581978901806664 0.6583602750232919
Ni 1.0062708652108001 0.26240303681265337 10.165669019085067 -1.0048467650238695 0.20462175931157017 0.459581347645744
Ni 5.537431641031016 5.284144762217403 12.228698047694783 -0.01697570862239012 1.1909838352676907 -0.4079381695481555
Ni 3.575664961667002 6.600517609543624 11.358669432466423 1.183503981950878 -1.493866986756021 0.25589932653962383
Ni 5.376179713536886 1.2754071353014866 0.009467345207152481 -1.32465446018168 -0.20369436240129435 1.2131585715925173
Ni 1.349560957830999 5.838956197356697 7.673250194220405 0.2705101344742632 0.3641304283345858 -0.39599256715050507
Ni 6.419591843689322 8.556363750634763 1.267543115986864 -1.4974428770327373 -0.20639042117621872 -0.5612108849637883
Ni 2.3708721966666793 7.512050669006021 4.2044628997759235 0.7187416043248266 -0.5294094241824754 -0.5178731414081017
Ni 3.017948417685739 8.73299620690299 11.607177591102642 0.6625696851189492 0.5703403580688823 -1.6258316847224967
P 5.849859548896494 7.469080799615623 12.706541565948466 -0.13651323656910683 -0.197277403131357 0.20120476321022124
Ni 2.4135570712023258 7.692581119416638 1.8135923383499521 0.5414357592193901 -0.8668116924935975 0.5924204777973733
P 8.27355692089848 0.5638990936528602 8.473444957314321 0.6997491223827239 0.7560745364473301 -1.27105287280614
Ni 4.133648113738194 2.1974941977720506 11.288310638196293 1.7214780078739127 1.5657072086267743 -0.5791880382674993
P 6.58062313000558 4.008305537942586 10.594413439894744 1.3514499831079694 -0.5050263673524206 0.9081344625017844
P 2.033134907022903 5.0660225711269975 0.8907624505805555 0.1737464098889524 0.8489512672734089 -0.7621487676658681
P 2.8743937513333537 1.2106489495963184 10.060743106948467 0.23395264706520352 -0.5724471199992399 -2.0750651134750133
Ni 5.9746413283650135 0.02722987936401722 8.941653810800968 0.1404871336151903 0.3353790672335063 -2.106915682326707
