# total energy = -340862.5730641634 ev
CRYSTAL
PRIMVEC
9.32069549820214 0.00000000000000 0.00000000000000

0.00000000000000 9.32069549820214 0.00000000000000

0.00000000000000 0.00000000000000 13.64178001196009

PRIMCOORD
 96 1
Ni 3.478697962095849 3.478492906793346 3.704275572101265 -0.5520045358741719 -0.5606832945950925 -1.0420688826001214
Ni 9.321161603100437 3.440399224005614 11.785352184340502 0.5961452349471281 -0.29032022722165485 -0.4797524232769802
Ni 4.951479710237548 8.106358066898753 12.43225878853812 1.2177719019948123 -1.1221062955696868 1.4705928467194287
Ni 5.9716950850593715 8.508564722062985 1.140286439272061 0.21875434205821037 -0.20132534794848553 -0.5808050050456319
Ni 3.6852632172810016 4.676472587494207 7.133000624907555 -0.3748601560472641 0.9177830413351419 -1.1442617486208035
Ni 7.665330714692461 0.19695375391509895 5.274853786424026 1.7357214051668042 0.1949361565926901 0.8985807573750783
Ni 7.332451393165408 4.6969967591356525 12.649749763068458 1.445923883217839 2.1933566848297708 -1.107106736837061
Ni 7.540722335639564 1.8699738690901735 6.903204468087917 2.6282117333734285 0.7506507943285975 -1.0888583321498344
Ni 8.104866755607821 8.331257130266795 10.643494275795621 0.04394426679143399 -2.333689038034652 -1.0242822480406617
Ni 3.9146455352174065 7.884506870981554 10.423670331164532 0.9302292375182948 1.2912864262441954 -0.12954811810518335
Ni 8.082413199983733 0.7124888823554445 11.82196667274154 0.15410163907483138 2.563702497946449 2.3508755771162675
Ni 4.024946646572929 5.167533433511252 12.419463337661925 0.6177790111668199 0.28689500359018977 -2.2136084931002715
Ni 8.357960923070038 7.782967213460252 1.7223974320178173 -0.5783421453274361 1.8129298333280066 0.08360713259869472
Ni 4.219208583607897 0.49385053020064434 6.9532286412031015 -0.338233763073482 0.48825300454882364 -0.1844429703708501
Ni 8.915357159446831 9.25215117311258 8.53099590801771 -0.12393128613903817 0.642788388726964 -0.6698716180970012
Ni 0.03877316149466277 6.10501831446865 0.850520927165839 0.4675448254671948 -0.046255174312797756 -1.9899657126015082
Ni 3.4712786884234648 7.298738437294787 6.642196098018638 0.450627737996882 -0.03169038912474542 0.03692052717543318
Ni 9.134402825997967 0.8667613071240832 3.602207431141241 0.7657909924041457 -0.8418869042274598 -0.0738125151057761
Ni 1.2225397135233893 0.09917779326428729 1.3021515026506552 -1.946990494591563 -1.2423601328571379 -0.8518586707281909
Ni 7.39698788928047 4.631556155550463 1.3456390719637752 -0.03990866326947966 0.2953513618876591 0.6183297414639674
Ni 3.510425609810417 2.9228303197922605 13.0307509037452 0.499874647948152 -1.0310167385510178 -0.15000587173890292
Ni 7.5913150711844155 2.5937911248393566 13.495267340853221 0.9103893199742321 -0.4527440130089364 0.2170718121494649
Ni 3.5160459892381155 6.40041911911548 8.925052546977 -1.971464054252895 -2.8454840915694737 -0.04523110392365758
Ni 2.568625246804887 6.802756264017668 12.007331073786988 -1.7877523056211146 1.2916008721608208 0.5714760143352222
P 6.175874242179034 0.47406455764821037 10.670695793742212 -0.771090036019556 0.3145101942042971 0.06358389539923243
P 8.195911309919191 0.7934353950880939 0.809276849276014 1.3602457270227284 -2.121533946460514 -0.5178191482417146
P 1.56798333267654 8.760820026924053 3.4310300608203366 1.791378332409476 2.2794845269677904 -0.7051371261675147
P 0.23217666246778784 7.098744272485302 12.018394739426586 0.06897369895623605 0.6865418796638306 0.24642172606649174
P 6.651583902595053 3.300393055873849 2.903461914401287 -0.1385212681380711 -1.1644297389282463 0.6254205868724777
P 3.253975991943605 4.3971220206160275 10.199426512694941 0.6905471441684817 1.059447225977569 0.6428506094234671
P 5.50077626216547 3.693027356689414 12.70738614825429 0.47068079999301526 -0.4577766903368374 -0.8283757571149024
P 6.591409492005966 4.03938440400826 7.3842679360383805 0.3408092371101421 -0.23727116991547523 -0.24867092711198463
Ni 2.4239214481066877 6.612008229211957 1.1253323153022454 0.7580892528845138 2.7655302394526498 0.04710800923139629
Ni 1.1846231239514553 7.150166549935735 8.560858484549057 -0.5090992518702135 0.7274902970517342 -0.7868627254727804
Ni 5.754122088408031 4.761626462206397 4.319232696029788 1.5566229869373192 -0.6940978376342175 -0.7433540035568681
Ni 6.410019435550851 9.002151476579046 7.599589984709971 0.6576061704660867 -0.5444979430844816 -0.21827894508368856
Ni 0.0024354977520025436 7.69977068481741 4.0349654622393185 -0.9653821312703439 -1.8609798947576983 -0.04744430952489249
Ni 6.148238379818959 6.218730800402178 11.222560197299206 -0.4591339756956802 0.528784903224599 0.07699554081944805
Ni 1.3890446191558938 3.4066676267438565 6.674077537210084 -0.47159225606369104 -1.1411535420091252 -0.06049985715727001
Ni 5.849938838850381 5.867228729129619 6.363263098301921 -0.6047170357765391 -0.010503470634485137 1.5788398893539906
Ni 3.7507411036484637 2.928515944088937 8.718243089567958 0.5787103273001324 -0.23918227089525906 -1.0982680554995086
Ni 5.598186851550003 4.7729045038440665 9.343159376711233 -0.71252184866736 -0.43120279650305093 -0.8306450127650533
Ni 8.792762050636691 4.640429457731505 8.243073097425343 -0.17031270161705508 0.1287132809087138 1.7292481387376346
Ni 3.9037310007069013 0.782369865309382 9.525018264153434 0.30717689376767743 -0.9453910328603977 -0.48194248894976355
Ni 5.6091293481472135 2.4924658433161277 5.347100361913204 0.3740353461531236 0.28494225073919316 1.6113733432053217
Ni 7.529817121824626 7.110842535332983 5.217435505514492 -0.8544783677392253 0.10797553414073016 0.9230674296625329
Ni 6.199520846835867 2.1039978934196024 8.533574944481463 -1.5203673470393946 0.181195667078146 2.39217803540948
Ni 1.4385281919281154 8.498675464064997 5.898419504779451 -0.35054369078908665 0.6504397346246347 0.34620726819726183
Ni 2.406016391919941 1.3847664198900342 2.6149108889276174 0.32322777658295304 0.9765070375389119 1.2505115583196786
Ni 6.8496580041174635 8.408376565399092 3.378263739068952 0.38191860555594226 0.2971053684642883 0.2915214466186076
Ni 2.1206446557046257 4.8219966074024185 13.556901372368309 -1.4603012349854336 -1.2732966745349943 -0.5012807842670592
Ni 8.026069595273228 3.3627764713126282 4.757530016504119 -1.0072350627503879 -2.0590617960682214 -1.207809391465462
Ni 3.6027377787190784 8.985793655856641 4.5509526444147275 -0.14423837312750643 -0.12122520006178478 0.7615412159888563
Ni 1.4039577320652092 4.8224999249631075 2.212928862526582 -0.2086326802431762 -0.8022304661781022 1.5887543202542251
Ni 1.2111498235388998 5.385609747723283 10.274593262105675 -0.08824694536355125 0.4226816464059172 0.5790995923187511
Ni 5.113286985303619 7.144434322161216 3.8841696569176642 -0.7338620049060329 -0.9655266272680082 1.889858011244629
P 6.630985165389061 6.32465118484059 2.503880899178652 -0.6291615419721487 0.8348809052232717 -0.8416994708070019
P 9.123245953402686 5.149497887586549 4.129762528586494 0.9188554484637143 0.5240247628317943 -2.1242469745163026
P 1.3095297652625388 5.41095271897355 7.303317695027503 0.3216537472276138 0.9101862028244905 5.259612920218432
P 2.9139663383067864 3.245363669238476 1.6060061781779529 0.6666405127542131 0.11859239042462803 -1.3716133454297217
P 9.410640280556326 4.028227531412979 0.384447001828351 -0.9888318776528517 -0.4223944541828016 -0.33929640001004147
P 5.661213394982996 0.07689294222998616 5.223983294151237 -1.7635301998489565 0.098257792632334 -0.284252166650704
P 3.769298608524993 5.273565666296484 4.516739167192088 -0.9068283420958511 3.1915373506873745 2.1291531535686685
P 8.372752866936965 7.48147067391174 7.290276177788308 0.36283870610635577 0.34924991167832753 -0.7395369438036231
Ni 7.418882203170458 7.3816180622883065 13.037012547028 0.6522374499550058 -0.09937853650033852 -0.196353605765507
Ni 4.229647762644418 5.539140245124683 2.3188156924609475 -0.45833179150935904 -0.5403615523186048 -0.19711696629409275
Ni 2.512551942265862 1.8221866629113865 4.985497452853253 -1.6257915755131807 -1.9807133407653048 0.004938832062514075
Ni 4.167739702679623 0.9922253260301522 1.0927192015086866 -0.5399928561252766 -0.9789554990794045 -1.0781815691622787
Ni 3.62305689505802 0.4927982236709808 11.87482899765728 -1.9341640322508562 1.3120825370539404 0.7247582428325517
Ni 3.903320890101895 8.295372452328756 2.3110543492612057 -0.961703653977492 0.09872753317990093 -1.2930975113110055
Ni 7.240782352250961 6.770068584659562 9.025838160226822 0.14063420071601587 -0.48853351190371996 -0.8965961228448817
Ni 1.5052550515017329 5.453352563113848 5.443848249842829 1.6476955746751238 0.5771183002226642 -5.05873365866843
Ni 2.4114783195229776 6.907371751076514 3.7683646748290474 0.8746610133346872 -1.2165843094446145 -0.29313301408010156
Ni 5.660989698289357 1.3824921701713637 12.757833480948277 0.15264459491333066 -1.29725395668154 -0.16686562360871907
Ni 4.900029470700411 2.4523122868077967 10.714977486317753 -2.3552400247325505 0.9229165059069655 0.3173476636530922
Ni 1.4629856970993924 8.848695544742192 10.381899633975095 0.0013660271095911958 -0.674931806228728 -1.5440058123939409
Ni 1.0646284892048778 0.1704401033014501 12.489281871955557 -0.060842328098353285 -0.5025563085453733 1.2990678699618272
Ni 8.332720479471021 5.124359971638785 6.047278469562007 -0.4261315526277306 0.7372129236561369 2.067381114567194
Ni 5.548349092346186 5.88960771918916 0.2830890978706332 0.8640976359965441 0.8692393280984837 0.49807847527967775
Ni 5.42433723780966 2.8693947720990702 1.009007238400916 0.1935477608855957 1.2542409434551238 2.141496248515054
Ni 1.7584517466152005 1.2765904271240887 7.760412994324027 -1.1647989493422068 1.9001506514198887 -1.1991668852991155
Ni 0.9027252109744537 3.0579151606639514 3.8201756252846786 0.2932944793586304 0.7837817725546115 0.8870606725506206
Ni 1.527801814081504 3.103903472598052 9.507174724557439 -0.8132592131884381 0.4803702593666373 -0.8921437435004829
Ni 4.684311292467165 1.5784504737997656 3.520574915214763 0.4338723729154141 -1.6872514825908747 -1.1799334909908001
Ni 1.3535793725184286 2.325205961342589 0.06705960840540644 -0.2533176818553767 -0.5913177316514978 0.4518747230301057
Ni 8.703861256306036 2.5807141889570007 2.1279399641259515 0.21736388946858695 1.2365175580334316 -1.1613107336832902
Ni 6.847001605880492 1.0994319664569923 2.4237490152386734 -0.880097096748594 1.1079330893930983 -0.37334011985831184
Ni 6.92882799227479 2.8434179935501565 11.14195109374613 2.8439056913387604 0.4654524617145403 -0.8557250956621326
P 2.6099252488681217 8.922040098169319 8.305879672442925 0.4808991352869137 -4.06268855109659 0.3769700033014153
P 2.8607824493939407 8.516347502862535 13.664288834289174 0.7106372300501373 0.08368375147290105 -0.08606073634550986
P 3.6009202430832556 2.6067934951571656 6.442071443471197 1.1281113641131861 0.902424813711517 2.0263545356431876
P 5.241334701021226 7.311097679618382 8.369750670894408 0.6334354867571542 0.12376390732323846 -0.6199976160846936
P 8.27962979751386 5.732237095213611 10.649632885896917 -0.0941856794454894 -0.6161697576981711 0.5143170486257271
P 0.349746984297045 1.2663749447812076 5.809174776782324 -0.20404326110028087 0.5052019736983364 0.29005000427940375
P 8.78594862217625 2.5994021835714864 8.936007160478448 -0.9571296614535645 -1.5532975221085121 -0.15460840350792085
P 1.3290286603914683 1.6350364165950486 10.903656326707297 0.019920650183326984 -0.7471191270262552 2.118388715963313
