# total energy = -381170.44305434433 ev
CRYSTAL
PRIMVEC
9.13402739380317 0.00000000000000 0.00000000000000
0.00000000000000 9.13402739380317 0.00000000000000
0.00000000000000 0.00000000000000 13.36857237246748
PRIMCOORD
 96 1
Ni 5.543377199664859 2.868239834875604 11.684064977297966 -0.752525128533175 -0.5153033237983964 -0.08765173498171355
Ni 0.6807453498808232 4.17870785842031 0.31158815816700375 -1.7156336332779933 1.577154788342084 -0.5565402189609964
Ni 7.960597037003746 7.53401969638728 7.232490842430395 -0.8165617951991099 -0.47841622096405995 -1.8448716763419262
Ni 2.036312632971026 2.5083865633183504 0.1998278543503188 2.7401873898124873 -0.25649736513493887 -1.1013063281052
Ni 9.044532050728124 0.49631198505718405 6.462849485744387 -1.9854554834359806 0.08663074991636692 -0.018294170323497526
Ni 7.012466740428218 1.9241011082082047 0.9997850474781493 -1.685646085776968 -2.9605106190197144 0.6083199226364492
Ni 1.8080715600550004 1.120936958112997 7.248466256090157 0.9373694481075019 0.8585759348473665 0.669589310969892
Ni 4.187558730825289 5.564193647766974 10.12984812937266 1.8930400085170367 0.38963525747390965 -2.2497522900106803
Ni 1.491330897116429 5.5151073853269725 11.653945522442012 0.6963773776970136 1.2119681508288418 1.119803101357807
Ni 8.50275635843818 6.310489344205418 13.293627636537508 0.8174884207784373 -0.5083829425294794 -0.37734512725264685
Ni 0.31497140186030037 0.7052281965209751 11.130458892914183 2.4688051371459157 -1.2462083029586344 0.714891120230485
Ni 0.16974219539518814 6.1324397510266095 9.032301588240747 -0.3403058151111623 0.6635279352671605 0.7129311682906366
Ni 7.371096052334009 5.185542548129794 7.686715056726316 2.322640493529974 0.0293537705717688 0.42911583206703513
Ni 2.387114083523806 6.811883502024347 9.915203056017843 -1.0000388021122648 1.0915003977583717 0.5994030797627935
Ni 1.2205435252712034 5.989236471805485 3.881752411907359 -1.7716890815106647 0.8784441345262033 -1.193861413925802
Ni 3.2932278547506177 4.073575204776023 11.40595850941754 -0.21667586226262683 -1.5191848966955193 1.9637108926700377
Ni 5.809305269013233 2.4767097568163186 3.8835435946510293 -0.4188540451297109 1.1896787433030223 0.761594694934611
Ni 4.243568585920578 2.810366638221373 5.944750105488445 1.049604014634902 -0.1784312169591314 -0.9023307113358138
Ni 8.528961882617628 4.921770109212353 11.399381096395016 -2.081522696174899 -0.512921196719465 -1.1098184793412693
Ni 2.0693321414787667 -0.06823301036086499 9.516925672029188 0.07805972041790428 -0.07642912679301676 -0.2042468924706547
Ni 1.2859066242702062 2.997102691314667 2.2603182574513556 1.0311326953035918 -0.978569319384579 -0.6707542778122706
Ni 0.6028320974407041 7.580639771469856 5.549962833311908 0.6558699045012704 0.014338528109859175 -0.44672017541235964
Ni 4.8987432265158075 5.009502440945924 3.582603885451751 1.105375355968251 -0.7566183247659422 3.4175563447277986
Ni 7.210328038711672 4.322623591766912 3.9826313490614518 0.009955825661131242 -0.5702714525041598 -1.6590837619074073
P 0.8839637551462385 7.959838912742019 7.797634116633301 1.3787635833212577 -0.25712677118882166 -0.24263937620592405
Ni 3.8609624524842694 6.874013155376949 5.045366285539227 -0.954261338766834 0.19575171051544996 0.6280855352991506
P 8.74194913002662 3.9953148593004144 9.15906270500965 -0.07727579106402821 -0.500032513682255 0.2833329972705443
Ni 3.7087712904494197 7.4576044244161155 0.1941072130838186 -0.9133581727945689 0.1571874770890067 0.6035088744010509
P 3.889277936958404 2.9017160447458314 9.593969365075134 0.608853683652732 -0.4302520025540074 -0.2671522737456238
P 8.591968402586202 2.0666010673311 13.070773812893368 1.2495900749466737 0.20532289914365284 -1.869683078958651
P 6.782928635642732 0.9299079122123345 6.455416214368565 -0.45948750238035707 0.9368030340810705 0.7962176843251191
Ni 0.7800596281670386 3.0673159587832712 11.558266587001185 -0.10342442443493799 -0.22100611420686456 -0.5515216827004823
Ni 3.077445595003212 8.793108816652307 2.0738260828856294 0.28758123102393696 0.6511547584137882 -0.30146441676393243
Ni 1.4126321183328336 2.173030752844848 9.303457061384137 0.8007878201943047 0.5718639938022603 0.9715458368788945
Ni 6.782225315544504 4.0301246371491 13.297063857588853 1.4356081031141275 0.6785020400784896 -1.3406567491472072
Ni 0.6795579263383597 8.300656871510855 2.7490197710040722 0.3627104080586076 -2.137866107961634 0.8994809005918445
Ni 2.9000536517863824 5.196923546082946 0.36791405060513255 -0.4206815852567529 -0.31651385489788714 -0.23943115368127155
Ni 6.828543967727838 8.639803303292991 10.940411754942867 -0.5655493644381422 -0.34141910277999915 -0.2403536654955409
Ni 5.8461702029931075 0.46314541871072257 3.0582349088915985 0.9413526011249659 -0.8910456253402976 0.46424558589063275
Ni 4.002348060282699 0.7827797414820055 8.023348717612054 0.6949722698193709 0.8769775772830058 0.24361793806910945
Ni 3.610854518332412 1.4449665747968459 3.907673867839342 -0.43153729702433424 -0.13358552139935057 0.0056098899876096935
Ni 4.555221595681055 7.4411631753666185 11.556890089094653 -0.5430565826522648 1.7224043763429238 -1.4765678333559409
Ni 6.490849846278407 7.246243033857575 12.91243636392218 -1.0520079960907043 0.5850082444937023 1.7094951244804235
Ni 3.3381764028464946 6.074438677990882 7.899810085656854 -0.1366297075423131 -0.37253305057598424 -0.41886972885899476
Ni 8.508200238679013 8.60488391711731 9.192270374478735 0.8564887133010346 0.4246264288371138 0.7171194953403714
Ni 5.280152802382403 4.3402248622771245 7.780228314306232 -1.303414576966297 -0.0688921949860233 1.4831981941882648
Ni 6.510478870838057 4.422394571415614 9.889401255842833 0.38593544002481917 -0.2199090244879438 0.6935990436209281
Ni 0.9721710562967931 7.890931811170125 0.48053021277511626 1.2385644132601312 -1.8066771675500755 -0.5578157432393103
Ni 2.8516159052811125 1.7785503839839023 11.325519698442873 -0.10764437605355655 -0.561500134069433 -1.2823919519680431
Ni 5.734022616421034 7.108483634877284 3.7814343040263996 -0.30127569779189406 1.4831177186593167 -1.8092528986970517
Ni 7.997955208455104 6.95118655160984 3.8148155200132297 2.0721656804400315 -1.9541304480704538 -0.5587454541424313
Ni 4.9430706607587025 0.7783707465285652 10.51795112040785 -0.37848386884278046 1.111161623632725 -0.4656064707939014
Ni 8.238728166757747 2.09377479839902 4.963055912381093 -1.544298146823379 -2.1463564048208323 -1.0293496352612401
Ni 5.924668033177208 4.003435009525416 1.9545658292941988 -1.2525293600806557 -2.4825273718280148 0.22115678085211593
Ni 7.077473612364481 3.481105661250127 6.358159832421713 -1.7542248632876305 -1.876379260031904 -1.092736327048002
Ni 0.19434469779231137 3.312336239757034 6.899159132395431 0.9002589164084495 -0.6934800015445605 0.012338466960694879
P 4.379893942622663 5.1297153735795 6.162083323062854 -0.6077668783464565 -0.15843523345317875 -1.5207339863501939
Ni 7.446935880588442 5.7989016119758015 1.7896107775805892 -0.27981727080780194 -0.2606448116444092 1.0646645085124502
P 2.0920484672488224 2.3494636232004567 5.521567882800701 0.1597765779724216 0.9042839784074427 -0.5252627490039535
Ni 5.6694633118200075 0.5868210610746684 13.06740518364367 -0.7388597152309404 -1.2617465078035495 -1.1340449559888017
P 0.721041024495692 5.860081326494432 1.6429575762672457 0.27646686627833034 0.7152361622747295 0.8900848040889252
P 8.639702828993244 5.2439363843372595 5.27469065408707 2.021090716141087 0.5373268792573391 1.1287639100955205
P 4.2578176684301425 3.377726740837786 0.16332280104408428 0.14569721706122005 0.30084220979890125 -0.1871652543980196
Ni 2.8017715185793857 3.3980042813321663 7.637505484918443 0.02331527768717275 0.22687234317965446 -4.85938497483034e-05
Ni 0.3366391413020882 3.5783921854869036 4.003218533079598 0.4820067665287957 1.6204855899192352 2.125638455547191
Ni 8.080499412710832 8.898634233468332 12.990254622478902 0.33071251499577237 1.9398268869635884 -0.4742926857139896
Ni 5.292858234286765 7.208939666569715 7.198668452927403 -0.3105375827097942 0.1547510997333722 -1.7057595686973914
Ni 4.512720966888104 1.6785967237902066 1.5347924255760508 -0.6849665647569106 0.6871044370355198 -0.30271500134158186
Ni 7.196709204082338 8.602006698533646 4.925009035275106 -0.17325018697882422 1.5051924390711688 1.061608752405262
Ni 4.519279198453403 7.9764628423365105 9.283791500715488 -1.3082701052863857 -0.977801073759987 -0.010906362499858636
Ni 6.323066899728285 2.406569561565712 8.50253257477056 -1.6237835439442163 -0.6884205847437821 -0.026447138447935097
Ni 8.115354860695767 3.500241448338292 1.8035675712181627 2.6031625037142843 1.4000032094263244 2.290982243194745
Ni 5.040293246804733 5.912419302635333 1.1484577822164064 0.8681751485000274 0.27986020823059543 0.5081476865902216
Ni 1.9370166227393102 4.509706737895695 9.490616933341817 -0.5942678154187572 0.09409877615863795 -0.1517241399815903
Ni 2.9763227793215514 0.46078335926394476 13.134689168573288 -0.09536761556873254 -0.8510677993957795 -0.0494597972930245
Ni 7.668974949001908 8.215463799352708 1.7592501844052422 -1.0993453477240873 0.3002835090819538 0.07328646739897701
Ni 1.1836237871278317 5.404494315332853 7.03073296812221 -0.27867133012881684 0.8099892841879147 -1.0228835679209223
Ni 2.8219303167195195 8.21014779549337 6.724900160525255 -0.11974604441309698 -0.36659483071467835 0.28650111058588074
Ni 4.813075184940676 9.212214522978499 5.574560768695407 0.5390909131362974 0.3629559484105104 0.18140649753737145
Ni 7.633379644809745 1.7187864436889786 10.731754949852967 -3.149549436291363 1.5484103692195397 1.9646866263197453
Ni 5.333806078447264 5.3781152446356595 12.086632613885815 -0.8224015418093384 -1.8163429727746139 0.8237004631264201
Ni 3.2890627383247453 6.263047206670369 2.8638555017957383 -1.3642947002811212 1.5448815301306749 -2.148580666165661
Ni 8.891144331123561 7.392305263607861 11.243945527881067 0.43094131531154817 -0.13483456331510327 -0.38040499712489323
Ni 6.311402746930391 -0.0358081270270808 8.464030823107537 0.6891284094440842 1.2615202507253562 -0.8631363005245394
Ni 0.7024185697389611 0.8528359036819146 1.1023857487688142 -0.2702082869631282 1.8717523027828538 0.4922713816795974
Ni 1.1702789733159893 1.0390778059009986 3.999502810794411 0.27050550648857286 0.8843396740750319 0.8548123540398761
Ni 3.4483236374508786 3.8574641200476267 2.3390727538011746 -0.15844217543171424 -1.1123772412073811 -0.48270482103708473
Ni 2.571475289532173 4.511268656555398 4.712929710174735 1.7761728283136315 -1.707079058839763 1.3215259418550274
P 6.8073256224267364 6.397381345432013 10.967015522710403 0.6461498490000291 -0.5336422313169003 0.7111743335005299
Ni 6.67662682651048 6.841212863523201 8.968494014082372 -0.7407404771934211 0.19134869635174787 1.4663271294645392
P 5.26259720200844 8.098329033902287 1.7628069746162836 -0.3254561516928395 -0.977825242129703 -1.450942676588669
Ni 8.419463163947974 1.7792080339458822 8.762484250089443 1.0723436223242628 0.29745015339821673 -2.5087371974541637
P 2.4781894692307733 8.35940693478106 4.046813418337066 0.23569868322203277 -0.5691417097750908 1.779083574202523
P 8.452199517610973 0.8911284861209195 2.869176072668701 -1.5098268525193868 0.484534675156972 0.41432761801426704
P 1.8068841365125365 7.831980799300426 11.870382691943224 1.4491022809458205 0.7430213028077978 -0.6802375347123575
Ni 6.628609245258698 5.839584569346058 5.501581717775586 -1.699456766407815 1.1278699375263415 1.624542276487112
