# total energy = -381178.14794489654 ev
CRYSTAL
PRIMVEC
9.06734603644598 0.00000000000000 0.00000000000000

0.00000000000000 9.06734603644598 0.00000000000000

0.00000000000000 0.00000000000000 13.27097746573057

PRIMCOORD
 96 1
Ni 8.285151542478248 3.282560656435373 8.033533593304124 -0.0035553214514261354 -0.10969303105246915 0.3307066014585014
Ni 6.985438144065326 8.286366566863538 -0.057340990374099926 1.8574441136902977 0.8507381839705025 0.6603076285576499
Ni 5.77034122000701 1.6569124329955844 11.425409268296262 0.8934508923476807 -0.19023849400670462 0.914204065734632
Ni 1.6913864830916212 8.530486727498888 10.273727549803874 -0.13158057515417984 -0.39861380682343606 -0.7757257350193544
Ni 0.9255221571285326 8.710582356906432 7.527683579058276 0.8421391294475818 -0.34070305054958094 1.9806071542047436
Ni 2.4529710216677216 2.2074635570700636 10.168806567195702 1.8049681552787689 0.17376800715550716 -0.1307565365909877
Ni 4.163997376539463 2.606290777868113 12.771657193931139 -0.19649990153538419 -0.8823702090534867 0.3509681799210149
Ni 8.086984692176069 0.4584178197541659 11.415310058144508 -0.21318507550054897 -1.2336638906347206 -1.0556895587073496
Ni 4.373879238078906 5.823439599113373 8.083949851416694 -0.6010349589392616 -0.014484052548787959 -0.738750957567218
Ni 1.7548851082422119 2.4101731477978388 7.442086017849278 -0.12216750937039605 -0.14742731237844933 -0.6380369900849077
Ni 0.4840784093837778 1.3599840483309549 9.392759611496198 -1.2171581796702133 0.43511704395579254 -0.360429839554547
Ni 1.2839362160964831 1.1034778928425832 11.924637399642284 -1.7427376885836372 0.43463290523052245 0.39504717251810034
Ni 6.0738524979829815 2.5747545479275513 7.191954206710595 1.1588982675870556 -0.22202118573494023 -1.3683524152902626
Ni 0.2549764941913696 4.629369850797484 2.884645610660906 -1.325717868449188 1.0310594188634952 0.5381768859624602
Ni 2.747097596369259 7.048610344754197 11.909879387034103 -0.49279640094513194 0.8497619361001623 0.8413734549261509
Ni 1.5144916268781587 5.891163607573998 0.2326735428443885 0.4186786958941112 -2.0116226287496515 0.13455379884989085
Ni 3.365817028866149 1.813587107274759 4.322184484157937 -0.9941224366278297 -0.02583778699871034 -1.5221306095874043
Ni 8.030866886798801 5.026492410517666 9.716996122587506 0.7736441698999773 -1.377264630178228 1.6989546299604157
Ni 6.4208598354830695 0.4574983908536562 6.257797215834968 -0.3857523774797356 -0.4615860367805986 -0.42161540992493196
Ni 5.131528548422056 0.535590002912338 0.5139335533464846 -1.0279524978033974 0.5797122862020855 -0.027909581926074515
Ni 5.164352341517178 8.529861080613925 8.207874178104634 1.2737664150825612 -1.510738822810695 -1.4737894992798555
Ni 0.8561633061554618 3.2999246243296154 0.6531472391275166 -0.5317257310204777 1.4208774817721723 1.4634004427360474
Ni 7.254756459676185 6.706853000680097 11.461532668658597 0.2869492538668929 -0.029026469139337107 -0.7932727427641822
Ni 0.7377637134821239 6.021071475992179 10.881431970186965 0.3518055882206457 -0.5155252100012153 -0.321856093046407
P 6.640561632912573 4.956265814517191 7.069529619077334 0.4087904902461218 -0.6349532089532613 -0.08973535698361965
Ni 8.37866308341471 6.5532430894026215 1.0292507837168132 -0.36150738888944195 0.8632280889073971 0.4625082914845519
P 3.0409068139552358 8.94014942695679 8.536424025763719 -0.6252128417370458 0.4576993001316827 -0.341504977625586
Ni 0.0362177007623883 8.207081692050346 5.539358737221251 -0.6448807524796184 0.2772515669631548 -0.9517316303664449
P 0.49307684371184385 6.602714530045435 3.7960036663546624 -0.13344256806358307 0.6626943836222715 0.16413948292680763
P 5.121808353339744 2.349984103995237 5.071490929300308 2.455607150398403 0.23770954300447447 1.2587709701149934
P 2.3572198462300173 4.735521272279416 7.498805895011496 0.5989436236278717 0.8549794757453597 -1.9647622167526868
Ni 4.758534196830637 1.2152692036353343 9.439606962160633 -2.1838839694526455 1.4742085890951449 0.1686612820565611
Ni 8.40409698939035 2.4847339352622555 2.570256237498134 0.35138701262598837 -1.5638660416529775 -0.4122555659765868
Ni 6.147968985485613 3.8572127866001376 8.932057727244613 -0.8564421763338154 1.2460607216371766 2.3922184017291124
Ni 6.303655319033471 3.2686513474276606 3.503644317419489 0.8031725183763974 2.134004053903067 -0.09063215776627617
Ni 1.2246267048712918 3.9513681091138797 9.01116669554232 -0.9054301761967438 0.918051207394864 2.2699835294558905
Ni 2.1166087485581513 0.8195339478774607 5.793989765523968 -0.2181668449858565 -2.5593642755824115 1.3909840366468496
Ni 5.09069828866865 5.645402257283893 10.994328590476483 0.7119713754805286 0.7547946412936419 -0.39017261803461833
Ni 1.7960780618419743 2.9794664763827097 2.886530711927336 0.9970452667015798 0.4317411855050242 0.1853459418010937
Ni 3.4293700580936934 0.5878949892297997 11.673403905945298 2.3595926452742906 -0.5554706400459015 -0.46270472376607413
Ni 1.9965752201069844 4.1626282072694725 5.113467301608196 -0.2592093647494632 -0.6984345173363584 0.8322905187882764
Ni 8.490046363630313 1.3505449409795676 6.720542879910764 0.7764433299116692 -0.3663989126537883 1.1946481714931554
Ni 1.4241536570973024 7.54069522079626 1.7818541159225494 -0.28104445834668373 0.9300523456207983 0.6432920678362598
Ni 3.600733833150243 6.071966489981936 5.061935759918087 1.0100272807835444 -0.10002594027635031 -1.2453739799827972
Ni 0.21090828512462864 0.30451049952267945 0.7410116368762324 -1.4164659829680377 0.5629836605934949 0.16486093447386446
Ni 8.544686191583684 8.45127439145497 3.010282759038257 0.29793609189569975 -0.7425914143592307 -1.5408274146659593
Ni 7.041655690250341 1.4859113517853895 9.377591754841635 0.858185127166851 -0.57203137261806 -0.945045733705837
Ni 6.033783895306919 8.022397985486412 2.1517166061506936 0.1736682483528493 -0.25866634776179964 -0.7120024858287802
Ni 2.847110424501633 5.35347904769896 10.371985846454507 0.09381672614184489 -0.9395885672460077 -1.555582975708579
Ni 4.9676181319081 4.632561556645408 1.5295597427249747 1.3988935213019134 1.6629496726207167 -0.6776677171026523
Ni 6.282419594329388 6.41006969355401 9.099776429145294 1.0965742127368532 1.4441215399017773 -0.2934474599967269
Ni 6.241734412114523 2.6111780774477458 0.980580896474444 -0.1686638531597224 -1.3212983992252534 -0.640587010200271
Ni 2.203918224721944 8.099796852298557 4.198725312327948 0.5692157575461358 -1.6720405791783917 0.4237717941463024
Ni 3.4380293736754175 7.698122484806621 6.471088399530148 -0.1547081623105787 1.8616836056929422 2.0164511604865467
Ni 4.01108565091622 4.169029753657638 3.6599762460138585 0.6916318925922281 -0.30081109945064965 0.981732033383277
Ni 4.652400910041024 8.81788533135054 4.855359852788168 -0.3948520257881587 -0.5992187316661294 -0.5638645205365515
P 7.416644857996712 8.378953238491794 7.826996675762689 0.9247615295355042 0.16717646998091854 -0.5472495376876898
Ni 3.6615666585301248 7.068349957342064 1.159089740304186 0.2956308408012909 -0.5436888169196249 1.0158158624408635
P 2.8476181958865303 4.369526911922648 1.2641168108624172 -1.0466719285897716 -0.8304408671740473 0.36701417764028405
Ni 8.247413247765017 2.3346421542944227 12.667585821658053 -0.6282691120648664 0.57018377788636 0.8649450715985039
P 2.5245033155150747 8.772321916902202 0.07193941768988621 -0.21555974638031264 -2.171053136236564 0.6774404315831946
P 8.385790017495586 2.9019588014166593 10.62524861222185 0.47071293878253123 0.08318418612866318 -1.0446718674406072
P 0.8441001088256965 2.067327722184674 4.8793003668514405 -0.3372156062216128 1.0863587056564323 -1.4987178870904188
Ni 7.98562989681218 1.0919079591438607 4.464768502506223 -0.3349592060872683 0.5781986777710365 0.001288894014752619
Ni 4.5778945266535604 4.179529740509613 6.150832453402585 -0.8429225445808258 -0.2935315350701009 0.6047702576119778
Ni 2.283257503612087 6.828826941209263 8.496358143291504 -1.2574967313882603 -0.3271394529325333 0.3878359994816417
Ni 3.672810167767128 0.14526160566900062 2.5149962030674957 -0.15024601277416702 -0.6525529243128955 -0.5000332850132033
Ni 6.174699521961972 6.990679070145155 6.467319103731905 -0.6345824558774039 0.6972790635756765 1.3600063573184125
Ni 7.611538396335538 4.253745968819993 1.3254982106849114 0.005275903686958656 0.29301937132037276 -0.020653928804925722
Ni 4.1448108720672865 2.5261717072083067 2.0569347300173733 -0.5704861396181271 -0.8986630326762394 -0.6678728424994175
Ni 3.903129827548673 3.4573337536476587 8.417303579070749 -0.8318068942836384 -0.5413342006445193 1.1300078098049506
Ni 8.613035846929272 7.3700749681247375 9.369071169656142 0.026032676618335814 1.5144502102240114 0.08029966549201653
Ni 8.770780468055193 5.6933141143873796 7.6974587550677915 0.24142273019000354 0.026177943946948463 -1.1280725404554508
Ni 4.23122268096135 7.663213202094958 10.243668390552592 -0.12267067425905971 0.8396832117079215 -0.9779537972877672
Ni 6.91545636641114 7.876096355212989 4.431737067184063 -1.2374410982889656 -0.3313552907860939 0.2295977125306175
Ni 2.331314438254116 5.595731335025583 3.0785879843876667 0.6807460989176599 1.1720016377382332 -0.7651754703073338
Ni 0.2518065499742274 7.603123899100103 12.40129055925656 0.6348801896234807 1.0390342095388556 -0.10725999613094431
Ni 2.2082614835320444 1.5739552829880508 0.8337823756315145 1.9219062979294255 0.43649926901529984 0.7827301913616456
Ni 1.4233647979814803 3.580785671600721 11.775165825151719 -0.23806589790262872 0.6725987872201772 -1.292413340759787
Ni 1.426547436483245 0.7190432706025137 2.931067702790491 -1.0468807021664681 0.7594257123077501 0.396084355533363
Ni 4.122278516862486 1.455698954384023 6.950209690768871 -0.8759434795915366 -1.1262668547052797 0.0074297168051678485
Ni 8.18597291019249 5.948342292451855 5.337096166659108 0.39145765539462907 -0.427769859562102 -0.31659381620620314
Ni 6.002837042866684 5.376419433480911 4.782714088832505 -0.5339067978321965 -0.05444002411643527 -0.49455554972808374
Ni 6.7049307232944155 4.129913222328257 11.618448534345598 -0.7759100831160185 -2.704378607643994 -1.1771453867227017
Ni 8.667095364728475 3.5457131766581984 5.670847950809539 -0.8091958417523419 0.8909777482168397 -0.2676274136098294
Ni 3.6573322078739308 4.747236283516681 12.5664613368866 -0.942964682807092 2.128389793040083 1.147203861968263
Ni 1.459153613270554 6.34164749943915 6.059103552720957 -0.1785579723449828 -0.23473426242623444 0.41264714498805055
Ni 4.966865542176914 7.523820889594597 12.635695965217295 0.49855670046767686 -0.8059449389152121 -1.1710786117033316
P 6.4615631523902515 5.496253480316582 13.158134689260802 -1.3295585823515168 1.7462654992312374 1.3994414233855834
Ni 5.80172330506287 1.1412252549019735 3.215398823436597 -0.30298111051877497 -1.3791826731365473 0.05427958727917104
P 4.781374841804839 6.852882610568754 3.28209822178127 -0.8875892913605811 -0.9084234544971128 1.2550099604106644
Ni 7.072094771305679 5.850777647782376 2.7879541514265274 -0.6665070725001425 0.7345317772795478 1.4144283837127187
P 4.292517940995335 3.707275150517006 10.748735892824932 0.2620254940420197 -2.344174510947008 -0.7631147311235631
P 7.195673632104965 0.7468782098410235 1.6022843925922194 1.0049429242821015 0.10107160793204528 -0.8102929314712626
P 6.3025400354559284 8.440765337256835 10.541788224502499 -0.49619514221403577 0.8367598674135396 0.050395421733416434
Ni 8.540215989927358 4.9423111687786845 12.67382324908074 2.2114832192271527 0.0075029932452644965 -1.4399337270726749
