# total energy = -340895.19202062755 ev
CRYSTAL
PRIMVEC
9.03447099752434 0.00000000000000 0.00000000000000
0.00000000000000 9.03447099752434 0.00000000000000
0.00000000000000 0.00000000000000 13.22286152320611
PRIMCOORD
 96 1
Ni 6.191377200124676 1.9130311705603043 11.136690342753933 0.8573461762053235 0.8629812630039136 1.1469333819156957
Ni 4.760786782288933 0.32627450037819977 5.834548118740587 -0.5605146302277121 0.04068873596861379 0.2627790843785926
Ni 2.763951858502541 1.5461503367140184 4.888346285582353 -0.1379887926733688 0.7817889104942987 0.13079021804240054
Ni 3.477964172534891 4.318919838936769 4.837808358116698 -0.3395632805181829 0.39781393662996006 -0.34168598328814054
Ni 5.27251729007591 4.341533119911855 2.8003770387803484 -1.1353636748002254 -0.45370843380473475 -0.3669748397619164
Ni 7.1413427939118455 6.065301156973529 2.569849862323027 0.7402648231085832 -0.45012045934316025 0.5135200066457285
Ni 5.064037836707521 4.595365617824762 11.515896001972257 0.5913097612316978 -0.038090893334450523 -0.6250554902235751
Ni 5.684850547647987 7.834024721854631 12.404353110128353 -0.4020971373863462 -0.04215400766023063 -0.0026163545769245264
Ni 1.5845920109245613 6.633298350302988 0.3534257961490448 1.662538553225227 -0.01907321458136715 -0.2347347766468667
Ni 2.7968373330328298 1.6624149443322274 0.262263466273255 -0.6106681111536515 -0.6244731353575439 0.5737684099138247
Ni 0.45261886731878337 0.1181401638029586 5.043146525909763 0.23395264706520352 0.4393261969411337 -1.0438527139734217
Ni 8.662567025068428 2.5496632402652035 1.2476351520066327 -0.4664929871639127 -0.6487674891285343 0.288849041992767
Ni 7.0626254478727235 0.3210579968084777 4.942983152551959 -0.3549101952878984 2.1815897741018295 -0.9649273031211124
Ni 0.9958426376511262 7.3611063015902145 2.609241059438277 -0.651648153110439 0.3705967527852198 -0.0787840001784385
Ni 7.63304387943683 3.7453032046298813 4.1014140455674974 -0.6743731055117805 0.9512696031283617 -1.268019999517087
Ni 7.7745056267432195 3.7858950829443274 12.372631275466059 -0.6804452798477894 -0.28655767485542905 0.19314949700591252
Ni 7.857478208635023 8.881210258339722 7.0834471932435905 0.11216900339678745 -1.0466505884335329 -0.3069290394229295
Ni 6.823383620664875 0.605210179480629 0.4471114537820625 0.39028728923561173 0.38721584939913956 -0.5503744564699167
Ni 1.841749194174597 6.450793001130912 9.230905721402625 0.484298904997082 0.46363083512476927 -0.3159602963872623
Ni 9.17016877959707 4.943048200743338 1.5306652533775031 -0.11973653133140023 -0.20864579286929874 -0.11784651339753897
Ni 6.195677608332483 2.1032338890455136 6.920197915613783 0.2827403579918679 -0.7385707232356119 0.5598517998327325
Ni 3.458314198055941 4.17952698549506 0.5637329230057515 0.4098317870264426 -0.3516284392128331 -0.8897922125491708
Ni 5.885289321804299 5.613378847370758 4.700581970826738 0.04471482640887137 0.12586861237106708 1.411561603687885
Ni 5.356845042621434 3.0302338574876293 9.055914341781879 -0.40529044751266324 -0.2895668939953981 0.22401790444999486
P 0.22779244207811333 5.382701698694425 12.366945882850148 0.6264400292759276 -0.3133071750351314 0.11289534003985073
P 3.9346657173097834 5.954412059615079 12.744273275542417 -0.2377974747325904 1.6989433171065065 -0.46212519711352024
P 2.3553588719347327 8.58944201659366 1.3500146811068197 -0.43186099891234014 0.5062602397595216 0.24032589758139902
P 6.140377611189654 7.590780623982795 5.860412002390398 0.5365120966655276 -0.22735313947081492 0.018581876767245417
P 4.859641964242344 1.005554694002791 12.599879842388479 -0.6801457463294996 -0.014078332469937045 -0.9777887324648129
P 3.9313048940885564 6.127946179059524 8.174174362832726 0.41004184615471967 0.9920989784398978 0.4331933445705184
P 4.687038395313453 1.0552171812261413 3.4665455046066405 1.354446603842448 0.625175303630891 2.0451349015744844
P 0.016583675013131148 5.5542030621582885 3.7011318688954074 0.27377003617245754 0.5373633889222293 0.2963546063411928
Ni 1.369987186201355 1.2622420847595366 2.6475743199965223 -0.10423406482042694 -0.6647705494250099 -0.1427443050804832
Ni 1.9185783357695343 6.394779280777125 4.578641005063644 -0.19482097117106448 -0.08562287747714287 0.8091932706491805
Ni 5.98299712593756 5.577204825387441 9.16234583113669 -0.1898847102117117 0.5364614459332503 0.08196702589211044
Ni 8.503596472915968 2.2410637789999313 10.153769709009584 0.544540880507275 0.7427045428983273 0.3731030641468413
Ni 2.2258497297941604 5.396587680659549 7.058984556049727 0.22310953370311257 -1.1647773520756521 -0.6765451734624348
Ni 0.6500319971288891 0.260204510326702 9.104191844597127 -0.11189389535852987 -0.5775967825209795 0.08556091389095588
Ni 1.2928599070625992 0.9510226268970711 11.520444858133246 0.9238981530939443 0.5194715962434732 -0.3385633784987589
Ni 4.025669943942639 7.115025379816589 1.5610906414477372 0.477400378105036 -0.8457006215465952 -0.6812736892863557
Ni 5.673331597091361 7.809197995478469 7.996710248492491 -0.6866071856841272 0.454122895634334 0.6016746494057895
Ni 5.323580120308105 2.7897814111624575 4.809511491419908 -0.1647274942197937 -0.5610409350448273 -0.7546005230049649
Ni 0.9222026643279446 7.3959612908039105 6.990900782406801 -1.000954371947999 0.6623722243961624 -0.3305104262872953
Ni 4.736872537486275 4.589411901419416 6.897440986549403 0.9107299911431024 -0.0339205640068448 0.012596605718087983
Ni 8.286588478900164 7.39716287545021 9.006447902579765 -1.1692945232197154 -0.5537621419952269 0.5857358666883461
Ni 4.607200774867256 0.16631648054272863 10.512439112141426 -0.5581576999597613 0.06397316041785112 -0.7154148539444389
Ni 8.104715542699823 7.227893026329473 4.828843452518785 0.3235427367202105 -1.1800669312448708 -0.127911868053341
Ni 7.191005281135196 6.026163828494076 7.064975313786276 -0.36682083068255533 0.3280802195792479 -0.163414431835325
Ni 2.5467541405952163 5.18763843479787 2.3856162188439054 -1.251252036030129 0.04390904267812438 0.6867120866931077
Ni 2.381856975450485 5.1602730220637385 11.300178130418796 -0.36995063456078864 0.039492401667667466 1.3300306368919286
Ni 1.142950929348018 3.6158934416705817 3.9885039370407984 -0.2131197694802523 -0.2724883412465566 -0.32415620193449335
Ni 3.399481722742414 2.6246674187131305 2.786810877089502 0.4426025536995603 1.204206761715868 -0.5826081196926417
Ni 1.0533199423109325 3.365304318855579 8.190055156000128 0.5613265846060462 -0.1593762572102094 -0.18793272869166344
Ni 3.541413262542093 2.6276036217961916 7.412815096500684 0.2798000444166213 0.8657200020913154 -1.9594456896357804
Ni 3.9085651305191234 6.939693400638209 5.946902607299261 0.6980771339969396 -0.18714288580051638 -0.19392494171935634
Ni 0.6248538298298614 7.054503458421424 11.15495171903637 0.05287242251899926 1.3522002310104324 0.3138314229697176
P 0.11946461725519493 5.5968999722215145 8.109435150363183 0.1692796323668504 -0.01933572421413444 -0.37042191777025235
P 8.502440060624792 1.6543832995911762 7.871423818108911 -0.24428333956725026 0.46023132252491705 1.5308299371336151
P 1.74500807844099 2.890506728618003 10.37497421481641 -0.03293737415796909 0.9521234664882249 -0.12749946310627075
P 4.00530624625273 6.151842354920132 3.553141812826494 0.3175117000347822 0.264761404915944 1.3717035911506827
P 6.8466112456696475 3.9588419617721606 10.313342860379398 0.8284333498257151 0.07542382545695397 0.5687614436175367
P 6.3453245863873455 7.755713927011627 10.316886179915327 0.435841837936959 0.045605199433624684 -1.3592216566335882
P 2.3937734427322015 8.57541148309214 5.878883881847713 0.6246320295329114 -0.1500146134896513 -0.8334470009902227
P 6.895722630160485 4.007049899160517 1.5161866101131516 0.9560096889165084 -0.3068359654884909 -0.602319224968324
Ni 5.405974496054322 2.923337996322142 0.17319261643970732 0.5518212162187723 0.20064914781706736 0.5217603922776498
Ni 1.5182880280735211 1.2041233326569694 7.002695284329683 -0.28797049604255565 0.10946831663617276 -0.031198794200307564
Ni 6.833312504321135 0.7868256332567616 9.154782171994723 -0.6989389677766027 -0.7558413373906016 -0.6011953957765259
Ni 2.778985218287816 1.4524628721867954 9.135952527484827 -0.32575080011512286 -0.7226108574722458 2.1454436631985763
Ni 6.593393091786427 1.887725617219827 2.420339304780639 -0.9119438089455456 0.5233999847636018 0.9817114645579866
Ni 4.161006319894211 6.736797250363149 10.391741289591344 -0.15251449709336956 0.3657407102444991 0.2804896142844783
Ni 8.238723851410748 6.983691274529007 0.25023858533924015 -0.4515191394628998 0.7679347782200259 0.591886202560458
Ni 7.647282205771922 3.742014657176852 8.216725817912453 0.059769663859464806 0.20976525118572262 -0.30738900977848355
Ni 3.255779426621874 8.308153761236373 12.476562926688308 -0.5949159905257173 -0.20038843795651293 -0.05882478344769224
Ni 0.20937747978825433 4.647702308471454 10.0473120196888 -0.5066093955688243 0.2351440962701434 1.5408708663093849
Ni 8.524167963439448 2.44330041289018 5.921488640306486 0.3964113998554786 -0.24791373723098595 -0.7019394451658233
Ni 3.663839379399219 2.710214824847004 11.492901466319925 -0.2798990318883308 -0.468710820750838 -0.7987983005681017
Ni 1.323405453597463 3.335481530002699 12.573089925458627 -1.3639455444718187 0.24857991006007513 -0.4352324864877343
Ni 3.1535905248603098 8.327993459606843 7.981385075293114 0.10417621499929801 -0.10636011002449423 0.4762320688285476
Ni 5.698158323467523 7.818160190735075 3.6499859215297836 -0.7323257707671647 0.44479493336518877 -1.0009705698979146
Ni 3.293073723012267 8.494137381752997 3.723042268024763 -0.9534928360319256 -1.1448420466043057 -0.48849263136345544
Ni 3.3972592428703123 4.3730363203753475 9.355332973591743 -0.04822823887876856 -0.5701192431970117 -0.433286418504957
Ni 7.327335448899496 6.165683164530132 11.40655631639456 -0.2728421250415495 -1.1625924286091913 -0.9173341267231815
Ni 0.4043711782579174 0.014723477429123902 0.44272521809952 0.1757277019850393 0.23770594346004867 0.44967591560657394
Ni 4.429790867353169 0.4682466952974902 1.4155073684598327 0.8379495168462666 -0.5785974558713519 0.7216909167611377
Ni 6.083595960798758 5.720157260412923 0.3583206725502839 -0.9178668592981999 -0.93295512108989 -0.0315867736673456
Ni 8.10002665223795 9.01317677659904 11.13928233249095 -0.6507536663206276 -1.2042299016443194 0.23549376630007832
Ni -0.02107200021825403 4.907343971253311 6.015688359340816 0.6768331370164988 -0.4344094763658066 -0.8322246985473473
Ni 7.92001481706872 8.700132355589565 2.682759970849726 0.4029119199781577 0.39121854280062945 -0.18819343855221782
P 8.49333331383179 1.8314770006193941 3.5309405037301396 0.12333813263972952 -1.6324193652423433 0.955057609415884
P 1.6833568481677241 3.22662518862483 1.5204969562390858 0.6901869326155855 0.10063940549063313 0.8947647260630978
P 4.747704868245016 1.0039194547473014 8.28570942486945 0.6317616985991571 -0.7705351919573504 -0.5213965811803278
P 8.398652057491837 1.6339653950751178 12.475928706822367 0.24036009325344412 -0.026417827871896442 -0.5036346292112166
P 6.3968933469969285 7.701967858885063 1.2988804785535288 -0.0974383820548322 0.1249908377518041 1.1014670220527807
P 1.873902876551876 3.343621588396048 6.091375543798218 0.000303133062715607 -0.22849676615695486 -0.4916504602661468
P 6.758597428946002 4.05404721743155 6.126297388097497 0.04873526042217413 0.0807066711224481 -0.40990557768717145
P 2.2716906357740183 8.39461364894375 10.317137338209818 1.0742323547065433 -0.3115698806290505 0.07272622402013282
