# total energy = -381170.15443095093 ev
CRYSTAL
PRIMVEC
9.25951208773646 0.00000000000000 0.00000000000000

0.00000000000000 9.25951208773646 0.00000000000000

0.00000000000000 0.00000000000000 13.55223190622367

PRIMCOORD
 96 1
Ni 1.828512892335119 8.115379005942629 2.2429621722499196 1.954792764244801 0.5451556312731385 -1.7195388818696709
Ni 6.227438564952968 6.356553201668288 6.404811926828421 -1.802566744926128 0.8316037771338969 0.4886589817379907
Ni 4.230180324116704 0.7794851735106607 9.946429930544218 0.9169546318965756 -1.0143634462650533 1.1309586037539943
Ni 0.7635986286015619 0.3130548445717311 7.376114375138532 -0.17384668291224253 1.2719779557235706 0.3360979476774018
Ni 2.8083544627033814 7.191316736461707 4.346417757355259 0.29733882463133304 -0.014878973994361474 -0.559762582553036
Ni 0.9364514966700422 0.45629857079966524 0.6241346352126406 1.3023218581227507 1.1451654913819955 -2.0791009741072837
Ni 1.4242240750470914 8.764906001185706 10.697752298004273 0.004493516994979358 -1.1860072079887058 0.8836796718935297
Ni 5.562031506459261 3.2438663547908964 6.505735053005626 0.008847165977984763 -0.01756217725347943 -0.6403867212640069
Ni 2.7505658476904506 5.8815402309643385 1.8957813958355096 -0.6214027239623363 -1.8610403156819884 1.9999549626037363
Ni 0.3786733030159924 5.063851236482383 7.753245043438748 -0.5524436802941195 -1.0744141317000464 0.5345272050250149
Ni 1.0643994348608252 2.730463446922453 7.71676256576675 -0.6267616742814045 -0.30860488446345563 0.8527948093892151
Ni 3.0305827530911937 3.2846267270528613 6.764691198136075 -0.34696214408541537 -0.320212643905713 0.1585481048819592
Ni 5.124047324641182 0.27844464024624926 0.45404850935948865 -1.847353305113199 0.6905864820468494 -1.3077903374364896
Ni 8.848639769101414 1.2080144675239488 4.687663186513895 0.1672487179797507 0.5692736073672647 1.1504887033671218
Ni 6.540215624161714 7.5278629632298495 13.194289912903626 0.2696043348305421 0.06115574557371403 0.27877597402748117
Ni 8.601225605802984 8.91597494108892 9.228839965662612 -0.9285209965779364 1.3455541864488245 -0.594321294364512
Ni 3.8402807886312877 5.008636765833112 5.448999716309551 0.019723446570856357 0.9116190786162752 3.734696006135142
Ni 2.329869174962123 3.1782256735175967 2.4869975395832458 0.7972188718961238 0.64287632045508 0.475607290760355
Ni 8.748683335987396 8.57941945480868 2.037889905880046 -0.5363082081848376 0.4257921670104409 0.9127380227120668
Ni 7.431249213983747 8.778239698608974 3.993815536606597 -0.9234687788660096 -0.5776520612389471 0.9992530729861758
Ni 6.459167114754861 1.5727373896108463 4.983210145607906 -0.4492059179486909 -0.12355719062907108 -0.2945540627973443
Ni 3.9914145451191994 7.389062876858461 0.9056988050852088 0.7501723120302822 1.9180856386317549 -0.9576055726487186
Ni 6.958430747647379 3.6800356722374756 11.978966912479548 0.634522549173746 -2.062609147099848 -0.9289334015250066
Ni 5.930967506551427 3.4082875111415794 9.99527293091783 -1.9058451307015047 0.00853786226768207 -1.0392920911859327
P 4.548827913996528 3.4392235410659824 1.6882423954423316 -0.416918775780211 -0.22569092127704357 -0.25191025998488875
Ni 3.6812116302741114 2.9839703691823503 4.565285770802166 0.15324263350864575 -1.565702323530768 -1.03512818961623
P 4.304099009206951 5.012988736519873 10.125400558256832 0.19305693729210624 0.29655746638061825 -0.9496850322500611
Ni 1.2792849321537403 7.245883041264014 7.915926337465937 -0.5020623996280901 0.5169426591740323 0.1514693436583069
P 8.0319970994867 6.620097435044034 1.5225387966658694 -0.03537657972708101 -1.386172474190819 -0.0465837612968101
P 7.415785828777596 3.5630046988119943 5.257981537404287 -1.584867069384677 0.2506578756350264 0.5033651775999137
P 8.37534906764797 3.2639224579983965 8.98331381688127 0.07561100176709558 -0.13856009179580653 0.19760059079873066
Ni 7.81484302172941 1.7741965943594977 2.4734175391381306 0.10594307709173367 -0.21058748997670182 0.6849863622512525
Ni 5.922254305665806 6.238651834105454 1.9436475176826244 0.12971009760434435 0.3234499198960881 -0.506004929215606
Ni 4.510530571953029 5.094592816652698 13.648181936508632 -0.10087234743704562 -0.8262584536615835 0.39792655094842433
Ni 7.520177568187271 7.391544426101126 10.737108002280744 -1.667955096255108 0.7488872746702716 0.3545384137707765
Ni 5.010442370692512 8.414127904320644 5.122133383490217 0.6747767687081023 -0.23559686753684583 0.8838678766449359
Ni 2.0479170315325863 6.32862651317622 11.010592321895297 -0.7220241317308403 1.7385475617616897 -1.4570148509246779
Ni 0.9703042729057856 1.281766481396404 2.735287652726289 0.49479723342524456 -0.21486323453392028 0.3129755027273255
Ni 5.868493578416154 1.5254398018066404 8.318116023361009 0.6032545922983998 0.17089351382118956 0.6042259550727336
Ni 6.39078561790011 8.736108918556287 1.9988999523315043 0.18044619050663116 -1.3366699965853173 0.1016786453884249
Ni 2.431186756354766 5.138732910830977 8.88222772329111 -0.10029436344638856 0.5218077005758174 0.3188982959696637
Ni 4.884577822724115 8.59507728976892 8.010954858240606 -0.4111296799022596 -0.6135282063102659 -1.1017554998274768
Ni 6.364414527440757 2.468261842801133 0.6767444051083252 -0.34684515889157685 0.9145899883191411 -0.7160154636429152
Ni 2.7993264384063767 1.187495388711474 11.736612146592279 -0.0026716332948921733 0.061073727382869 0.9028665292346257
Ni 2.6503501482376466 8.685626058589854 6.368613716177876 -0.12649750420431763 -0.019037733357741407 0.012390146134236725
Ni 7.467287235074972 1.7361492591426844 10.451006671479426 1.460388138272285 -0.3376773763493797 -1.0469400946494936
Ni 0.23038869840109477 7.583660783141389 0.056570063220637526 -0.1498696032713548 -0.9032645360039927 -0.30852543737577187
Ni 5.716804251202273 3.5944314828776704 3.577030081789095 1.357425998185746 -0.1214771681715908 0.49714696460434377
Ni 1.7458995253834497 4.765509756636746 4.173382476898419 1.2608162826797962 -0.8423556163337622 -1.0376481278246064
Ni 0.4996830887906259 1.9695445211224842 12.282401123979907 1.388570027888718 -0.36499200500393275 -2.8410569090360553
Ni 7.098101228156119 4.63340429751329 7.758002580755468 -0.028979675061801706 -0.8752348835602861 -0.2503601418889495
Ni 1.6347946397016428 6.086656942992289 5.913529993365664 -0.6055698706951377 0.15980923098256994 1.7542364332518563
Ni 2.795381886251993 2.772436815269451 0.30558797401470067 -0.39101054055488144 0.2144246043346049 -1.372773170065778
Ni 3.090019561257834 7.790721992710234 9.341512486742864 0.661353553323661 -0.11649899823070903 -0.3667115587982007
Ni 0.6228021914215236 6.6249216408478695 3.5232823178563826 -2.1488727434847825 -0.34903188213025044 0.21374197644528348
Ni 4.191697791831215 7.7999537262734275 11.684585725958863 -0.3193245848738049 0.7230116924550902 0.4345436879508258
P 0.3484335884014708 3.2660058482207823 3.4955815614595416 -0.6636955711932763 -0.4037367298722982 -1.9392018517850798
Ni 6.790046520118113 9.14190703631653 6.668958028490634 0.3441853526712266 -0.305112555039481 0.1911304096933547
P 0.9914900365894238 4.270801803697176 12.663733758870874 -1.152962618828911 -1.1283792730625921 0.021538645402724196
Ni 8.983513822342617 2.7827796902845843 0.4689072484255437 -1.0917672782665133 1.7060318485221715 2.5749179070462946
P 0.8879446165856425 8.705709940333653 4.024511745167624 -0.20072910912538333 0.8789323870165314 1.6294749379020386
P 6.185168892218787 8.931475364343472 9.771674232739292 0.6303280514764241 0.3618251772401768 0.162348709574972
P 0.1581496888056966 7.065331814836016 9.765792590653694 0.8358065023613348 -1.5780814139214112 0.7472008881067841
Ni 3.230754885658016 0.349069716882706 4.116992048212512 0.15310739348236213 0.07305044012877096 -0.2866792880349579
Ni 4.425167129907811 5.454982287077033 3.570592868977528 -0.07048627894602055 0.9677200353749011 -2.894837959412253
Ni 8.582725100628197 9.173176408676516 11.900255503926605 0.44917943558612966 0.3055401294952028 0.4538423882794377
Ni 7.025895552804279 5.077240490978249 -0.05213383097377083 0.37140510761912815 1.9742778695526066 1.6959405257244407
Ni 0.5314117329507458 4.817955633168269 1.768796446903074 -0.28976461182850094 0.3877223567219129 -0.17268814382776712
Ni 6.345312153979504 0.6446259354888169 12.115424342289764 -0.9840570819720278 -0.27712018359161306 -0.23005716866553927
Ni 5.82061264134968 6.637653469984671 8.910538681535309 -0.5876292270563169 -0.5650076330020591 0.8618283803463932
Ni 4.349396542397666 4.744129543199018 7.830655490541714 2.1431620662532507 1.6449516933813992 0.579521510347518
Ni 8.493741189352077 5.474371705413369 5.721711792615005 -0.7827294200306971 1.7985805065848703 0.13621653126429442
Ni 2.920607527885525 4.362285783240159 11.667739895596258 1.0105127050603953 -2.1913314268696262 0.39139826291160335
Ni 0.6942541424884651 4.244689979576608 10.183770670629611 -0.47518331584905904 -0.49092386651276737 0.8073042811565838
Ni 3.4059170760441093 2.850975996897344 9.307605079385734 -0.32513476379767875 1.062500668091912 0.025523855302717335
Ni 7.391312938298638 4.27875572459064 2.078058595318853 1.1414607888368986 0.09212956824740907 0.48599763285574366
Ni 6.845140617110092 6.210354765129405 4.28586610393184 -0.15052112081242466 0.0612274793519139 -1.6020034719546474
Ni 4.206855613138083 1.1608465128891359 6.654390038104503 -0.1542152818345602 0.7625789132247512 -0.7328435909438475
Ni 8.98274528283836 6.0047935965206785 11.943270567384795 -0.04283843532176493 -1.0628948182065372 -0.15293692934276887
Ni 0.8775998896680899 1.5521442347015757 9.914338313509797 -0.6013779441009772 1.1927445267125394 -0.20620658730018682
Ni 7.421091529210605 5.186336062534465 10.075325116822778 1.5791710474411642 -0.6274337606477646 -0.3106972482161101
Ni 0.2433640527061132 3.531429762552726 5.573653120095335 0.958310312025227 -1.3490526865203862 1.074701323923162
Ni 5.6580526469309955 5.845539247921513 11.593026744367874 -0.1406362575985449 -0.06375410242850955 -0.21514991253640367
Ni 3.3666382257180634 1.0651031577803867 1.9297156557777286 -1.4235018067688967 -0.31134182377864444 -1.1964296888736103
Ni 1.9048853481317303 1.7062595540855234 5.389166601025051 -0.9565516774629075 -0.2660968358979159 0.696300244602175
Ni 7.871789021141288 2.0791401063320736 7.150347099226294 0.6053266443360801 0.3948016321661975 -0.4593535479056541
Ni 5.390100885795891 1.384167425704688 2.7545178074545142 0.19330042076148002 0.42516918871446135 0.6383326669484555
Ni 8.814018453361413 8.272485147734711 5.8195042777513715 0.8141493291028752 -1.445706367890394 0.10921274898194094
P 3.6911656057810656 6.886475079122225 6.5977959001524065 1.122640570806602 -0.5497622768072146 0.8040320381632153
Ni 7.999866592501464 6.82639936462072 7.8314823649721985 0.6429411122547444 1.148357773067048 0.6005749885837077
P 4.515854791410237 7.716349591527112 3.172767191134946 0.8463999616064649 0.050011041810804194 -1.805737686454942
Ni 2.1271136385195426 6.004302842379406 13.266144652746895 0.28231046954330086 -0.27024685351054745 0.8293064964592879
P 7.815055990507698 0.819958500897541 0.2984562977956718 0.4148559797139113 -0.6101528620801298 0.06542609081429378
P 2.5465324985781406 0.9489055404438592 8.638585885222014 -0.4711916781911627 -0.6501576846078416 -1.0447261177173104
P 2.3387490470655363 8.150287366557713 13.016498947032487 0.21859673343442354 1.1425607067692967 -0.6459341334447972
Ni 4.71948072199017 2.6519242652945603 12.386536374904425 0.3210202274086729 -0.04835576559556833 -0.5404263441182693
