# total energy = -381161.1179384039 ev
CRYSTAL
PRIMVEC
9.28976439639791 0.00000000000000 0.00000000000000
0.00000000000000 9.28976439639791 0.00000000000000
0.00000000000000 0.00000000000000 13.59650921791220
PRIMCOORD
 96 1
Ni 7.268896688652252 7.649795596368169 6.605279603086698 -2.3585377216472154 2.4554577693047324 1.8059032654985285
Ni 7.235611463874287 0.844106054353199 7.852745356801967 0.974548114040328 0.3689237359581711 0.037159896879748903
Ni 4.68218974370386 2.436305664134756 3.430467420076991 0.1449878496990213 0.2667185286423148 0.6666266287971422
Ni 6.676804283838299 8.616664954354729 12.367084855779142 0.28417940443123957 0.4038069209886013 1.2294133428884826
Ni 8.552769956860214 5.799813393539937 7.351836631532563 0.13730102257772483 1.5042449875562351 -0.8871133801654271
Ni 5.600566533077253 6.506810890533252 12.509209885754181 -1.3902728695124378 -0.7772210886179582 0.3232807413080755
Ni 8.34900827104389 0.5874781789844201 13.942811855854787 -0.07760206405519539 0.1336611118322924 -3.3451764483034907
Ni 3.608190826091429 7.261790019114115 11.453155076481444 -0.49473321295652856 -0.00036201132510905396 -0.44733595461948766
Ni 8.729154707867535 7.385548256482815 0.10669851457153157 -0.00639253378990512 -0.2630608772850695 -0.7853378041878216
Ni 7.419288679701786 4.386487262568663 13.378665848389298 1.3995944040236799 -1.732483357845481 1.5400504272906188
Ni 0.6677919055530556 4.787656435555448 8.744036909959162 -0.13762883823078878 -0.06663013842472396 -0.23875803887364688
Ni 5.3349721773970895 8.969601672123206 8.485119107739205 -1.4177651613954356 0.49246190042384863 -1.4990966105860764
Ni 5.371611007015926 1.9770197269249874 8.922274039928448 0.729195452668299 -0.11049907189353227 -1.2285664215071552
Ni 5.858533992429559 7.874895870327108 10.314379562761205 -0.12727089203523242 0.9119193834655135 2.4816539680841263
Ni 9.278978686016753 4.851820836208924 3.5706880484110926 -1.7331053077001959 3.4525989381542277 -2.281379172887342
Ni 6.390484464446263 3.3535491022876878 5.502737885270443 -0.607156241345651 -0.9195784426726679 -1.947209809691221
Ni 5.597593808564568 3.8748256353510326 7.6213057478197275 -0.06948894802975776 1.3014991051111393 1.526133045878578
Ni 7.947671882303267 3.7782027989246814 6.972031129051468 0.15064350532290186 -1.2428273023015435 0.5411570516367067
Ni 4.40645096562416 7.419650980501769 4.629474977306271 1.098538535552076 -1.4664364013488937 0.2537717386736597
Ni 8.839461366816337 8.087817263548141 11.444807294459261 -0.3503727124288611 1.7513699103373384 -0.6587955627884977
Ni 1.4221235375760004 8.728216441693219 7.810175012803913 0.2762377809866598 0.22233897408567516 0.27572047503060904
Ni 1.1861728191457632 3.8568499418133926 1.9263942284739688 -1.756377133743943 -0.18763576627653492 -1.307055001932362
Ni 2.670537776206097 2.84098636795215 4.924587558420982 0.0017223820077454206 0.34612499289610066 0.09057250817293434
Ni 9.078143275892602 4.431282505069179 10.740290164481218 -0.1915916656004894 -0.10614825112400428 0.9879785285136211
P 4.877646380412871 4.559397641801782 3.986006461101846 -1.6720698897544302 -1.0110747482114522 1.4228050378121884
Ni 1.0206570921379468 8.445445312188198 1.394947261671602 1.4017255914340698 0.07946997050186959 -1.5701783570242507
P 3.567928988472757 4.566996668837332 8.233080375836884 -0.06044123600519269 1.467698041670137 0.1212938485161911
Ni 6.6637428755106916 1.4202748745196747 10.621198175621021 0.550369057153278 -1.6144257568784002 0.37702631046064744
P 0.8726553573918936 8.587513674602215 3.511651597541997 -2.787157330804122 1.4029867175346804 2.6410711058346
P 0.902476429136171 0.8272042575457667 12.11439398243685 0.17945605867921996 -0.5136701590703476 -0.34261775107379056
P 4.307069069259474 5.653703983741489 0.746650855063296 -0.18953606862304131 0.742483942247089 -0.08580594002222641
Ni 8.275879248031849 7.771528665162603 8.612871943671825 -0.5934185800445845 1.3860086949194454 0.7742509502460407
Ni 5.470398358478077 6.16692629132828 2.8128866894959987 -3.3810348527629963 1.1878686866774768 1.0083792036571602
Ni 4.096878866684469 1.0123706225588385 10.822902178688722 2.3046823663896565 -1.4360999551488816 -1.3631374467482267
Ni 3.473099076518119 0.25797303321076853 4.333642439473643 0.9592011992706124 1.5742327295992824 0.31800200940763945
Ni 4.5979408730615585 5.86808386992656 9.815645571268112 0.4524190255693498 -1.430614506554278 0.43439404974683893
Ni 5.328162780310221 3.5876697371898034 0.6111289894120567 -0.5948529984982659 1.19704469674979 0.2999346103829673
Ni 7.239782567956148 1.7581621744426867 3.4885925450876667 -0.12509830986394582 1.727429340361341 0.160809133001994
Ni 7.511248054548863 8.786853432705922 4.401176237566966 -0.4156087987195358 0.3746284996524323 0.20142639230272405
Ni 0.37973954515597014 3.7411645094494514 5.347275540973963 0.9906954132241519 -2.5970101109596437 4.097542682661298
Ni 7.727857484118446 6.44527549312068 5.005881355102392 2.080722054650475 -1.772323372660554 -2.7109961129605114
Ni 5.82510013142596 0.9868423508061597 5.324188619227326 -0.172761934488496 -1.6693897718191055 -0.23885008436682087
Ni 1.1842869970330292 1.3098567384016464 6.164330731238142 -0.3469989108606218 0.09237176616520221 -0.19966544374755935
Ni 7.356443425550813 3.297699040505626 9.194884025458547 1.5427436578520657 -0.5188247066880936 -1.302200244943222
Ni 4.550340121802196 8.210033400075886 0.6991597230203394 0.36322077203612285 -2.3449774664642775 -0.11476170382462816
Ni 5.311459784454574 8.59292031730966 2.847570952747746 0.7572927251251474 0.6647216984649456 1.1102946476467395
Ni 0.23430550120774812 8.43033086599402 5.680580200265389 -1.7902825282421362 -0.30985572615142115 -0.20923534682418157
Ni 2.819211160896735 6.879042448341872 8.901851422526304 1.025875817780027 0.8000555700139704 -0.4024568347186101
Ni 4.157578185327847 3.465834480990246 10.055501706526888 -0.6063774541980976 0.8723272229951881 0.24019914219554758
Ni 5.807152307180628 5.587384357816317 6.0771091360831555 1.3525668703212317 1.0682152019781863 -0.3611672319412038
Ni 2.264157045558012 5.246830895595991 10.558178273904929 0.4243091547070112 -0.9418789059420811 -0.2741204775333408
Ni 1.3443124734564813 1.5169441597665365 0.6684533367571279 -1.750091043624915 -0.6811574754234655 -0.4775096499893905
Ni 1.7399542368024934 2.994462560683594 9.56364864330425 -0.2805099259994524 -0.16317249102784803 0.1924018202066106
Ni 2.1958401203508795 5.563500374309717 3.6876452494806164 1.1896427478587641 0.082829888113038 0.7468591884966492
Ni 2.388082498680551 7.968378766486936 5.58952471946545 0.13058067313475574 -0.8976204503443379 0.795975486407326
Ni 3.3328607976322235 2.3601295984972133 0.4093283727976941 0.6711617976633344 1.0489684379334323 -0.30723114404438057
P 4.90942666340629 2.7957266372465273 12.035820228684544 -1.265628616466775 -0.6046751267950102 0.8123678117224202
Ni 8.677652255685274 2.379693841696319 11.8833352537828 -0.03620036117995701 0.04921322849985718 0.023366699750398467
P 3.230608364159976 0.43870167791224846 1.4365802684717497 -0.24461115522031424 -0.48078189298275914 -0.06599636149546698
Ni 4.300092456418767 7.198508146050342 6.993187637817679 0.0004954515791797919 0.33084415547763024 0.6277394648136415
P 7.0284125653401714 8.536178438173794 1.3777611980826443 -2.4481278113022227 1.5982730583779376 -1.3529155119099023
P 8.782124942777932 5.575818601509154 1.2731510224812734 1.136136805520824 -1.1361082662757336 0.5160774829602596
P 7.900145449156722 1.3100518234477916 5.841563451367771 0.880367062580529 -0.04163155949785734 -0.21366510046076104
Ni 1.8900768246930653 5.803380662955159 7.069150967857282 1.0089402183669527 0.6340564081706048 0.8718220012239952
Ni 0.8752741418922866 3.721061459932422 13.22420958554508 0.5024511504260766 0.7777075413360734 -0.860884528375885
Ni 2.1645243255625677 9.15872268971456 10.38982638191673 -1.0179771317582404 -0.22411149260506563 0.30795208137080515
Ni 0.09917659257802935 2.299216615279486 8.110371881811725 -0.031724327686474395 -0.3574221630764748 -0.5823157852632036
Ni 4.471702268677587 2.3310247675652107 6.4681580400570695 -0.8866238421235182 -0.6587076310603818 0.14566225005822656
Ni 2.5879889323944876 2.407163674146345 11.485460231146634 -2.1677904063248925 0.2636560876669072 2.6464143724243843
Ni 7.683396673125607 5.940739114969391 11.955219448405153 1.2809374789097037 1.7790504069717423 -0.975363667963088
Ni 2.4653454667180434 3.0332566155741274 7.343066165243733 -1.9232823523413456 0.7377402569145165 -0.5780963478652174
Ni 6.948669230287407 4.684400707560169 3.566418472829749 1.2056563496782011 -1.241638424199765 -0.617971329683284
Ni 3.25381419488712 4.096154265084502 2.070231361973033 3.210334943009852 0.9785520929933986 0.2482443810975273
Ni 2.54336090564781 8.573904170192582 12.927587417763771 -1.2827089689878297 1.0508705400521516 0.2769551187686585
Ni 0.8619191770190512 7.309093497922209 9.6330859140621 -0.9229244763267653 -0.9860692273060502 1.1215169987251201
Ni 4.676513697837453 0.7345741617305149 12.953720453159498 -0.37599452676202344 -0.486520081018117 -0.3515927008788912
Ni 9.027662697761578 0.9378295554032725 10.03748699598002 0.35473998825862135 -0.648143225280974 -0.3361519408437888
Ni 6.4869958237033885 3.793372983703475 11.085668730176195 0.2230635109565255 1.5064954741533088 1.6234228181706882
Ni 8.863577594425491 0.6244254287714487 2.383331713318717 1.0449045522767038 1.7332791142738986 2.998157997058843
Ni 1.0054125892463361 6.464644651273641 11.943417732089795 0.28801780434072327 -0.30546145373846745 0.8843738697470768
Ni 6.721701713743938 6.375834506457188 1.1850608343827371 0.9377471431618947 -0.24228353552840212 -2.6915899405197576
Ni 1.9220243234403223 6.23849463397116 0.6596986630672718 0.42313081812819386 -0.5280855631647292 0.027880528460351987
Ni 6.654518139757267 1.8793192778627879 12.956154371354259 0.7369128759172147 0.7724066979484504 0.43492112589490256
Ni 2.5640306307750698 7.78732126413624 3.044176733276193 3.467555302353744 -1.3471428710921833 -1.3500232779637718
Ni 2.3319258746831184 1.7588310374580407 2.993216803317497 -1.0294342245552464 -0.07837853720990372 -1.5688341842915303
Ni 6.944098666349155 5.892135069186998 9.75189177818795 4.072343814798167 -3.9048156179047844 2.539169802912408
Ni 5.505160655748282 1.2682757542804708 1.536880922506138 0.4458429150137289 -0.3318857093682671 -0.05651721836043815
Ni 8.352668438100133 7.610583502093038 2.564287957240699 1.1967816728963907 -3.165543240616458 1.7320295581375138
P 7.17287768689254 2.79152766387236 1.4447924199380409 0.09270035314921454 -0.7796551519807476 0.11845149397138954
Ni 3.6715655967962237 4.804638124334159 5.869354709655731 -0.2902214968602615 0.029411363282581607 -0.3226503068129282
P 6.044264246123632 6.87551233798306 8.453412213882194 -1.939992723117491 2.508175668523738 -5.455689618173468
Ni 3.2265487372473407 1.2713135071418704 8.669759672104096 -0.6410978883984184 -1.3119002458398052 -1.128239147940302
P 0.27169494376603853 2.776803387770469 3.5367915571552064 -0.1232946809963038 -2.778484742730789 -1.0563711581554065
P 3.7878827331191105 0.23631209025381023 6.522313648866901 -0.1925907962889651 -0.7001368447394458 0.8258447631629326
P 0.733606168311072 5.784754685930369 5.4316693319362574 -1.4738887438618808 2.2137943838588323 -1.397871250684986
Ni 3.5932993342356996 4.4846800691282755 12.553425446974725 -0.3040247212919409 0.7705668165262342 0.06404052332067682
