# total energy = -340861.0754222498 ev
CRYSTAL
PRIMVEC
9.29339958165138 0.00000000000000 0.00000000000000

0.00000000000000 9.29339958165138 0.00000000000000

0.00000000000000 0.00000000000000 13.60182967897597

PRIMCOORD
 96 1
Ni 0.7361608465392185 0.3251240072016522 3.7470996277228394 0.9527865539935203 -0.22542815453396015 0.2746264706354819
Ni 8.240838409977027 4.2612560284623315 10.526197809348558 0.17698162899679842 1.1602352412309245 1.0908481088863535
Ni 3.5271518112434306 3.7512807281801868 9.091939092805259 1.5605984266452995 2.741974820730213 3.7205433687838436
Ni 3.762600088831552 6.518464791258289 3.641182753056496 1.406918705599235 0.742279796656083 0.18681147060302666
Ni 0.47820395524206155 8.266051402954984 1.6684272930134476 1.0287701086086865 -1.7273516930458706 0.7383138700297993
Ni 3.3317766725130156 3.003152771040999 12.61345259854197 0.722051642534666 0.7704632010688344 2.762329216016849
Ni 6.156143023019565 7.02577288586971 0.37284933124846636 0.11416803610468726 3.999906325663047 -0.4448142166388984
Ni 5.107364297052538 7.887503359102728 7.980179927430813 1.5424436101131433 1.5737501335359092 0.9476775149017292
Ni 6.517414637109189 5.39123118629387 2.514475154506582 -1.0152175667352323 1.7986249866695603 -0.49172450803719187
Ni 8.203711278776533 8.176156349112084 8.160662393383056 0.3029908807107879 -1.156487601263034 -2.022858606674787
Ni 4.502614908163973 2.3707183448942923 10.620771160524708 0.7632558846871178 -1.262257386001697 -0.2865885280933645
Ni 0.8677916284192416 2.7353820498195054 0.9459212384323988 0.21900708149896475 1.9536244549683128 0.1707302487704479
Ni 2.878370295289047 8.038576862180387 8.497784179403192 -0.15646833953479503 2.631797650952474 0.8377358581735637
Ni 8.70725554657038 5.467911025977296 2.0133016329378264 1.0607057809750184 1.1793339097335882 1.1863993012208018
Ni 7.582122249904162 0.40360119035796277 3.8204143274293685 0.021017225681615417 0.8651767279933359 -1.0684093202668634
Ni 4.138313645821193 6.198427990970066 1.270239507893104 0.0005162775147862077 1.3187679194939161 -0.026619145249425123
Ni 4.668093180543451 1.7155987304471079 4.089526086205864 1.0891645505363436 0.7695031511484102 -1.215653827210545
Ni 8.930343602757585 6.9919542049088586 0.02588862312521131 -0.6480604357591806 0.3398062497669245 -1.1501246351594838
Ni 2.0485068891114726 5.84968387947325 5.179970839713391 -0.7826240048010844 -2.8370475307663465 1.0849047468187252
Ni 2.153169154838625 4.750860196931839 1.7902321635497203 -0.44914523991408456 -0.2598729664753912 0.9239470040540088
Ni 4.365184115625069 4.279731306766858 5.58166037778401 0.7030059387571247 1.180563154154999 -0.2041579323012742
Ni 2.385281101988454 2.2724034710594894 3.0940896149734054 -0.5140463114628436 -0.9002848845503786 -0.38823812001606683
Ni 4.785162134669267 8.924656042233254 5.485713462154435 -0.14872649080584707 -0.1715159778965369 0.0951441867040168
Ni 6.321045104626971 4.929730258062234 0.32360918307507386 -1.0069085326489045 -3.552944980774159 0.9771845232219107
P 4.913977945825729 5.494415801492643 8.183663557268218 0.1748177885762602 0.7676920660816005 0.4180757722027897
P 7.794643710803517 2.5432781877305355 9.282745596317108 -2.1067552454894427 0.9191714370422363 -0.2945121538158154
P 2.02635142458532 2.389528185582603 9.156533795714434 -1.4146731527336733 -3.0210968652432033 0.35305334458481774
P 7.212514456418583 8.987228501400446 0.7503843945498213 -1.0413769987394195 -0.9317287048819568 0.7510156338671841
P 0.6413161280962217 5.107866140628214 0.3416913505786541 0.46316700811447326 -0.6781461994009675 -1.8110449576004681
P 7.364916915631829 6.048618390231147 12.460391237300659 -0.21464803319932066 -1.2896131523068306 -1.413412797964011
P 8.838459761411078 7.370437194964269 3.5574362123555843 -1.4877274495171862 1.3784457949705227 0.19684314380741583
P 5.4039259700785705 2.9221886741652257 12.69606999119761 -1.184827585858308 1.2006146734892356 -0.23378012604308124
Ni 8.666057906367177 6.019901785623005 5.321117133392209 0.26255077041787045 1.8673660007897 0.5536577552068787
Ni 5.256718521213529 3.3651678570945873 7.650662000922128 0.37191624292759173 1.2819713194908569 -0.746838876781675
Ni 2.6565554348401315 0.5150178988777364 5.74813304391529 -1.6586471885906207 0.6337481329015666 0.4736943900083584
Ni 8.796184086860126 8.952341079491395 5.699588042028205 0.32592743490230325 -0.010390342095388557 1.1599992139607183
Ni 8.424726906864185 7.061561767535069 10.990523001703306 0.377761131744143 0.3146055821315808 -0.07792370906067225
Ni 5.070348686646637 5.0996879490246005 12.053845897965397 -0.2604314100820225 0.1728192700889927 -0.8585006015247408
Ni 2.3270300736118075 6.014790415870746 8.937164028687008 0.7086659652563795 -0.8955242299369416 -1.2293863463052892
Ni 8.629776474525693 5.3825046841168325 8.379338872804084 -1.5262225202685908 3.2612831519229446 -0.257149396896641
Ni 7.630763903146564 3.430881485309531 1.7023231091905604 -0.27797867493716644 -1.7133456085747654 2.4562954347146797
Ni 4.6686693713155245 0.29320675578864086 1.2360147053719368 1.3493684179885923 0.27431331027043726 1.0243665802243518
Ni 0.9803514250836113 0.49742735221032786 8.133227348572799 0.3312768721396746 0.19682154654086104 0.1578117409365669
Ni 8.067256293190331 0.24224918737848952 9.88684351789725 -1.3144206982688138 -0.9496986590968161 0.3725880721836357
Ni 6.264820037352128 2.0641755607520316 5.943428259409579 0.6085814038279519 -0.37715512272902785 -0.33316560452195526
Ni 3.5333690955420867 1.0098022082561693 8.264063544791334 -1.431140297150761 0.6434427344815112 -0.4775070788862293
Ni 2.8238087465335755 5.269617759788319 12.982225844748 -1.4109843910281763 1.8873959228573818 3.0426753627449274
Ni 8.163405804930086 3.8323191722523564 13.211280263446021 1.582652064011229 0.24093627747188825 -2.2983160578519963
Ni 0.9734278424191886 4.313986777506539 9.387996134235749 1.771942849392684 -1.865401935084794 1.8636551275970161
Ni 1.7792492239620497 0.6947903491043941 0.2761134059971338 0.9157948072605194 1.0229876975989542 -2.2133326137310654
Ni 2.6646499858477988 3.5648737200150973 7.172666217829977 -2.118634513425532 -0.25607467577522347 -2.4567119534268076
Ni 5.990859912030627 4.550587436638805 9.873446153106602 -0.5454690487484993 -0.4307921913281936 -0.32301900300625663
Ni 0.12272491709167911 1.853048109785111 10.374142923278466 2.7697195949436493 1.186075085112164 0.9724089562101381
Ni 6.790900799053662 7.8294939591143695 4.996101858965287 1.5612604857093304 -0.8468136521051158 0.08501918245487293
Ni 2.0250038816506333 7.675093418997967 13.055457833198536 0.7528861114170194 -0.8268420940791953 1.7054034709095531
Ni 1.275063711599281 6.188967310228613 10.99154341697385 0.2504046219736397 0.5750907282696741 1.0271582840368763
P 2.713087184300109 8.661429793391497 1.4445827541029082 0.29308724844383066 -2.3167750358881323 0.8859628115007516
P 7.739413037280478 4.275521396770907 6.292124974568692 -1.455271900091642 -0.4713027498477303 0.08578768518978129
P 5.592182364754022 2.2571065354009123 2.1513058282289386 0.39382384163396045 0.6216207535104132 0.15193394199955124
P 9.172994264996616 1.4770557508089832 12.671600470183616 -0.3427879581030677 2.3160003625056373 0.1120497042101038
P 0.7155908359762209 7.763352834520147 9.288553041695629 0.8238958669666779 0.12415780032754747 0.733652202888072
P 2.604261475574753 7.826975447836438 5.020897578303471 0.34459235830165813 1.4171177576194238 -0.3759387338234235
P 3.9703168621637834 2.1896364546711014 5.983282074037915 0.22043430086379454 0.23359140707104284 1.7634602658429694
P 1.8348888070652696 4.106065549384216 3.9031404528597387 -0.05380676140781056 0.6111807891240119 0.10452357103638774
Ni 8.042387155995707 1.2919312317817337 7.619962184850109 -0.03417073234443792 -0.8837056400354587 -1.3209890955149508
Ni 1.4889048352346732 6.745846398037392 3.1703140780789023 0.4483937064600406 0.363493051860903 -1.1434215121076952
Ni 2.389398077988909 1.5640698507915205 11.414383803079312 -1.599577636121974 -2.7369524278149573 -1.9496281893247258
Ni 1.0047651857003073 3.430370348334305 12.0575595404254 -0.4467083483378178 1.2110821486794627 0.40123221828288963
Ni 2.717473668887502 8.458554881224586 11.074990710209264 0.14554963573976223 0.15854707644069468 -1.3330802223515297
Ni 9.110421805829425 3.3626865194148543 7.682666610290905 0.7542351692457462 -1.3613417883003844 -1.4443339130228998
Ni 5.718358850438408 1.3077950648128338 8.391921206454235 1.6524747412313219 -1.1865702795810276 0.48553432006608
Ni 4.101799878990969 4.180115356995117 3.291819701149679 -0.0691693599068099 -0.7263081038181749 -1.1917297122947799
Ni 6.503771926570433 3.7426750401972937 3.9154495605631316 -0.27917912300317077 -1.625488956671097 1.8206272019722645
Ni 6.786746649455008 6.322299713566161 7.18602362100256 -0.21961591872755723 -0.8778270697674946 -1.0510764854153705
Ni 6.768782508125707 6.89481959281685 9.54834816742369 -1.4899157154177567 -0.24602706173123434 -0.06955811070479634
Ni 7.01160045155663 9.206506263772333 11.994365352828343 0.19652946922173894 -0.6811052820292914 1.4893264185731898
Ni 0.8068204219944387 2.2951908867550124 5.834273564340169 0.1291861067800743 -1.0425185685430303 -0.8330327962709395
Ni 4.432161646178753 0.4712431989794405 12.607358916457322 0.12455092200090809 0.3447167996946644 -1.6003656792409082
Ni 3.4826643075996837 9.283920282020173 3.337167773591716 -1.128688833883211 -1.7228576618302587 0.5247382439590511
Ni 8.960965354273387 0.8682888252951433 1.2087283549544714 -2.6581010647336933 1.005259684191572 -0.007659830538102938
Ni 0.3488955939094736 8.939172332329669 11.888774676486188 0.24642763960376268 -0.5377955913636415 -0.8537072939011555
Ni 6.817312640573514 2.4926384535849793 11.312478888998513 1.8705742233143527 -1.0589409757651118 -1.2941434360770163
Ni 3.7073508285094134 6.682902202888217 6.7451196541926155 -0.4114657230854397 -0.997244012975947 -0.7627810019332283
Ni 4.291385229802007 6.60581345362461 10.370388389860443 -0.015181849946760952 -0.4437140415961842 -1.721346624502371
Ni 6.8189482788942355 1.8343590832909447 0.06915032736837144 0.3516384665151622 -1.7934007621561439 1.425247842925726
Ni 1.179295229241058 7.276174243333074 6.936321127185323 -0.4393894460789013 2.910239638679304 -0.12389863312888984
Ni 6.115949069967715 7.8617885225490935 2.760355273089085 -0.5116904096361575 0.24796413085294716 -0.9671389660604505
Ni 8.906580380109359 3.96107922301152 4.432931139661457 0.5007573076634215 -1.639964524579453 -1.320577719009145
P 9.209461564829091 2.152072533691777 2.9521004099554418 -0.1361728225105526 0.7243597218425526 0.6794050115087332
P 6.591241403130899 9.088954052869939 6.675342951694605 0.5192132003757639 0.8810077814883214 1.1038398931603313
P 4.437217255533715 7.543601108771234 12.230384245148805 -0.46955851346311384 0.24768285216710245 1.3338651801466705
P 5.867973289786786 0.19817616935465274 10.22765106617874 -0.9284855153543107 -0.008678501610604409 -0.009190151139700302
P 1.179313816040157 5.29390141281132 7.101461119821197 -0.1089057592644834 -2.691579398996797 0.8887540010926435
P 5.784081772052901 6.138197468489364 4.3338560657434995 -1.0294486227329496 -1.318346515685781 0.48604751225707254
P 4.045667745711622 4.119680379724323 1.029781158607815 0.7821141550442013 -0.9727431996211053 -0.5680834437139055
P 2.761663783745663 4.5976863855559795 11.14214295667448 0.5018723951044711 -0.7416071960690905 -3.821432428391438
