# total energy = -381165.9927757811 ev
CRYSTAL
PRIMVEC
9.23398349490499 0.00000000000000 0.00000000000000
0.00000000000000 9.23398349490499 0.00000000000000
0.00000000000000 0.00000000000000 13.51486823014612
PRIMCOORD
 96 1
Ni 0.35053032548293306 1.4764677969461626 0.5648510832747367 -0.33221635323480847 -0.4911796912773153 -0.7704089507921312
Ni 3.0235940358838325 0.3703769262895648 8.958925324730911 -1.2222101402718242 -0.722815260173568 -0.06995303215036985
Ni 7.54187451822366 2.2934352560100155 4.579648613499179 0.09130681523579759 1.9485627241746892 -0.8715229819263378
Ni 5.495208238139029 0.1118780210827106 11.006333093693211 -1.3959503795131896 -0.3385970599501717 1.520746584755684
Ni 4.093591111708177 -0.011010601964280334 2.6655241628465256 -0.3525828327063024 -0.1767805687295859 0.44057009665056385
Ni 7.355735878173373 9.177868614679138 -0.22017787354653606 2.5600134791306366 -0.02681686308252801 0.9087877798150671
Ni 2.8525529589093566 1.767467553992733 1.1399685094410255 0.39208269057313766 -0.06614342859629253 -1.431284278927793
Ni 0.5442685339805561 9.029210713787702 6.982983971319221 0.5550816321375989 -3.819669165843428 0.9004352940853138
Ni 3.1962787619271116 4.9774033775645705 3.8682394371883206 -0.21631616493036296 -1.3282290649068156 0.8135155521736183
Ni 3.1990766589374915 6.1321314862841145 9.488450880603308 0.6981020736976042 -0.1214357734106941 -1.0941550617723994
Ni 7.682341875721675 5.289872146324451 12.341791498307996 1.055306464336318 -3.3885872111889577 0.6120315671600814
Ni 1.879244924654938 1.3727332259408578 5.316181612205554 0.1085496614766453 -0.3880110916069253 1.390122974198135
Ni 9.029266117688897 2.9698153157899303 8.337930698179573 1.4561309056578278 -1.42678304862333 -0.583328542798434
Ni 3.156230975346196 5.292817787071352 13.090515202074117 0.7868475559641288 0.6799516280408225 1.5435746383937932
Ni 5.525255620554131 7.648166902667497 4.610880716001516 -1.3644859903563211 0.4413254867593496 0.43784652707181365
Ni 2.391333949422713 2.8443993514500647 9.160661086366124 -0.5387206742810723 0.3884798037132277 0.09783818859641215
Ni 5.928909976698503 5.630523032825848 8.129193730229936 -2.9119725622100106 0.5802033669058911 2.8268646766960734
Ni 3.6617546378222876 3.942412333312338 1.7962609614441074 1.371130235145716 -0.1996399898262626 0.18035440212377324
Ni 3.587273326648281 3.105702617455772 5.356591370940949 -0.15685246234709116 1.1455966653821432 -1.512500285586492
Ni 1.3758358444078136 4.8286254348872095 6.144088571560487 -0.6425698449582545 -0.792876535767028 -0.20512826663434347
Ni 6.49948705316181 7.026452025400615 12.576706809572572 -1.0024196436396156 2.7932775847692475 1.5066335423930697
Ni 4.429006329546586 5.812506380286463 6.057147846405933 -1.5170565374986065 1.6225018490183154 -0.6781976214641933
Ni 5.249381128533971 3.9373798122870673 6.810669528015599 1.1050940772824067 -1.3025928523959502 -0.11229601589295499
Ni 7.2974140381814285 8.994370893919175 6.1437376801862476 -0.18810936347884377 -0.6230824256576043 -1.2170519931096524
P 5.309660573034828 5.750389373062617 2.993084030893746 -0.46297648937022196 0.21324678197641983 -0.45011068915114744
Ni 7.511596286220243 2.682102856880968 12.684879233063647 0.5281472696406 0.12779899662456057 1.2019884139083106
P 6.737769998220728 2.8067985705052902 8.442522182856703 0.4822700474925114 0.533711651102255 1.2878858852030788
Ni 1.4429576707063325 9.044594530353024 12.02815186043618 0.22529034340451523 0.044713540857290734 1.7630424615792604
P 5.042281345864666 1.6787843761455772 1.8809319734463454 0.9302909439941657 1.4843868151797275 -0.4494553149553357
P 6.722940220667361 7.74509602780927 8.27762724532153 -0.8614673974625486 0.6401370671470459 -0.30198223694061543
P 3.130902158516256 4.229607689143474 7.1276740294866965 0.2769708024979423 0.20945620458573605 1.7728962144448885
Ni 0.9902431600532194 1.2825079728437572 2.81115978092774 -1.3929234197614075 0.47399212375443533 0.2529117046662096
Ni 7.674963922879122 0.6632151694574773 8.221553880319776 -0.34234675680059107 0.527697069477059 0.69591406490735
Ni 8.908116253741095 7.763176167566114 5.003136642873239 -0.09302225526500754 -0.1340632323667175 -0.4355297060131789
Ni 7.436644041886073 1.7902754933182716 1.7424859349436186 -0.7452327086368198 0.48458712566146217 -0.5418854451622991
Ni 8.075007791462246 6.971085060139104 1.087990416135982 0.035603865246538684 -1.396863378245762 -1.48652777278213
Ni 0.9958204861069139 4.989444492091089 12.210777893150665 -1.4669621919453768 -1.0937879082409678 0.591398207180446
Ni 4.8770207425816015 1.1339239438205813 4.79672386857876 -0.9199209136137513 -1.3909107602067527 1.3413427194706382
Ni -0.24564612352781884 6.600571470893257 7.300299658035367 1.4518744443743188 -0.980528242883163 -0.47678562733917235
Ni 3.2738534575845417 1.6401032191274874 11.18751308458649 2.433662527806512 -1.9878347823014346 -0.5030062515985982
Ni 7.439423470929388 1.422467461247478 10.563234853490954 0.4143548717077767 0.2243845437607942 -0.5704146629502433
Ni 5.153689357185566 1.299978669687449 9.118711099177492 0.5458236038744406 0.9356041286769627 0.1603090534371239
Ni 6.633721471775315 4.139539413766428 1.695156228948889 -1.2971655107327917 -0.8695465749262573 0.3630973590843811
Ni 1.9917887159503498 8.770779216660635 1.4009107266906076 -0.8278759346603484 0.12467073540822399 0.1046122740954521
Ni 0.5949898821268119 3.3011675808739924 4.22442373078827 1.9382472011812941 -0.79901093079954 1.163681547908312
Ni 3.70002026558141 7.387934778751573 0.8132812528376364 0.8106415730599329 -0.009170610755674529 -1.188995344082752
Ni 8.336274121533823 4.340554001287745 3.12538115976211 -0.9824709684318306 1.7924304278230743 0.8685901245502589
Ni 5.33449998873754 0.6402299376481123 -0.1838384547523153 -2.309516040332874 0.9591304939336773 0.7762823788537727
Ni 5.530260439628804 3.048581195323066 3.765350699074603 -1.1700254878484686 -0.4060862039410813 -2.0948916612826376
Ni 5.428391133297086 5.587538839481564 0.5086087363743352 -0.8457646420153112 0.6777219673793554 -0.02711125439449524
Ni 6.677786041192915 0.4593500512196443 3.4672527788865177 -1.0636373527995167 -1.2924621917198515 -0.22573231603794028
Ni 1.2166327343221401 5.098082308352208 9.372818321816238 0.4335425003798211 -1.8290912735792177 -1.2322816655752131
Ni 8.957896658965378 6.185365401349593 10.353834885523678 -0.4507251828066947 0.08906018529346597 1.9949467107558676
Ni 7.810601906989583 4.833500978192426 8.921326390582843 0.6469803153211244 -0.8511300200922826 -0.4807955198295139
Ni 7.285437561539638 7.1321626688818975 3.1969962424475953 0.5126682001683945 -1.6774239549774916 1.712282971638206
Ni 7.555485409950723 8.467525963466295 11.142198233798576 1.3686789453917458 -0.8796985757585947 -0.8740174662134174
P 3.5169750100145456 8.843386029177521 12.379794880934792 1.2023936197665293 -0.1036393686592215 0.13071899848483293
Ni 4.70596119764006 7.948788470555043 9.323651053098521 1.4225525554817502 -0.03040817997821214 -1.0205286945355005
P 1.0580205991825533 3.098740193872186 1.767609757339135 0.8934303235223904 0.015213988736277023 0.9011983975035833
Ni 4.37578164846464 6.989922386545622 11.420266720306083 0.28425062398880724 -0.3695744821682926 0.9883359118530398
P 1.5137084525331657 1.5170880905060997 7.525132382680691 -0.08572006517663947 1.476128174715361 1.3737165078156535
P 8.671892487009949 0.5652389105831062 4.150538011552116 1.0430813830250358 -0.5975151187114612 0.8762270722702264
P 1.450252517697092 7.655120092267549 8.550830345905707 1.9223495561144315 -1.0497929907172565 0.16655966233252606
Ni 4.923920144943712 3.199963121356622 13.3805980245559 -0.29464687962146674 -0.09983773552494418 0.8504425071069547
Ni 6.619731986723416 6.137598004535418 10.445925403294366 -1.4241875199820118 0.7040847736436002 -1.1616647745885993
Ni 5.239925529396581 9.320044259130684 7.149406209730687 -1.1308881555273749 -1.6623313223104275 -0.2392951423240395
Ni 1.8324932660293498 8.725957460593362 3.9439765701227616 0.11933261102476223 -0.9278275700553377 0.10231859296526895
Ni 0.6990079364265677 0.10742354742658108 10.00786799470256 1.363674293088303 3.0211742554483583 -0.08833204887818981
Ni 2.0298327281046897 6.772886837595232 11.4323355367832 0.4145847283303956 0.9117059819031267 -0.5177515282285728
Ni 6.838124931253098 6.468682484097034 6.495272663077528 1.2643880591914547 1.3661641493896923 -3.399437009419268
Ni 3.5536339246389943 1.9195512627747668 7.227940316277155 1.4059882233651657 -0.2961157508575094 0.42526689063459017
Ni 6.044778002065653 8.174374688256627 1.7296193022892843 -0.8807838384029735 0.17700348337366936 -1.7912711174076505
Ni 1.6121057810566235 2.770896842530515 11.790141317891473 -3.9634935913619675 -1.3127006302539133 1.5578458036008267
Ni 1.8509519991110308 7.021696523881322 5.652823103057094 0.304946718885578 0.13300342364363543 -0.6634050365360511
Ni 6.250585027040395 4.894288291787577 4.785844389180642 1.173754358763282 0.8035185888619064 -0.501744097056723
Ni 1.7014261037675291 5.0758468760056905 1.589659813885563 1.22752075385146 0.395304539944545 0.14116461929818913
Ni 2.8793776810715794 2.0426310292808827 3.4641584710047413 2.6580612126346934 1.4726623276539474 -0.5712692976410548
Ni 8.82439172505095 8.856923049036324 2.18251572241799 -0.8441692725037333 -0.4682202542676646 -0.3160083760163783
Ni 8.78769587449237 4.242470628204396 0.8949059736724674 -0.3981713199693788 0.31453102013990347 -1.8407944209487588
Ni 4.815383902501451 3.74670728632227 9.12407696700829 -0.6548646031652077 0.0791884347057088 0.860494749136634
Ni 5.6424164036158455 2.7125750025385704 11.296456545702537 -0.9575922029122799 0.06469666884743697 -1.4588012534011392
Ni 0.46777144420138167 6.536616900946423 2.9705004773680495 0.1902588057216788 0.3722916239891395 0.4338096379982787
Ni 8.721109619238742 3.362416593645773 10.518460190739699 0.9379173501911717 1.0920539562689968 1.6889993185199172
Ni 7.929664890659015 3.906667583057617 6.516950362818676 -0.07584265816192745 1.1540136858012446 -0.8939111198135508
Ni 3.4039695195425037 7.637280036082554 7.323761363395015 -0.32366152168626194 -0.27041911742235364 1.346396994065094
Ni 6.406223819482482 1.9806063618923626 6.55338673843999 -0.05373477051929456 -0.32275366516001186 -0.4450839253605174
Ni 8.930757981363048 1.5847085519153792 6.218961403636276 -0.8985275355396396 2.529689374225798 -0.43624113025790673
Ni 8.682511568072446 7.970516033807268 9.147795377110144 -2.8637070423354034 -0.9686438327407512 -1.2787391857068042
P 5.481181817152999 4.838745880838947 11.819725154333238 -0.5807520403205095 0.07940029360619873 0.4860881356870209
Ni 3.055238897450076 4.138560611511972 11.242627038699206 3.02759558559367 1.6803367577489126 -2.4507490509751535
P 3.504693811916179 8.645704909711476 5.489239391183552 0.5195050205845698 0.22250558157052647 -1.2371086546502115
Ni 9.157563084890937 7.126225217470431 12.425502176022842 -0.02652504287372206 1.146284178367471 1.1450155960676924
P 9.178228740036909 1.3860578641784094 11.997148760725453 -1.4145271140741122 0.16752408312832437 -1.2732025721592912
P 8.747509578158466 5.575645468691566 5.137690557316972 -0.307871862952173 -0.40946051972995284 -0.3962645898649692
P 1.1342471332442223 6.916761535016779 0.7549501788621594 -0.6626925838500588 0.5001698105910676 -0.663361070671993
Ni 3.298212706143558 7.008953626606325 3.1028788652915007 0.32557750776205213 0.6788113437887923 -0.17478924933116996
