# total energy = -340856.6512779078 ev
CRYSTAL
PRIMVEC
9.43352997600153 0.00000000000000 0.00000000000000
0.00000000000000 9.43352997600153 0.00000000000000
0.00000000000000 0.00000000000000 13.80692467569716
PRIMCOORD
 96 1
Ni 1.844264530495113 8.519430293219303 11.556147718527532 0.632350995443724 0.8702076055490239 0.6077553083822308
Ni 4.644145640645342 2.765420425397217 7.1279770850021915 3.7294044187189 -0.7686731990479472 -1.4768491120417857
Ni 5.573914348353223 0.7538994096376895 7.921419021954198 -1.9872729962606939 -0.7495511335065155 0.18293964635244625
Ni 8.134164931786778 4.162969580640717 8.213987688454198 0.6211646398096012 1.9503344713631312 2.4790671811935563
Ni 2.681594078636947 1.2322737112597126 7.40368709020405 0.3790880780856826 -0.36312641255010364 0.263425716823656
Ni 9.453717661752997 1.806237971436971 3.6923722810746433 0.20542188661536234 -0.6266454604185143 -0.06510598847071368
Ni 2.5422891424891967 8.297864976275969 1.3975510419494817 -0.5019379582350839 -0.7148371270640979 0.23599718829905808
Ni 7.484590929398898 3.428748514390595 0.9353099631756929 -2.7781510135404544 -0.4626101071697387 -0.6316467702878477
Ni 5.877787213741679 7.954267516445976 4.693664125837106 -0.5401406945570504 -0.12112775525197203 -0.1716208789055173
Ni 8.638255035937327 2.5656748631305097 9.83753025957973 0.38853688220340826 -0.231256331179963 1.024044935218875
Ni 5.523709102184174 2.4394542329648092 4.366164041441698 1.106014789324463 1.5313423579936596 1.4847511404976816
Ni 1.0715263616316457 5.186677379169976 7.873978743401112 -1.172596848120071 -1.9845458271375176 -1.2408398395578695
Ni 4.881766825491668 0.005728039359986049 2.7065023710053713 -0.6648343127834099 -0.8214654031483143 -0.5524989590120872
Ni 6.622102156993094 0.2891659922622733 0.16833096432090752 -0.31521416224985715 0.1251903553571199 0.6767621745692473
Ni 2.4792825962353318 6.494711769118833 8.869070872308201 1.8891301319396692 1.5110319285710816 0.35941091137172937
Ni 5.03296744285309 5.027288457848625 9.559003402347416 -0.1379661669655495 -1.4813768247088102 -0.6838669039348287
Ni 2.243755655028527 5.2890311786690685 5.009069481537787 -0.23712230304243678 -1.1692428440461733 1.3125692468823715
Ni -0.0025385628981756353 7.150332664177578 8.788480226306289 -0.5587112584703862 -1.1894260038622677 2.142238011777085
Ni 4.87680478876019 2.3779570514961845 1.7332799944834203 0.6129365954728541 -0.05098163325418961 0.5016551368873424
Ni 6.9813687099998605 5.354433841519501 3.974406524726658 -0.08057528775090639 0.5091149355994974 1.8037854478245774
Ni 3.2937735684705025 7.287175449019406 6.109978458773103 1.0729964254169133 -0.5955425683661227 -1.2385009070120476
Ni 2.5159695940465734 9.330223321730635 3.810807419007477 -0.31186555749259837 1.5062579042212059 0.5591925689821788
Ni 3.125319024907803 2.862189575190921 13.759208068887016 -0.38292339267137276 0.4256957506418927 -0.39574522702638937
Ni 7.54220149654553 3.0958958451255296 3.460926284905932 0.27264466431876266 1.6029486094767362 0.36080470639546247
P 1.905525873716044 5.169744192985564 13.459749152142397 0.38957817898372904 -2.886059698998991 -0.2499369383086018
P 3.2862361780742098 6.98237809769999 10.833230851165867 1.2057995601242846 -0.3825223005782122 0.8660822705267407
P 0.5058079499467523 4.416505130441418 10.194370508694222 -0.13209222468327575 0.5859963194385843 -0.8590575024694754
P 1.4652818999811479 8.103298421928617 5.7512882944437 -1.386150105593316 0.9435894608752846 -0.9664020878944259
P 6.770982125997211 6.094428228073167 8.564421627408338 1.2746878984555658 -0.7494436613943738 0.46573116929722375
P 5.2603060800999675 4.8811725131074795 0.3714527869415986 -0.040704419697897634 0.03238792941240228 -1.5975852882822936
P 5.809441289560027 1.3725974686375 11.430296882734217 0.5989497942754588 -1.0433626617108807 -0.20915564262618175
P 8.222708043500921 7.862318900435132 10.621943365057028 -0.11627659780725781 -0.6655663058534279 0.16503731215072867
Ni 8.990040799727247 7.498561987192277 6.581830417816908 2.946597094262416 0.32366974921637803 -0.543235017211658
Ni 7.87352593396554 0.7779879282571303 11.934650182369193 0.8846770028097926 0.9364271387988904 1.9682005530102749
Ni 4.2752663206625785 0.3989203959739954 5.605680816964582 0.24346932830638718 0.27558883454875116 0.36225609413000837
Ni 2.272641123606059 1.1293633334960635 10.143519065726492 -0.36731011161414806 0.8251814185473207 0.16544714599463764
Ni 3.2379365049465276 3.4501531937512806 8.50658465554392 -2.1606165142842726 0.433572325176492 1.9276231458085449
Ni 7.12176793561691 3.8180325595638234 6.403789521161952 -2.4316298136471994 0.19849019249253558 -2.6027562694148014
Ni 2.671320964567407 4.51088759716846 10.536395399088594 -0.2500045583217436 1.1043443436005755 0.6519029494337225
Ni 8.35686227231904 6.345831800114715 12.521375178452665 -0.44162964826332973 0.9588052493837745 -1.1915849591867995
Ni 5.642807417269523 7.274194911866341 10.101933235834156 0.2224220207177847 0.14168321080582053 0.5411647649461906
Ni 7.627197601014362 1.8508208337809995 5.6352275759886465 -0.03054007757038611 -1.0508144900032355 -0.9428461549513569
Ni 9.497866581721269 2.7141774909383174 6.994146426259908 -1.8694028287140707 1.7326903316499644 -2.049787055634515
Ni 4.490454571388272 6.9449364174961286 1.5280261941035773 0.7583671891362488 -1.949163333873166 -0.17197234870766512
Ni 9.167060988446185 6.563906710992182 3.9304038244719557 -0.45273552836850417 -3.2772846695575235 0.9831980764058422
Ni 5.725199867483815 2.731176711832083 13.354291721303653 -0.9019776988717692 -0.25983414281765577 -0.378952838059399
Ni 1.3406461028399494 8.810794297950082 8.122669232241192 1.0888588463704667 0.3070185138129422 -0.552310497150365
Ni 4.998421856330909 6.697164754469064 7.586504183051299 -0.12746012522790304 -0.1679046063961947 0.1599115608883891
Ni 9.434567596040264 8.695195822460509 3.860112706423326 -1.0646467679006375 0.4013620589925346 3.3670133416729238
Ni 9.099582949016046 1.9401280614176728 0.411821691475835 0.03357140819754218 -1.8635749091783842 -0.9640898948214814
Ni 5.466740015071271 4.5706301420742435 2.3801616674356256 -0.27126475325210053 0.10062680708514281 0.7808409447587327
Ni 0.8225575836592878 6.445732881837792 11.195786876051466 0.3630863033407876 -0.6422091191847262 -0.9044930090944551
Ni 7.7335134830747085 1.134938549671544 7.856333325708665 2.058939411557744 1.1653219117252123 -1.2833954535318928
Ni 1.132174525408573 3.0496715485775527 1.721903157414673 0.9050388542955962 -0.0006708008147794899 0.33175201200388027
Ni 3.463822378587611 4.025164575748299 3.4740841724212617 0.048721890685735444 -1.2794570377094354 -0.05204684129391037
Ni 4.358394586209675 9.32680838390403 10.001515196672136 0.16040212737156248 -0.11933621056918804 -0.7899763314010976
P 3.8217399368175693 1.6736874427031698 3.744838744362579 -2.414178193829655 0.028752389542344034 -0.8844407184292704
P 1.2341509837113551 2.485867200110942 5.2955488044823325 -3.0549654929661902 -1.2633735018840113 -1.897395971492887
P 0.19179498326045513 4.736820638459082 2.608169141952963 -1.371136405793303 0.4176168302885001 0.48362887551325096
P 1.9686644893886176 1.0196608141988341 12.819301146587275 -0.14101215288072488 -0.12961393834611226 -0.18595992123600874
P 3.4329747357892675 5.083965105534389 7.1382492557187405 -1.2154923619320162 0.45542541649584145 -0.07634967970533302
P 7.666403351310972 7.2948732094241295 0.3860323074140269 -0.21639869734184022 1.0265751578398965 1.09034494399769
P 8.738778730634316 5.184111459035067 6.081646738401156 1.9301649383937918 0.11515611104956942 -0.1308814922046262
P 0.5573433238327927 0.15441839441295724 2.251881697691063 2.4227780196835242 2.5122475246002667 -3.830828010673725
Ni 2.999353100049612 2.970080856745862 5.777742742364005 2.4073190048159763 1.3958220814654412 -1.1339827352922986
Ni -0.013607866891929967 0.14851772145565936 10.112481808977005 1.905165588135977 -0.13632168938359102 -0.3798288129064491
Ni 2.1918146393564535 7.139861445979975 3.7265858073440725 -3.0531919460055352 -1.5417476124873835 -0.4942675861740197
Ni 4.2119390343918495 2.701130919075898 11.198685799792118 -1.4861045692017827 0.40224034783242985 -0.20038252441924198
Ni 7.852526896390888 5.196176943787081 10.444896762454349 0.3937991590436121 1.3659337785464412 -0.41869180852023374
Ni 2.0954416978188752 5.301794744634254 1.9012685216686762 0.8156053448231115 1.058975171437157 -0.481881553804841
Ni 1.2574612361134063 2.9342900442758575 11.93039754708678 0.22651701672276472 0.5270301253170213 0.13028165383709822
Ni 6.469628013094124 3.5660063745483637 11.285213909517967 0.8901480532266927 -0.7640076752514777 -0.8042464681668666
Ni 7.635310436735026 5.390083151040891 1.7547497652004693 0.3531093946337338 3.1300522467986998 0.5067333227411982
Ni 7.330107443629578 8.206765377956824 8.20013926654962 -0.9248756865158652 -0.42067104373379166 -0.34723159569671813
Ni 8.976296146651656 4.585204945781718 13.827220989462925 3.682924015769174 0.4944892152665226 -1.7428940116558436
Ni 0.10257265739295175 0.38342582310051543 5.8802729488723715 0.7153819438239745 0.9948598290144866 0.7081165205108128
Ni 5.061456703174497 4.923481894743739 5.761684987755032 -0.17442338135131896 0.14842747150818955 -1.0673322851526004
Ni 2.831577770640271 1.1049682251546211 1.7060387901688092 -0.772055999477251 1.326827813683915 -0.2661192044954191
Ni 6.883910912522891 8.263508060351942 2.2361833605715757 0.42537513407768035 -1.4562386348802856 -0.8574734458118071
Ni 1.2445373001397881 7.052006981949096 13.647882982445653 0.8343880247472534 -1.153314859962007 -0.08095889634257025
Ni 4.973272065596846 7.305391595271272 12.629856998979832 0.03117719693375276 0.2552673493825797 -0.6886967212233043
Ni 7.115305967630101 6.553209088076793 6.175713181876289 -2.978328363927426 -1.4907258700238777 0.28626482620535865
Ni 4.794082164999127 5.169668724746302 11.911661613336996 -0.6701842642414135 -0.978414796084586 0.6368144305317162
Ni 4.096312258312553 0.3092669577897079 12.329638683077638 -0.1872444443753872 0.4305759615523294 0.8899634480197124
Ni 7.265346260812872 0.4491926202053882 9.867256255672041 -3.732574588916765 -0.8383146134951691 0.46941298902418516
Ni 0.0707127968355063 8.805794527098975 13.475157879893716 -1.3790888278711604 2.284918296388852 -0.4569133138952776
Ni 6.9959340801774275 0.5402233537562073 3.7861491151816087 0.8698196260819858 0.14678710769128914 0.21777886551881848
Ni 9.31506363916888 7.644196821908127 1.8017485545538725 0.19380255720887915 -1.3060802967239185 -0.5632963067379073
P 6.1929708814895275 3.032002547060336 8.520833059116585 1.0916832031931392 -0.2971200237523076 0.6265346458722629
P 0.9125270450954849 1.9659759333649087 8.5491374222518 2.1759212629621425 -2.7553892943639062 3.3973636718300075
P 4.117443365305913 7.401377762082632 3.5709674679268493 2.5853673845143925 0.582974501893125 0.42022238623214725
P 7.42659358752605 8.866376656166548 5.9649643503251815 -0.1910522481572516 1.6232263858891658 0.4106923352545249
P 8.511741966344486 2.8973294740972912 12.2216549529296 -0.7523765187704526 0.40353309850192437 0.5669902106497268
P 7.233159056767628 1.7337224270360936 1.9322652142395627 -0.7637893885930845 -3.3140833264431118 -0.025810276194884584
P 3.8433521538362254 8.542608476202645 7.752367335948338 -0.26752508370401024 2.2957683517294787 1.101668339430309
P 4.676115873502709 8.674149617236317 0.361097601161861 -0.5835506861115692 1.5906682494474864 1.1087499288674387
