# total energy = -381167.0181011333 ev
CRYSTAL
PRIMVEC
9.26294265883137 0.00000000000000 0.00000000000000
0.00000000000000 9.26294265883137 0.00000000000000
0.00000000000000 0.00000000000000 13.55725289378755
PRIMCOORD
 96 1
Ni 8.830780161083833 2.4600338110760767 6.908939071095343 0.29523411958350443 -0.8887907678678499 -0.6095185709302405
Ni 3.9445037541031387 3.5186677497549264 2.6959544789945036 -0.07689141114141596 -0.6406181205485225 1.169897704021353
Ni 6.85014068936731 4.187878312056782 5.444199196137142 -0.22871428148439965 -0.6598839107566701 -0.4307847351290258
Ni 6.2643892412910125 4.280146484842663 1.0374783037199427 0.9272714404415514 -0.46009736805021406 0.9162869164055896
Ni 8.47562040995882 8.332239319049005 2.2986594538640266 -0.004799992491804636 -0.2759534169770215 0.07347364370911862
Ni 0.5271336937319927 2.2916057229558398 8.854038484048202 0.8790750832419828 -1.6038256127650508 1.6846248436013054
Ni 0.24790598954955326 4.545103699416235 5.678984227273765 0.0308043869753663 -1.0943052141970184 1.0055910993890615
Ni 1.7260197012579048 7.080473023921443 9.031679495032893 0.42352034025712865 -1.0562865688614003 1.1540124002496641
Ni 5.692597047947004 1.8402873630877041 13.09798724119157 -0.875750389744124 -1.5286691820368705 -0.3680642161713532
Ni 1.6535649630256828 5.507106619271442 0.8162310634202404 -0.8616296340720259 0.19817677501717482 1.8133777194987029
Ni 4.198465855626129 6.592010263604418 4.9611950879858355 0.28314350696755747 1.077454461188267 -0.22076237362717463
Ni 2.9814263328883133 4.571364142127607 12.802398401220385 -0.40412085268459436 0.9317590438992599 -1.42333622772531
Ni 2.600663807987557 7.343985219425183 -0.06083345025138011 -0.019526757179017983 0.807180611094526 1.5370167826706174
Ni 1.241132436844439 1.803309695608411 11.46925993287004 -0.950790349499098 -0.33486690348377807 -0.7453689771043679
Ni 8.059390077247889 2.2634834287506456 4.759192537554616 1.8635597396697323 0.9587641117331941 -1.6931765898260582
Ni 4.38794861262924 4.416876782854148 5.505369817504817 -0.40596793319566216 -0.14239412082991604 -0.0017185253530034921
Ni 7.521722565014531 6.194491075259262 2.3691976892401696 -0.7789355002059036 -0.29638340269659924 0.5942698723012861
Ni 8.516488513395352 3.050463045243817 10.582818542247194 1.359143495097485 2.258669647104968 -0.22744827028778247
Ni 1.0669798501014056 3.258156747703915 3.5177822124275164 0.5060887471786638 1.1218880089112937 0.7540225390143078
Ni 5.540508790847176 4.430428468105202 12.50491158427863 0.08560205154153645 0.18868220526317828 -0.6460773438908809
Ni 8.110364051230492 5.576097016913169 13.671946963140329 -0.5114091309503128 0.3160608265208686 -0.6794356076363525
Ni 4.491461997920097 5.643457136629957 1.0814494929795129 -1.2284895455226328 0.3183825326755097 0.41998455918972827
Ni 0.5533635687322718 0.018747269842520356 7.995172874007986 -0.8837552623264715 0.32546540766422016 -1.3780148780806913
Ni 5.8024462860825095 4.5862496911354285 3.4778422558550677 0.44925682579128434 1.1095847660639084 -0.8609112678487625
P 2.5085808940567818 5.031111779903096 2.7963870095249357 -1.1144341237364097 -1.5251809663779539 -0.18702024417972307
Ni 9.317964635300623 6.519536999486685 7.480159740871348 0.10357329130797646 -0.1081619391199234 0.6661028950831883
P -0.02667171736970854 2.1089497547634095 0.7156179055060787 1.241426822409591 0.5185398284578231 0.31275464496577104
Ni 5.937611146768342 5.888804701390487 6.778870681513494 -0.6560465392884508 -0.06121565227737199 -1.3422752585872366
P 2.0651452984734355 5.935943817072382 11.312618939405965 0.1368179122937192 2.0144955794220722 -0.31979946762769434
P 8.434335474098296 4.840248844429441 3.9905776313681693 -1.1331070175555646 0.2675567082728941 -2.1422488104103623
P 4.682825132302541 8.934089761634073 -0.10973437764533904 -0.5533052569634663 -0.2689667012465432 -0.08110802032592483
Ni 4.515036187232421 9.102471535040532 11.328684587320819 1.0720610580868375 1.4285658515553654 0.4730233320832628
Ni 4.021877114938443 3.088422584655176 0.479389707888175 1.5176345214892637 1.571440768676442 -1.437936751247304
Ni 7.050609296478247 6.445461246272281 8.807862714412861 0.7073109938903818 0.5142530281570111 -0.370347098668259
Ni 4.737800697555447 7.693633519610773 7.79971829781051 0.48149588833064816 0.5555120348067981 -1.0636057282306326
Ni 5.9211972122058905 9.000801475357989 1.6391666448067916 0.7431891958442298 -0.6855733451029742 1.8178121011209725
Ni 4.135329637805773 1.1773478130312096 1.5411480371583988 0.6332110294511739 -1.7370228975870472 1.1518840410527518
Ni 6.224252910332151 7.135041019693116 0.19229313383507937 0.5993837964890839 0.06833092316591458 0.09966110073776384
Ni 7.158939412001877 1.4933531051294269 10.961229205982372 -1.5136930203430123 0.5048299350708984 -1.7154719108891487
Ni 2.2127595542224374 2.2975803210330303 1.45157538071432 -3.600983472239624 0.2735615197060772 1.2178333513603672
Ni 0.8410992858354854 0.9394383913032126 5.294730499248523 -0.8878967952986708 1.2624525327316387 1.3617385095181709
Ni 3.219178284589469 2.7746496617609937 9.08593532963371 -1.3900301573740124 0.0782029308639879 -0.3393701906707704
Ni 6.9707442040417575 2.2310168143932003 8.52878692249161 1.7241969494669727 -2.237258528419044 0.74441715471406
Ni 4.482597361703243 6.836644581772788 12.258345942545775 -0.7789390997503294 -0.4523606615275887 -0.02846571153986065
Ni 2.670552711076551 1.1838040841316773 13.054808033537581 2.157531961821678 -0.6109319063379994 -0.08373671619802353
Ni 4.068710553509411 7.409159284651713 9.946848050022854 -0.2579706072463557 -1.2190044888503329 -0.2691942438763171
Ni 2.5427704157667192 9.21960144618173 9.1872895229683 1.0458003246180958 1.1675651992334344 1.1858889372432868
Ni 8.37368172493637 8.428277509536308 4.85127359889684 -1.5070572601940497 1.4037333658927178 -1.9285937372519302
Ni 4.250421701540797 4.90472818894932 10.63628887930236 -1.5214356404029088 0.2615894349458656 -0.01173708593127011
Ni 3.159580510901651 4.880320334789015 8.009841670155332 0.7572299902080121 0.8337120817261514 -0.7066533057017249
Ni 3.1661942520289594 6.925948612876962 2.888331905608656 1.3393436867627386 1.3287106325289246 -0.37270120072273233
Ni 7.291807062884386 9.060704926156733 7.379321493448231 0.28478567055667087 -0.3406467433903488 -0.48231118514309185
Ni 6.059733784054664 7.872334211246676 5.474201867721669 -0.053846613506810484 1.1728256763014255 -0.23222717973366458
Ni 7.705619767536175 2.7590323402755006 12.799172118258703 0.3129760169479578 0.5077571360200223 1.270566420088025
Ni 1.5983392983183817 4.00780670489309 10.598545166457201 0.3738787659706012 -0.2812915413604833 -0.03815671357537945
Ni 2.1008168910242264 5.99665314389084 5.856218595071497 0.07472679938992936 0.138459047441568 0.17726676433738503
P 7.08286286315232 0.7386326130759814 3.6781506140563374 0.4200372668045346 -2.2917456037233306 -0.8382835031469176
Ni 5.680851636533241 2.2021997994813565 4.145740259168493 -1.635779539963828 1.250574036126498 0.32079088500668623
P 2.0585315573461274 3.76535844121498 6.490616239615982 1.968760796389119 -1.392844744004672 -0.9672430957384824
Ni 9.175463523952564 7.421960671539584 11.693943724931971 0.2300743950567199 -0.2888642115014186 0.1288246096755975
P 7.584108484471704 4.693005106390652 11.790241277816424 0.3649112723646683 0.549601582859634 -1.6368748299105358
P 4.290567295442415 9.260747437900923 6.128800137826985 0.007286249248768096 -0.744279600694931 -0.06611488935120226
P 0.4971504743272523 0.07552169857851314 10.352968807010614 1.6197286571485523 0.7127607041510434 0.8998174579956567
Ni 6.868824044904819 2.314225829164365 2.1184155559650857 0.15173699549739675 -0.7045079772239479 -0.6816051044838455
Ni 5.0837716094671705 5.53424704154457 8.71385681356608 -0.4211585248931714 0.45257252042807866 0.6247220181435564
Ni 4.637983226423969 0.8777583080839951 8.088243217636478 0.2847239640808 0.441702153372478 -0.4225775167278851
Ni 0.8126222209227623 6.545973438110408 2.97534243208661 -0.7536888098239729 -0.19062878746658782 0.27759043835981223
Ni 5.344328926231958 3.351443844192883 7.587614508304599 -1.1329062143986681 1.591445493933143 0.24395115303881215
Ni 0.488668397646193 3.9620385047389854 13.150264511219849 0.7352740547622111 -1.2391004882692596 -1.1775382512857462
Ni 6.476566208044692 4.0522132524621615 9.708456955271581 0.44947305556714845 1.114054628909804 1.4548654086818429
Ni 6.226244443024547 9.049867283132992 9.439291585804261 -0.3536434127603329 -0.3861241589968576 0.8416876437324601
Ni 7.880874644467093 0.5437940225717363 0.6217453910349735 -2.0492651216927738 0.5572179617543114 -0.3586231253631114
Ni 8.456436855512523 8.160893403960838 9.338615439879364 -1.195442899480309 -1.2533408002383575 1.0593292123424658
Ni 4.036586668033913 2.2366672094739544 6.027269948580046 -0.31147115026765715 -0.8623875952839728 -1.0177027950509312
Ni 0.63991280066101 9.225409311289326 13.489534610342364 1.4725224596419737 -0.31530337952955373 -0.6912693670464869
Ni 4.5117848943253 0.05808884031297466 3.9342737601241478 -0.7169940255061006 -0.3765673685463579 -0.23161731406380753
Ni 6.514025548547263 1.7908695634879976 6.284369408814268 -0.766713247108099 -0.8418527085554147 0.7149332863223301
Ni 1.940947762009918 8.353117992019527 4.532121685144635 1.583265529225512 -0.968877546018112 -1.445444372478259
Ni 6.479039413760366 7.08744801981621 11.132633477609899 0.424574749663572 -1.2032528824430309 -0.6715839728024177
Ni 2.097778645800477 8.865988606496858 2.147604014881418 -0.2606414692102995 1.014303539561395 -0.5009516830624147
Ni 7.908543054477275 6.350784708370012 5.773125367084774 0.03669966941387873 -0.23772265563059705 -1.5472430883843158
Ni 1.076752254708283 4.354537178110751 8.271714324791379 -1.6489142775735732 0.4269414501235357 -0.4549250798206553
Ni 2.287817179368908 8.319975182840944 11.506854512336838 -1.0915736741984685 0.3214650282555754 -1.158852759061101
Ni 4.991790587906705 2.027435858516471 10.152037052761912 2.054232235890062 -0.9186065656777018 0.033892024761754534
Ni 2.4448796367283503 8.176760824900725 6.982174675401839 2.311262847820652 0.1831885291384587 0.33945863661951864
Ni 9.137346514514366 5.6582037414964494 9.669588721175925 -1.1317271064889027 -0.29490116172411796 2.017504798562041
Ni 8.638249895914218 4.020154207585951 1.8661828458545158 0.332803078976214 -0.37262792428263564 0.41762145827419045
Ni 7.337269585927566 8.996355262835428 11.955016061313957 0.14382108308442973 -1.7634944615150145 1.8613167092718268
P 2.2182154275053287 1.3366704284229531 3.712883870506013 1.143293214059947 -0.6660432454898465 -1.064194253744251
Ni 7.777138948550109 4.430085739223254 7.439312015908876 0.23041480911527412 0.6609583747677713 2.5624889372543223
P 3.8209638865752495 2.9603994528337054 11.514215772944503 -1.3521398100861421 -0.3417626021623469 1.5443092025669725
Ni 2.334919243279781 1.3687572621274302 7.303359805088839 -0.7230204342058387 1.1132858690645795 -0.2821798575027076
P 0.06573632585177835 7.240527411790858 0.5193176226350419 0.7792990541929095 0.3518528965188134 0.7233335945708833
P 5.432224990037323 6.893806201515954 3.034492805639346 -0.017837028181420893 0.19211565642475947 -0.1330497035005386
P 0.6213637577934539 7.999838618273848 6.096859658618043 -0.7436738487901322 -0.5099304895222573 0.6481761354014385
Ni 0.16761294915776762 1.1346826987001415 2.849774906389579 -0.647353382389827 0.2562538816655651 -0.5306677220696087
