# total energy = -381162.3228116779 ev
CRYSTAL
PRIMVEC
9.31647930038442 0.00000000000000 0.00000000000000
0.00000000000000 9.31647930038442 0.00000000000000
0.00000000000000 0.00000000000000 13.63560918027586
PRIMCOORD
 96 1
Ni 2.066907467253113 4.379229626545539 12.423307784985868 0.9209046176832592 0.07227859495975293 -0.2725562183700145
Ni 4.507564125932126 6.8318393278897425 6.013453718981123 0.14203596615954894 1.3132721864866672 0.14401520137310683
Ni 0.6499119910351212 8.425283328077414 3.391653030873927 4.415750380321841 -1.8741529418045464 0.06938996055804823
Ni 4.805439911695277 9.144310550847516 6.9766863548053895 1.2910568267318925 0.6937720788636826 -1.840530625764411
Ni 8.408047841771412 7.340817213224631 1.5974249317004057 1.9138098940745363 0.2728742638310655 -0.7133510294368747
Ni 5.273509137370893 2.185981386429882 9.815961614178002 -1.072281915848392 -0.332065429479241 -0.6699209832776979
Ni 2.8974156787462575 2.02369763726001 3.780827516719746 -0.5817324019559078 1.8906967050958408 -0.755006500194132
Ni 2.5949561852736185 6.069891085978152 3.577792556387124 0.26297963042517286 1.174130254045462 0.7672218113134013
Ni 4.8125111193202805 2.7026826329256783 2.4069710652538165 0.8595030746473261 0.0996407890227897 0.027049805028940513
Ni 7.491734857911626 4.734224745574691 12.15778160954722 0.43278659605040304 3.655138103905156 -1.931394697035835
Ni 0.06587775525317657 4.962105823977301 5.525149100734351 -1.0110850326240974 -0.42444336629203033 -0.37301384686714467
Ni 6.309641358734193 4.056143448380202 9.375939648785751 3.4807162652157344 -3.190328675091254 -0.16858774850614838
Ni 4.638311593401556 7.457860139961018 8.796631662843284 -0.7480814909395245 -2.0849965136561126 -1.3345519218010498
Ni 1.9688887908069208 4.181543256855227 7.8885134539860715 0.5027475986205728 -0.1686021466838516 0.9011305203801254
Ni 8.818038136835339 0.2667102999302638 5.215947271348385 0.5891230379930242 -0.23246140723165773 -1.4478727794140935
Ni 0.411601114297608 6.256556060911704 11.516335503056027 -0.5783843114192814 0.41461043936200853 1.4732053446416111
Ni 6.597818689770561 2.2721122355644745 11.958183498348806 0.4421279280559869 -0.14584222727951657 -0.42092635427770736
Ni 6.525261950661831 7.094228644820695 2.948209122714002 0.5709569086069587 0.5982499399949567 0.9753335860561009
Ni 0.5333749491130144 5.581437404066031 0.22663453350112767 -0.3455220692047791 0.6096239861598534 -0.23124373277447274
Ni 8.685772083275165 0.9113817714804517 7.314222392030516 -3.03105500489718 1.2643615768288934 2.006843976414086
Ni 5.4095017825647975 4.614498672862019 11.655554444956833 -2.5888221758322123 -0.31360362322962765 -0.3489161824879926
Ni 0.7665310179731701 6.80573455349546 8.867890616415567 3.401724519901864 1.3223911180688 -0.9167376307897631
Ni 8.798324467092906 1.3027884857148748 12.980445345651363 0.6197947560452681 -0.3834795222851589 -0.41190332484349057
Ni 7.904156754016563 4.595232194115633 3.539067679425215 1.332496324823602 -0.8545809547553606 1.482990706163149
P 5.86330747876231 5.818607012115715 9.866331158347412 -0.29521869296453673 5.537878787378713 1.103991331136531
Ni 6.66589420243973 6.873549204750269 0.3815293831092209 -1.6421057392921719 -0.938991557091957 -0.7435869455032807
P 0.9276129413411642 2.8732300990433473 0.586580429515691 -3.0311030845262956 0.8964606257082818 -0.7420496829231479
Ni 4.728849137143034 0.9220211905947518 0.5972832006877644 -1.2423231089716154 1.8394661890556387 0.150467898976986
P 0.4943482182287734 7.893936576461058 13.116228370065869 -0.226877485385977 0.2747033466200043 -0.5369759236758236
P 0.1890872594954776 1.5549948910066602 3.4262330062912194 -0.06815068883430843 0.37145627257203767 0.37933721798201125
P 2.6970554795587454 7.677654514518434 9.61918546449423 -0.5336520015089132 0.720725981744707 0.3163665306867455
Ni 2.762559644000641 2.4491812370411714 1.1233829112838287 1.6461631971909971 -0.7953013431584368 0.9238536730092541
Ni 5.649950791252163 9.241080819096409 2.316362716271297 0.5931542706396042 0.1476044613862619 1.1417621221274015
Ni 3.516393232629783 1.9666994182221043 6.281474847518551 2.074305095380537 0.6017019030992992 0.1830067521449558
Ni 0.44500814499818364 3.8860338567794956 10.151396785369613 0.637187754710735 0.3088162291433133 -0.32404693005013874
Ni 6.536069066399648 1.664286507144887 6.419917726711633 -0.0453005237090123 0.12506128597842334 -0.1542854729508633
Ni 8.946614864678121 2.4857670504053195 5.517076371607783 0.25303383206637065 1.4966538054725387 -1.0290979242617504
Ni 4.264907111701775 7.213777704430764 1.8759187143765246 0.04796341525315611 -0.607935542713837 0.09021821015730914
Ni 0.9877424289993118 3.6083096152757417 2.8256256858661675 0.09145182545409411 -1.1166195614235026 -0.06438736513713428
Ni 8.318488528333788 7.060884966177893 5.412982419150701 0.6952031548832543 -0.6891032126331035 -0.45490271122315207
Ni 2.6043378797115344 7.024737027330708 12.42463072501584 0.07780955208031115 0.2471372640762776 -0.2299620378485717
Ni 5.042143695790744 7.58200222375966 11.147833352650418 -1.959865036561386 -0.6395259159256083 -0.6367192997147485
Ni 4.551826718061759 4.947805028582861 8.294868458911296 -1.7940926460168456 0.7023873313365193 -0.3970163804293292
Ni 2.814471065458504 9.311653148160177 4.5811829436564695 0.17419892404533868 -2.1294187485252296 1.1171867467808825
Ni 8.156894198616156 9.19671574569685 2.985570998785874 -4.618156362929014 1.4827554502238915 -1.9229763910651527
Ni 2.4387933628621483 9.403588163764304 11.020953155648892 -1.6476012151891044 -2.5340049708820165 -1.306699675475472
Ni 2.0526718872122633 3.7821457985101783 5.500754831899952 -0.4182032989195894 -1.287726476807079 -1.0977481784402965
Ni 3.617355916466622 0.4282263712235875 8.829983726317263 -1.3311971463962042 0.052230932280258435 0.5331066705284045
Ni 7.201973725430923 2.0209120100137965 1.4550421135025617 -0.037602383733806206 -0.7014123690177597 -0.7218528962602988
Ni 0.863450349887412 0.13346322112251008 8.858536871414904 1.4373340846662988 -0.04434947264965265 1.79881627674476
Ni 1.522676025063134 1.234917935585561 6.835039538455208 0.01782340133466608 0.5579383848601036 -0.24427999713314058
Ni 6.429945053150093 5.491020974552649 5.150810176182413 -0.22830341919922614 0.520900872490832 -0.11816995817522874
Ni 2.1539047489425482 5.574505943627293 10.265350367641636 2.1173294214608633 -0.49881869587981187 -0.47237284298345744
Ni 2.693636331734798 8.36876024947281 6.964618719447462 -0.5979666044265831 -0.7078540108780454 0.32873019445842094
Ni 2.716228793514288 2.1959779684873637 11.58122757482208 -1.5648034658655823 0.11395206343913925 2.3358276816442096
Ni 0.5293996074877325 5.854345025883188 2.68678778795991 -0.966803951318535 0.41371518124124884 0.06130435533643635
P 6.527106613520528 0.0749417577543172 11.628788200547564 0.3407660425770325 -1.0879083095317392 -4.762920269542687
Ni 0.8682082757557773 0.6594688352798228 1.3698606135866622 -1.1013932313920516 0.5158735944795696 0.35266485089714744
P 1.4351756535031452 7.55062432220365 5.158786945574413 0.1204682672911022 -0.2156466496671641 0.20856583156098274
Ni 7.11993281061435 4.2510721402615514 7.125927964905114 -0.4739980372917063 -1.0715128988928515 -1.1364723344833718
P 3.21793050868432 3.6063997370634553 10.297448433030864 1.5165700847804915 3.3147510419340973 -0.9116057088798364
P 3.8279083437723864 4.436078781918095 3.352723191372163 1.001104781482934 -1.7598908033241563 0.1566719709051689
P 4.769319922285346 7.794417946882289 4.029977185223964 -0.5558588766232555 0.8314420547450518 -0.011082225956090591
Ni 6.7147405022788496 6.531671688271847 7.50852967475694 -0.06703894382736841 -0.03620910293070538 0.26794982994625466
Ni 4.084484177754721 4.660522079538589 6.020243568937779 -0.03600084357464123 -1.1297309019944801 -0.3208417928492797
Ni 4.505477234617238 0.8392275042681648 11.505030887335105 1.2935762507196367 -0.8729679419029804 0.9083290950110937
Ni -0.2706940263867215 8.683005088987121 10.931394773859177 1.6289352633484848 1.6115039552459147 1.8562773470757064
Ni 8.189194431601514 4.322352521735729 1.2177625709996835 2.536865837369579 0.25319889688932523 0.9051352706641443
Ni 5.524849110107835 3.25801000170509 4.819041971158393 -0.22703483689944767 0.639557283384176 -0.42689285627378737
Ni 6.511529460491535 3.750525668497976 0.12058598373215487 -3.016981300412933 -0.6451838855423341 0.7165577092996305
Ni -0.15784631018200773 3.6118312443696174 12.424302784952072 2.107771345458783 -1.905655640398518 0.862029954834238
Ni 9.118457321388512 3.233284066215289 7.748284605752524 1.5694250237979939 0.07292985539050666 -0.4981756629791743
Ni 1.9465758233999604 5.920669040484504 6.539570199239538 0.591280193545343 2.094547647679657 -0.5850329270840505
Ni 4.742255550545379 8.204864749421349 -0.3756227353697584 -0.7528809692106969 -0.6577046437171641 0.8168723844609931
Ni 7.16602143264451 2.0155550345403093 3.697254041093801 0.35792661351671906 -0.1682733025895231 0.9756290058093328
Ni 8.233028465693266 7.983113914256225 8.944836348820923 -1.96267602364762 1.5413835442797454 -1.9515094655078393
Ni 8.4572109018994 5.7309109944949554 9.757669336195283 -3.6300238253360324 -1.9452007496809918 -0.5487014396428679
Ni 5.0033219274463585 0.9722025418866562 4.490260629328808 0.04325649669579002 -0.6654552341968604 -0.2529279026161257
Ni 4.412405608564822 2.9223279438177445 13.153126285479342 -0.3022709718256278 0.45008754922269584 -0.4041154533679557
Ni 2.9260079530560534 -0.08208190732454453 2.1200784766831777 1.199076125357522 0.6490045448400048 0.6268825161299848
Ni 1.720213331088095 7.424749373295324 1.1547719926147395 0.37919117932245017 0.5237352566158335 0.7960577617084872
Ni 2.121679047789865 2.299251139137116 9.16713778789993 -0.9609032695633839 -1.8851559777832692 -0.6840427673910607
Ni 0.3327548201590498 8.302930008262964 6.896563703032279 0.6600266069821215 -1.9385539337884357 0.29619365528329633
Ni 2.6483116609895525 0.35469419675472874 13.31908538564798 -0.4366957012968221 -0.4709888181517372 0.33959207687358933
Ni 6.68288746028954 0.17672242845476033 13.508661760295386 2.1029345861917714 -0.44420846473409953 4.325700577421595
Ni 2.9114742456845053 5.263736150811435 0.873497240931949 0.5320507184600644 -0.2750231918532683 0.9266587465582169
Ni 8.009964006977253 2.379577821802173 9.417065382407689 -0.567226752140565 -1.5029056999195214 1.4129173463848312
Ni 6.1947878045826235 5.035659426348054 2.3044040837186563 -2.2819401875971344 -0.991089563338777 -1.0262131465147875
P 5.211545234981042 2.960162165379192 7.641449745148835 -0.14991176936319986 -0.3490727626705149 -0.7709041452609949
Ni 5.863745353279273 9.207271316499389 9.110209442455158 2.6058680755709056 1.3747323506746778 1.2723983310904408
P 0.5391884320616337 1.8527681954998831 10.79087990971774 -0.5252990015585276 -1.7287963959121968 0.41704501694543017
Ni 6.742829686718093 8.600135007532042 5.02873076085304 -2.3386749212850173 0.4352108892211795 -0.9818145657947542
P 6.956298171977251 8.63207189783311 7.136932589999519 0.7168171336086041 0.8558112276180357 0.8081229204031373
P 4.512213048995205 5.954664872663209 13.16787986175728 0.12073463357861143 0.5349244404634336 0.3895797216456259
P -0.2369562606786523 5.427370789448534 7.6270641697947275 -0.34828934753727114 -0.4943897135741809 -0.8717818920146793
Ni 7.250708227521033 7.354670817623024 10.891169943764691 -0.5247271882154575 -0.554136237505194 1.22969179336085
