# total energy = -381172.55292436713 ev
CRYSTAL
PRIMVEC
9.25508918881654 0.00000000000000 0.00000000000000
0.00000000000000 9.25508918881654 0.00000000000000
0.00000000000000 0.00000000000000 13.54575854658093
PRIMCOORD
 96 1
Ni 6.478645761272461 0.563481300014508 9.44893893145869 0.13788312033343997 0.00677511394030446 -0.7074164091199946
Ni 0.27268917273406973 1.4578431463368549 6.8990850295940245 -0.75819775343792 -0.38269070783527637 -0.7050173127601986
Ni 1.311668266937394 7.6407240208821685 7.702822893131539 -0.6179705583523357 1.0375216295490712 -0.3672926281126513
Ni 6.881112571805889 4.237044638041599 7.410871103169782 -0.1712652953383115 -0.1743565326691255 -0.2417045230964805
Ni 7.163429813872569 2.8217563920136413 2.942762056234754 1.1747372915018415 -1.9484418823261085 0.43279070981546114
Ni 8.106865845361924 7.816320828964097 2.9129884341613037 -1.1032562527427192 0.3146786014613613 1.1130344151754057
Ni 0.7558622124266199 6.094642853765621 4.15824958480979 -0.389074242764117 -0.21301872512601377 -0.05731965965707547
Ni 3.5330377650975193 1.1733231930319146 13.013329236853385 0.40587743036438484 0.23079173283871865 0.995236495627615
Ni 5.315521676579043 2.4741907708304476 6.619866391403685 0.2571421978077894 -0.6263641817326696 -0.8173747780187083
Ni 4.60043646181901 8.19826910666046 4.3324349917831695 0.9005193691586878 0.21207255916266057 0.5032024267698043
Ni 1.0000123919913735 8.950485739436866 3.286756138481626 1.1653607353829478 -1.6889982900786524 0.2916206912006333
Ni 0.21196097920060747 3.181261078311771 1.4940425768671266 -0.8045364886034595 -0.9373133980585857 -0.18899665117980352
Ni 6.71967605025563 7.0150059477886675 5.297895359128347 -0.8289354862731142 -0.8341116311574152 -0.40918695435359204
Ni 4.057384845784898 1.5201113867192517 9.104131326867938 -0.5094910879919935 -1.4311048159271353 0.3974128445367995
Ni 8.559597045538156 0.8379761406585965 1.9732646189646643 -0.3710451531765481 -0.11905673165555625 0.925145138127168
Ni 4.6794656688085 8.320297458242193 9.158639174925627 -0.7377073467940521 -0.39972683738195675 -0.6179124514208907
Ni 4.928871813550596 9.005942234141283 1.9328032198410372 0.4993989938633141 -0.0547657828869702 1.257244763278454
Ni 1.6728481243873092 5.395624473919953 7.036195474595369 -0.3267103358149147 -1.2989205457506854 -0.3837808555756616
Ni 3.6963900901197104 3.5535192775776387 12.51038825206084 0.1625996492435135 0.8427639075157745 -0.36789760868650184
Ni 7.677133541938106 6.132162985529925 11.592162158142475 1.0562112355387745 1.3042535279278247 2.388016962053255
Ni 8.151410589856644 1.766000597551522 13.422397702539126 2.7675153882034786 -1.8225349605179384 -0.5664775326793663
Ni 7.2291594576293745 4.348984942355672 0.991780915624533 0.9271999637736676 0.6978359645204111 -0.32873379400284675
Ni 6.151487611855496 6.432999661158611 7.9519023332235905 -0.8884971478868311 -0.6700076294542332 -1.2709196896623856
Ni 8.597709503013588 0.5469563381829431 4.618101650644498 -0.4195896377441548 -0.2697015225300387 -0.24813048122748232
P 1.314194906298927 9.019482429694117 5.736493112531698 0.0035244682134907045 0.9578976499678407 0.031692703117590586
Ni 3.5514183723209793 8.386184438516016 11.825785599209764 -2.017019631395507 2.161615644972748 2.14056473783972
P 1.0814386670930867 0.9147313722227063 0.7025630790232037 -0.1579086715257474 0.16100633661446465 0.20927751291602667
Ni 4.327837063450533 0.1411632485779586 6.986929709081171 0.6666068313028004 -0.6086271694642229 -0.7835316042170183
P 4.8481211599631395 4.956174326797931 9.934825563315346 0.3572475851718234 1.414188499787771 -0.24197551736968004
P 6.432601692321447 0.12137031473702613 3.7477456547834858 0.5783105207585524 -0.12824328325083076 0.2486760693183072
P 8.967496593453342 3.8464891273553983 3.5624393325836663 1.4782760742962993 -0.13980116329175923 1.1393391145082055
Ni 2.911179064215591 7.50857060167583 2.6834964649291364 0.2846496591994388 -1.0967883856301883 0.4262904468030981
Ni 5.270116208785338 3.7777515795967687 2.3633286844124126 0.18739331124842568 -0.575130580368674 -0.033468306960774616
Ni 3.1157535566966392 3.8989747384149362 9.55460891281511 0.23197418318259405 0.8246612843777926 0.7814538957523831
Ni 1.064631425039812 4.87579387677993 0.016499047581703116 0.7676113334423361 0.06321417076463952 0.8430238460453803
Ni 5.4653338060484025 3.212080525468932 8.85207174804177 0.510549611163495 0.46186448725296586 1.1501228353872708
Ni 3.151626282576867 0.7897996991475192 4.652562049907252 -1.7304976948740194 -0.5194687680299956 0.8104464263299913
Ni 2.253031158437797 0.71492695273409 7.702890455282964 -0.4386710798556381 -0.8091706449413614 -0.5301267619644741
Ni 1.1531563535858322 1.9847909070996579 3.583828769317875 -1.3588640161838534 0.6103163842411876 -0.09848944902716585
Ni 8.024116092499407 8.803829595397115 11.342229398822827 -0.3780107858611038 0.29517292732826583 0.16957350945818536
Ni 0.5364046109445407 6.708875361116768 1.688926065408757 0.34897454652975385 0.6087824640951645 0.4236347543478059
Ni 5.602688585405589 4.766972537538518 5.389233834802229 1.656921721259082 -0.12702072369763928 -3.3917098159783396
Ni 3.1317093305401666 3.1111445222569194 3.2793057916463364 0.2184355252662109 0.525789825152017 1.0042466695460253
Ni 1.3622658397927094 2.5753396410948968 12.820423560881569 -1.5067307300925665 -0.2572738382896472 -0.7157012748366061
Ni 6.810089017005872 7.232056300560363 9.85876538895289 0.4392544631629338 1.712675064870302 0.049915139662888235
Ni 0.8816907036488126 6.952663666692379 12.244404391478533 -0.6518468993848063 0.04737129019511197 -0.04335085618180921
Ni 4.35237230501619 4.757560111785113 7.070439304769994 -0.9233636207467131 2.0870942767254053 3.09029836393953
Ni 7.361386917549603 5.191373909562177 3.1755867831009432 -0.017663221607717966 1.491331879038993 0.46171613460055966
Ni 3.760629664509457 5.087170859849721 1.579827998999177 -1.4455557012451428 1.946372915612222 -1.161373725710742
Ni 8.917491346309156 7.579418309780355 5.613836340390814 0.8559603516013904 -0.19388637517193708 -0.0430315251691775
Ni 2.549508687036147 2.020534061730576 10.96086234073051 1.2755571884343968 -0.6221383165767802 0.29393159872199703
Ni 8.610925770443146 5.923451468160212 7.542644138208505 0.2629464631943923 0.25774717838163996 -0.4620064121474688
Ni 7.83435899788581 8.166681487096678 7.623228200189706 0.34661247405548046 0.3288839464274659 1.3464193626625973
Ni 1.3887909255441881 2.522983601284668 9.094784612248112 -0.33857803378677825 -2.0446775023220916 -0.0033689164722329077
Ni -0.03917956926438761 6.921575821947362 9.691705475182603 1.2021933308302652 1.0442319516897114 0.5568832041227119
Ni 1.4422853413304921 4.708795046598603 11.276681154815057 0.3488655317557153 -0.3079495102676438 -0.7421715532129928
P 3.5413766004995018 3.6180272495552406 5.460905245848793 -0.024083523311764974 -2.117536138155031 -0.1294049076590997
Ni 4.79960598218601 6.873366062115035 11.094883436944752 3.2631945100130446 -2.971860753925211 -1.8698573997529864
P 7.2923809722031185 1.5467752988092762 7.4345622805970795 0.48384690506132805 0.3439364698852141 1.2206697923678977
Ni 1.2023286426987445 0.07403330981968899 11.997735902132558 -0.31272919104447433 0.5311356628449627 0.7733194395707069
P 5.510757784020579 8.958278524573903 11.289630875674606 1.941126836721934 0.7506893608760169 -0.45435789446327557
P 8.481400796579942 6.047673275890968 0.11448915588977407 0.510173972991631 -0.5805990596824131 -1.0750589643728967
P 4.290233635883102 7.3326498654706285 0.7395103207637753 0.06146273529117158 -1.8151924041099385 -0.21610224914734397
Ni 6.080454801966243 0.19036330295857998 -0.1397342627998608 0.42968481719662777 0.009454203434364363 -0.5268846008780925
Ni 5.45809632626555 5.2300324173025565 13.149206903968443 -0.7866863477959161 1.086214209658768 0.960133738387211
Ni 6.636991083017768 0.0490316117565192 6.046705193556842 -1.0788827089943611 0.652401743447012 -1.104607367453975
Ni 2.6236141865518796 2.8894296045100862 1.0429597080838935 1.18348855533191 1.3270409581359857 0.4437850040434357
Ni 7.969020546275209 4.988863301980842 9.663151673870509 -0.16052528321298806 -0.8061354576594634 -0.6325901080377234
Ni 7.778189861310191 2.497744972937047 5.474531513731522 -0.8766795864266128 0.5112931741977388 0.22843428835013566
Ni 5.331135012120824 6.293479190920111 3.0151368540632824 -0.6174568519407108 0.43528442277159224 -0.09814286432102452
Ni 2.2014340359449522 8.304110307167756 0.5779081331161846 0.17743877113887507 -0.37064920328971 -0.9178863996822256
Ni 5.242249135094584 1.9291030351643308 11.183297304419934 -0.06883717337837177 5.5278717967646735e-05 -0.042268164640591716
Ni 1.5426012535636666 4.8470753348794275 2.4269259556091547 1.056227690599007 -1.001738815522507 0.5117626576349895
Ni 3.0692374781945695 2.8938998126112603 7.512003314273605 -0.6226710491517986 -0.5738023484755538 -1.9452442013244178
Ni 5.0222926843026645 2.007141947605527 4.113372582611484 1.5556873624969274 -0.31205119114084323 0.10907905161755407
Ni 9.001842229609565 0.6008690840027315 9.106813451728643 0.21962414625767337 -0.4164994288546052 0.3698439337795953
Ni 6.862917066367157 6.896207622350432 1.0441832308809433 -1.6876330343000097 0.5422600548928984 0.451559505782532
Ni 3.219225454359421 5.301768613973775 4.339816850958109 0.12675924250613654 1.120167169565445 -1.1986143552297552
Ni 6.359208834676916 4.369012955463209 11.266468163842706 -0.8565846154489506 -1.8552175383526242 -0.6321573913756791
Ni 2.3877482373626138 -0.15847859503031084 9.875725339978564 -0.726058449701214 1.027413851691108 -1.3997234734023765
Ni 8.592721009915177 3.826229737016952 12.132787089778809 -0.32083022288505386 -0.2579099292117493 -0.000740220600134209
Ni 8.939055704229931 3.471602482746397 8.098345610210908 -1.0417726915159413 0.0835585387489464 -2.123065295503376
Ni 6.386076358730141 2.7695021581850123 13.189274961799525 -3.492466977993759 0.8694933530908187 -0.40787800573418137
Ni 8.026911129448795 4.794682274712254 5.487143423833943 1.4145235145296864 1.2184046504828048 -0.5500304428669366
Ni 1.2782944151509905 3.2223814397890282 5.630917533085486 -0.026825347722960254 0.7539361499480887 -0.16960719090959822
Ni 2.580753868298182 7.249335552164693 5.405828209803067 0.09433017544315367 0.7303002556967036 0.8721197349700723
Ni 7.630284280223527 2.5756543141289336 9.98360358562679 0.36467601642541064 -0.012725160876152277 0.6239887395219575
Ni 8.810909738662948 8.36185280891356 0.26543688480843863 -0.48052658243884333 0.5751040980061128 -0.3647711472423782
P 4.311168647735805 7.135451679110979 7.015144774127213 -0.34455944818119366 0.4995154648365204 -0.40414733504715555
Ni 3.019334037031983 6.312341062783863 8.744586843686092 1.0089787849143719 -0.22460617285329704 0.4518233009668799
P 5.001255866468362 1.8509993370984799 1.1700774332367143 -0.5437533516089732 0.44751053252413897 -0.38994481829452843
Ni 3.1779847767220906 6.059519790113542 12.287695996890646 -0.9850536415573422 -1.154087990682606 1.9974039140471085
P 1.0190038351044353 4.7015390566372774 9.180245180747967 -0.1642505545833752 1.3733146443915445 -1.0044816683749669
P 2.2116053790157393 7.180514708602936 10.534184216754701 -0.6614836511436221 -1.078634083318665 0.8838257105530908
P 0.26415968249381755 1.800281448083091 10.977943533425181 -0.8818158792119135 0.07447380283885882 -0.05568520937744603
Ni 2.805587751117677 0.9130376908924478 2.1982595403368723 0.28561896509124357 -0.7593336668145761 -0.1372406016534346
