# total energy = -340876.30558209773 ev
CRYSTAL
PRIMVEC
9.23265926753100 0.00000000000000 0.00000000000000

0.00000000000000 9.23265926753100 0.00000000000000

0.00000000000000 0.00000000000000 13.51293008952975

PRIMCOORD
 96 1
Ni 7.11527791715916 4.134818636093003 0.7719084583234507 -0.007993045507805588 -0.37427728696060053 1.4149896555328276
Ni 2.591034957018509 5.068766722763809 4.454321263720393 1.1734921062408306 0.7691223707702237 0.7821789468438658
Ni 2.777303852384954 4.801241195520284 9.699905408830244 0.3772062876819374 -0.8877918942896904 0.8416601329286344
Ni 8.781505119918897 6.457192448810734 7.646102260355069 2.256797884003552 1.2757533636056029 -0.8021013967994057
Ni 8.413371307529987 0.0407197192626602 10.257786982497572 0.24792839251900528 0.7854172512755054 -0.4497808166155544
Ni 3.7737847384766727 0.5067058680848427 1.0472669734643183 0.9905241777536101 0.6180785446851097 -1.655620485949155
Ni 6.788912654095544 6.24575532500469 2.69566775822289 0.3342647511234049 -0.4491766073726522 -0.7388561156865147
Ni 7.388749276800008 4.269356943070939 10.050687361890693 -0.6875674927148675 1.2773626170742518 0.6140995054327036
Ni 4.693034432016207 0.10369568631567246 5.599947446597197 -0.6344590429256621 -0.8490906210647504 -0.7342530696968644
Ni 0.16065657602884634 2.9037451174180875 10.335107731842077 0.10903482864317997 -2.3815552655883114 1.6102094048042077
Ni 2.481674111139176 7.752451412867932 6.744519259815965 0.026483905223141483 0.13119825211409664 -0.023265912506476062
Ni 5.997470659121446 8.378296435981184 3.5321041935775987 -1.5582011300577165 0.3818149900985425 0.34645640809359046
Ni 6.13708692855051 0.6847696993961623 7.39100481539421 0.7155027856725549 0.15401525000861216 0.005307014035210215
Ni 9.020954131137175 8.8565666376056 0.6182290027024568 0.9796594671249644 -0.14490608861849236 0.5195060490258343
Ni 6.50539616146046 3.3587951816523365 6.371441358531455 -1.5661766920640252 -0.7497128558953605 -0.08023410236140376
Ni 1.3752507216509953 8.101824462164668 11.105492801430188 -0.8515059153744624 -0.2266977652750031 -0.5516702924632046
Ni 1.2435930042817014 8.08597198665814 2.868552067834057 0.3087504089023844 0.1844637963064565 -0.8855012984833008
Ni 5.618017606796017 0.5704259874534207 9.832277734006297 2.0160549534893923 -0.16811620818636855 0.17518674187990474
Ni 7.3952583013964555 1.9206054235843377 11.60455310459543 1.0007679669688057 0.5437957748111344 -0.45108925101433284
Ni 2.734602804500453 5.437048257696751 7.448502122595403 -0.05321669323229545 1.1754014074484014 0.2619853848327036
Ni 0.3722248035927206 1.754491422819377 12.703208134799283 0.7056670305290557 -1.197682330333789 -0.7517509693713118
Ni 4.566556236347066 5.291273804713316 2.9860468862942 -0.22220321983875926 -0.12978723069918294 -0.07221200338787565
Ni 1.2888422660507692 8.942384203029693 8.825889281539473 0.486686174282336 -0.6068965599263612 -1.8730630511744772
Ni 6.744845172678739 7.809897017178713 6.051225046363206 -0.2547112197687936 -0.023370556405140398 0.33069066061890146
P 8.139272127077 4.490552987442155 2.892713013176533 -0.026938733372372962 -1.0706063279181819 -0.23081795809096378
P 6.083426714430572 6.0942750887579855 0.5312619712326065 -0.060391613714179865 -0.5669655280593784 -0.27154217528320335
P 5.762287136362118 1.7985035082821696 4.800887584680504 0.5630484523931594 1.0662567927002347 -0.24923914091062882
P 5.416385566850154 2.2099384913907145 0.649065160503418 -0.15251449709336956 0.8961394949234374 -0.2839089243786723
P 8.749190813411708 3.6819290140652345 12.652129372136317 -0.3123684652709459 0.5919826189290063 -0.26462205112460235
P 2.9719006061712525 3.748228738358986 2.3903428017590547 0.8627364939829593 -0.5840060284814329 -0.07392358676234366
P 7.611791852971635 8.948782435718117 12.300360447828547 0.8014460226035939 0.9564231223048432 0.7936082717267301
P 1.4464068245798276 6.696244455691924 9.238424797601063 -0.8162280660087748 -1.0022800327379577 0.3070290553359035
Ni 8.36223160931761 7.68003966831482 4.017069919510305 -0.45827342746759786 0.16466295953044544 -0.1651895214578768
Ni 6.307438719797415 7.674620097480614 11.177530623293718 -1.8903539770444409 0.20055144589693846 0.5812078969110055
Ni 7.353443588776152 5.7798753517610315 5.2489485260501985 0.8224179968695708 -0.8030943568402943 0.11302569497012792
Ni 3.062851530000489 7.385628638057313 4.257734871919152 1.267063806251405 -0.9312358244059381 0.3191230103859601
Ni 5.037735755857904 4.287268301534923 8.490930259476745 -0.7478107537766411 -0.20475108580058285 0.31755566589884016
Ni 6.805291391165187 5.4127017359083345 7.668966017107756 -0.1439774061566359 0.19333667331605414 0.02320394892028907
Ni 7.258254874464972 2.6625511336484213 8.550428283883683 -1.4665577574181063 -1.2816586733464443 0.9861309337819212
Ni 3.6691602466653936 6.997432257656939 9.251951566304973 -0.6056261778543699 -0.39827956341246895 0.5470096537627417
Ni 3.6026574038735966 8.956731755118886 10.386186494505042 -0.5689095391596267 0.9367811797041995 0.5492048616418476
Ni 8.249740892036579 3.308320234888106 4.898450938887012 2.287363929715867 -0.557521351927343 0.35558999496374244
Ni 1.7191857347955215 2.579300247426898 8.431932645187718 0.09078333863215979 -0.25364421195685993 0.6528460300732821
Ni 3.8464826954588482 2.926642111743182 4.774253209991378 -0.8558330819949067 -0.988204271371182 0.42077363074992696
Ni 1.3785190829377225 4.170456699840933 6.111073911812223 -2.168856899916194 -1.3377120646965865 0.6270321543339717
Ni 7.264911621605453 5.206979628024561 12.151907600468617 -0.6625645429126267 0.8293057251283397 -0.07874620496196762
Ni 4.4463193181633125 5.7877231119127766 11.837771917519122 0.7718773078075416 1.0361818276917252 -0.535599097932955
Ni 4.2424345094209475 4.569169078844647 0.6150622006647523 -0.6273987936447711 0.8252408110303465 1.0104569121217952
Ni 8.211240703998012 6.897359466733673 10.22208521340253 1.9083432145330101 -1.843705938168599 -0.23664510629570212
Ni 0.1018685430991659 2.951228682665653 1.3494103556360457 -0.2535133428059505 -0.442263939413219 0.350644478033009
Ni 6.25272598255124 4.132667426545525 4.023758980957292 -0.7734989025713647 -1.115600376130369 -0.35771578305749363
Ni 4.857818929884871 2.275988933891411 2.6494804582992133 -0.6018106607630216 0.3082073919147208 0.8173009873579795
Ni 2.279589670902212 6.586763585245565 12.568348531288075 0.26598653557229673 0.22900841568605076 1.5782040555422046
Ni 6.841243365319186 7.680999864851033 8.49557890328428 -0.540173861787831 1.2335497336543593 0.2110646867234365
Ni 4.363456203619876 7.268512358616254 1.3068561070296776 -0.30549282119703514 -0.07803349516565916 -0.14573732627053612
Ni 8.705261821879933 1.8187784274506809 7.034710041643633 1.5441467088471794 -1.3347262425953852 -1.5548784934423865
P 4.189152834320093 8.904964236094367 7.955062114668013 0.2641029453963387 1.2027260634052834 0.5796454375198922
P 3.764681336700647 8.911233211556763 2.8917131162066103 0.547633917610302 -1.0789053347021804 1.8811391433143927
P 7.64183492536432 9.143730030546493 2.4280572905165463 1.0394435291621325 1.2415340374114168 0.331445536507055
P 3.392863693369917 3.4538638713964898 7.1094364138085595 0.5095278547671999 -1.3421834702043787 0.13907894041375402
P 8.435871297517995 3.947866523960406 7.239687073945941 -0.17000854011307495 1.1979127011770403 -0.9943939451216616
P 1.4704117379851687 1.1097379140699184 1.0636272452159587 -0.6682685352759393 -0.7019543575641587 -1.3292809032100978
P 5.266040947660701 6.559277959396449 4.617246304066044 0.9029850570903609 0.9319909574044077 0.5332537376292301
P 8.567658272113317 9.02901424244597 7.898428984349413 -1.5774491796540508 -0.49567217983103024 -0.15709414604425204
Ni 4.14949856390627 2.0615696612277024 8.78371541848399 0.1441309010153647 0.0024461475476474 -0.1290863479774164
Ni 0.23437658836254915 8.636229230521574 5.853895425512301 -0.02801165472157757 0.6969677029828448 1.5732248571600584
Ni 2.653789340255472 0.5620039559117468 12.510649028854738 -0.9617329645535307 -0.18191223352919636 -0.3506791879256864
Ni 7.397741886668009 2.3001046392047764 2.7843252895560164 -0.7865050850230455 -0.5954767481251939 0.18535905442721626
Ni 5.393968670793167 0.8914824715908563 12.467137353509857 -0.8737043058483728 -1.072147961373689 -0.46996089110785516
Ni 4.600089253842526 4.89587595029134 5.715023308398801 0.6290049617896264 0.27537209055225476 1.2305780526205452
Ni 4.8299362996986686 6.921964502974148 7.35968209646384 0.6268802021371397 -0.6781729388738449 -1.78718743425658
Ni 3.092663785918122 2.396179688780154 11.001808194305319 1.172570879978142 0.5950807982383558 -0.11792441782332594
Ni 0.08510665068093635 0.9047230278657022 3.47399845414817 0.6572151056752552 0.5419188695033956 -0.06470978147355952
Ni 2.4536068277729313 5.837459445956843 2.240497669421614 -0.4503500588554631 1.2421413319781125 -1.6700986249606722
Ni 0.3948383552864521 4.470010321162584 8.863198456566774 0.3716966707176179 2.5949468006727114 -0.9431803983623241
Ni 7.535807069384728 0.5008431296185384 5.013972738118417 -1.0683679255059664 1.6476318113167236 -0.0052139401007716656
Ni 2.496289410339428 2.8940785234429365 0.060545931203671556 0.1725413338372577 -0.8909386674487882 0.872999052251232
Ni 0.9793173730068996 5.0295925506180925 11.199583752586024 -1.6788162073393282 0.6748703568631732 0.6636122674508507
Ni 2.443774045935743 1.3685108805794957 2.9140903118298893 0.15284899761465287 1.9297918713250897 0.03811094793910856
Ni 2.7592817020129443 1.049153205698438 6.894539812674445 0.2248578838527869 0.5863421328137772 0.6869892516138942
Ni 5.438627042386103 3.703948905785134 12.420031404015477 0.16515044068982523 -1.602078548166957 -0.27301644583588464
Ni 0.5158277351788725 5.7369065567654705 3.622113386188625 -1.466271079415623 1.2653259976246918 -0.8166193879099227
Ni 1.0328944931958206 4.870615395261718 0.3443827971061257 0.1920233538212693 -0.08564421763338154 -0.9387267334663446
Ni 1.125322642465386 3.60635970013342 3.4798362644351686 -0.7295731477226919 -2.5758794996286154 -0.17472471464182168
Ni 6.575905978259149 8.323103600466903 0.7906184417911137 -0.5079360848000478 -0.7641596274483098 -0.597126882134107
Ni 2.2656945191041205 0.19226273759057874 4.887127082620993 -0.267912548950416 0.47880111510730444 -0.5216858302859725
Ni 7.408941102037501 1.5270356356447676 0.4599138289965315 0.3591157487288138 -0.4045671961933936 0.41294976383013393
Ni 8.670639350622231 6.9158155520787785 12.667493439981635 1.0084241979624826 0.639367535970873 0.48577471821166024
P 0.7695762886595319 6.799188603564829 1.1325776659092002 -0.08715422652000475 0.9943736334066875 -0.4215279924174482
P 5.628450511468339 6.009048413510022 9.864168261465291 0.9132069919286852 -0.39914319696434486 -0.5867236845229121
P 1.1844762886915476 2.1236223623805093 5.19551912840531 -0.48602848609367905 -0.8214741448990627 -0.3579063018017449
P 2.8583296677869825 4.276641511023559 12.01623736949703 0.32697850187463684 1.6485849192586124 -0.06834146468887584
P 4.08621791910619 8.13217221230442 12.631116763513543 -0.098839633277733 -0.18610904521936333 -0.053665864954572096
P 0.9322215794374207 6.687482662298975 5.42342823913692 0.7404494283155635 -0.3530985960004564 0.9885724533438781
P 5.685462180806024 2.6312801176084637 10.629675717302618 -1.3062721010197502 -0.2677857935645646 -2.871771821621409
P 1.5978962934855343 1.0580904196124266 10.37314628693054 -0.9464948074475377 0.3284753981351375 1.1525954652974795
