# total energy = -340869.2573316265 ev
CRYSTAL
PRIMVEC
9.32711036846317 0.00000000000000 0.00000000000000

0.00000000000000 9.32711036846317 0.00000000000000

0.00000000000000 0.00000000000000 13.65116882300958

PRIMCOORD
 96 1
Ni 7.672424932642199 9.208795860864088 7.922455844521992 1.5875171054130144 0.08355133966009481 0.8381109821247953
Ni 7.723835964364682 6.678733260354491 4.3219459833078115 0.870351844436372 -1.1100506499567333 0.04513108801068357
Ni 0.550517759392013 1.5856740330268666 4.929655717358011 0.3932741397780775 1.9057335448243051 -0.5631628664838365
Ni 3.0092335627212825 0.8007137611233093 7.109501183900753 0.2267440451319063 0.3222065344072903 0.2998075978867998
Ni 7.9234547780302425 8.927396944487581 11.988388507432811 -0.6106123182150516 0.5037413299924098 -0.03554755808730652
Ni 5.178122472848133 4.160217622339895 -0.025296055721071277 0.3396270438765828 -1.296483654174419 0.22397033904151104
Ni 7.150144066834483 5.396833881204535 8.958675408725853 0.644753997093767 -0.43876158268691534 -0.27821573064863697
Ni 6.184004678238396 0.6816373426379287 9.585563546881234 2.3510537545653447 1.0680609357885091 0.3506971856478154
Ni 8.03441008161708 6.187576961465847 0.8140366054107538 -1.521309913458322 -0.07739894690545379 0.511585508627177
Ni 5.969667684591326 7.459776145951183 2.6400133743220304 -0.9653507638117761 -0.797273379283143 -0.20276902237354755
Ni 7.893384174569922 2.7887313491960266 9.178977089380638 -0.9781882818960765 -0.594995180503085 2.0568159374568387
Ni 7.283130004842312 1.6089918086629706 1.771375865481775 -0.5423240753616143 2.485042939161017 -0.56446564445566
Ni 4.5062627398899355 8.31497888518094 5.31326670416884 -1.488654846427462 -2.8233836601260083 -0.04435641462818812
Ni 3.280839013330624 6.598958486348251 3.4990952587066104 -0.823220438166208 0.7692061887332817 -0.6373469059964184
Ni 5.854822976028386 2.393700248589658 3.5684703047791477 -0.9176488297501227 0.9465151191625117 -0.27498153998205543
Ni 9.648242660502106 5.908743000409313 2.651043614908933 -1.3482031940358974 0.22144808684028955 0.34768976628005926
Ni 3.320376633699202 8.501166660080106 11.681073282503313 0.4915753840538372 -0.8071623562620809 0.08939108627032347
Ni 3.633002715207579 5.769964926933476 13.085068265728012 -0.9089662143744603 0.2088046870446662 -0.5611468644950723
Ni 9.436610528828826 7.834418183541342 13.451629294993722 0.8826118927506478 0.1453316061916852 -0.14770164908575853
Ni 3.3806484201634044 6.034062053787991 5.836967156157282 0.8200317560255813 -1.1544057790333409 -1.4618842632018372
Ni 0.6426099152002684 3.795891368691148 8.884043603313911 0.42222810380826636 2.713401379967895 1.167182619083035
Ni 2.2173619021191837 6.3160112696695085 9.04078662385083 -1.5499396613798726 -0.5748480161312487 0.3478684579497686
Ni 2.650718098761053 7.788743324625341 6.896011091864787 0.43653629290082235 0.5121989738414598 1.7432336543834492
Ni 7.870215632697889 7.656755387414737 9.916809338590552 0.9150180769954951 -0.389970015105509 -0.4336294036666725
P 5.746926964605004 6.5294994962834245 5.065129195670699 -0.07510629421653517 0.5802234215105491 -2.577428332172974
P 0.6989699116237577 0.5450147643418924 0.5474127643883094 -0.08696627887891474 -0.6879115063178475 0.7567934168912256
P 4.170300228524946 6.690588017487887 8.560443243880158 0.9691819646324084 -0.11542427710929154 -0.4621745622942169
P 1.0782885622954936 4.294639935326908 1.3141525264098148 -0.6217230834162324 0.3026723210291046 1.0578474855906168
P 7.615930625831045 3.492937500516628 7.3643821931128555 -1.8413320386197836 1.7463030373373927 -2.9387930248369645
P 4.023594111332833 2.29794813471756 1.0925207998327462 0.2504159348275494 -0.12307793699980737 0.13913061958729586
P 7.2138109214313015 3.624515044876037 0.5879465201320621 0.2341112841302549 0.9578701391640149 1.4615852439041797
P 2.0003946633803613 7.09972170879897 12.451995320762911 -1.1647855796057682 -1.7391682260648242 0.7875898334467919
Ni 5.46609700195402 3.291248068374581 6.784358120430916 -0.6893443821096321 -1.3681161309097407 1.1077955353739695
Ni 5.06480741036692 5.02564287440852 2.96245344124013 1.5177311949681282 0.6688532041348159 -0.5036024904217004
Ni 3.9753542970968607 1.3360339270667352 11.70559052451814 1.302618820537879 1.055288466614189 -0.9619653922793112
Ni 0.5156352997514266 7.181044783107448 6.196415331142956 0.1435032947336948 0.6832814637450038 0.1813712734240618
Ni 4.2986132842953 1.9653806914851872 8.87566226203927 -0.39191968263271215 1.7127012901225473 -0.4482471535798474
Ni 0.4226346834043886 5.275581447896793 13.1942364949901 0.40518503228305053 -0.1620895423763144 -1.1389791600656256
Ni 4.628457211333376 1.1416382951436614 5.244219039666234 1.1064732170181202 2.3562188437060514 1.1133360055762247
Ni 4.2747825175952014 9.0809398334962 9.407525800922398 -3.109242766252516 -2.0677289848249165 -0.7566476353419807
Ni 6.557760640354383 1.808069649933774 13.250370775345433 -0.4255569110711832 -0.7744260423713244 -2.1413342690158927
Ni 1.972823725468232 9.1896099950707 2.423450932168251 0.11378597017492018 -0.5584744598692317 -0.3623643375730985
Ni 1.666372190948296 2.2988901728532585 1.94355805162287 0.5570762939701245 -0.5880503737541356 -0.8097722830811023
Ni 0.7136983514265465 8.301268033106911 8.379578450803203 -0.3420755054170754 0.38042299484702224 0.33705054139865825
Ni 2.1491434177181974 2.7985994318452256 10.314877346295766 2.4933308902014217 -0.6685063623183585 0.3907881401314302
Ni 0.9353132892051571 7.935953105771195 10.748233542937635 -0.4162919408294895 0.2400435904542898 0.48061091462253364
Ni 4.961071290117021 4.446690486694816 8.875976585654845 -0.941346944698011 -0.03325259140554273 0.3590249887872204
Ni 9.168362837911081 1.0945084070279678 2.631713178906603 1.2799141798515117 -1.703733282295982 0.5718452247491829
Ni 6.750971729275142 0.2146130761106013 3.560320275838816 0.7979554929518321 -0.5018387136530583 0.9532830340139647
Ni 2.474286481188034 2.7804302210695733 5.908908090260817 0.8225882038988479 0.9474957379082263 0.45018293714997953
Ni 9.220622636666718 2.6160492299452933 14.048690267266426 -0.6606979220175332 0.5675373414024484 -1.613597861660466
Ni 1.901322098257682 6.528436205714417 1.1666274889373618 1.2907521510072804 0.425114424217126 -0.7949987243163535
Ni 7.612115837736979 1.3574303179904244 6.226107253926946 -0.11234152441890974 1.9221603229217608 -1.4267763637551105
Ni 2.710299679066426 2.925392168644106 13.022559838224796 -0.01788665047243371 1.4546810605851785 -0.10710033062462844
Ni 2.0173047142716642 8.994402904555491 4.78667298257947 1.2761662827733053 -0.4889546586015385 0.768850605166076
Ni 2.8921783290280394 0.6042978771191237 0.1758803853569813 0.9307429439299196 -0.4742021828827123 0.36775979755705696
P 2.169159396324229 0.4085852572281231 10.19321825098093 1.303186005895259 -0.3951890974126032 -0.3222854672743417
P 5.196981889782614 9.14378590239063 13.16690712923356 -0.18282548937208512 0.6808929089081692 -0.9813687365065874
P 0.743477949046928 3.52840850081427 11.841801777251955 -1.1199843641306777 -0.2748835809516104 -0.3248622268625824
P 8.25619943635745 7.9264767617526815 2.7312987350932767 0.06802547611035381 0.2700352517203737 -1.0082817588473474
P 9.498076185405596 6.037167981502721 8.131632148065279 -0.8864988865098797 0.10468760741807778 0.7289421990069124
P 1.021234628869074 5.922565777806395 4.6380939816482645 1.3504503381988613 0.3124630818672812 0.3354052924857514
P 4.202087020272083 3.805619544686531 11.553529713328953 -1.3417985760611342 1.1742071300299841 0.3033348943137679
P 3.9888506256350373 9.316542638523396 3.4651445773804426 0.015514807806147474 -0.4948689672034445 -0.8051437831701552
Ni 1.6953795038396096 4.0534501912573 3.7930316766871366 0.3730665544819511 0.054575778363351174 -0.1597611513534539
Ni 8.917109141876931 4.337927054017772 5.033117620566429 -0.6243445801994796 -0.738129007712503 0.5582967966407869
Ni 4.235067682131789 6.101525042258367 10.702093261219938 0.3519218020835358 -0.05449890237882873 -0.40733241764335654
Ni 3.113016318522455 4.114048426580408 1.7969993027727773 1.8536208832894658 1.3568390153340246 -0.24722493869407747
Ni 8.992024491440608 8.856958607846037 4.689968570750393 -1.2706255554607342 -0.9237413158011059 -0.4216568046858286
Ni 1.568959851450907 4.935421736917306 6.676213075163742 -0.6931722404961546 -0.41690052094776586 1.0025780235943507
Ni 9.147917812233345 5.461097670857639 10.559328780821351 0.11899193985589183 0.2605530232615513 0.18289696603996888
Ni 5.613810447053613 7.0641014747372575 13.557685067563904 1.1818556477141775 0.12578633706990597 -0.5626823273029923
Ni 6.112148620838177 7.608758078045381 8.266083375094082 -0.8727059464908453 0.8404352593825978 0.24235758329944715
Ni 0.20686224748916024 2.6806861040085743 7.093884803201741 0.5374919440802937 -1.8094439316619353 -1.461935942375379
Ni 5.684631195215588 7.948498069063418 10.861033748932801 0.8721151069843819 -0.17857854117027308 1.567755606515371
Ni 7.683514866734731 6.482863945011216 6.713371349706411 0.4025517084252616 -0.5461881863027109 0.7778119281244217
Ni 2.9106086988908157 1.8992794611119592 3.8271595731081383 0.45810759131369494 0.2661857960672964 -0.54353506495058
Ni 7.551918668154812 4.342581282034738 2.834528393256361 0.008623222892636763 -0.4903001168858394 -0.8664198563718174
Ni 1.2088028160858961 1.164984052110529 12.145157643878443 -0.39557399155584777 -0.051783303219878556 0.16930508628814714
Ni 5.273585446302343 0.4569388622091997 1.6414846626563693 -1.7045434369021033 0.2512903670127027 -0.07150674979073492
Ni 7.446979350682089 4.311960379069406 12.133608815961392 0.35717276606983 -0.3122995597062234 0.5742396931232885
Ni 6.400962589866963 4.203756573007628 5.0135148329446695 0.6677067492351985 1.4204817889956505 -0.29122319865189844
Ni 0.37229160580603965 1.4894369094215374 9.874941806080413 -2.0119005650013864 -1.43927989553876 -0.3823868034416124
Ni 5.481440098322576 5.7962020880792195 6.89400389773803 -0.6340597506047144 -1.495122713539993 2.317706803673783
Ni 5.872731027716914 3.040796503822313 10.659364836433316 0.8452324236609249 -0.9112534677467403 -0.18799752049132784
Ni 2.2757496123119885 4.987243161490984 11.257422876792216 -0.8373082837178419 0.37966503363507514 0.5442791422054561
Ni 7.400744865150822 8.740220495901447 0.9093027768385957 0.14687966740509545 -0.1639906160537692 -0.5051145561908527
Ni 6.729808516107814 8.585968746513489 5.795098690936119 -0.10001308476054388 -0.7226082863690845 0.5321353077540706
P 5.200125125938361 0.3649502373247686 7.31253558534149 0.7414578149754197 0.09596334017120248 0.14175931545939457
P 0.899809644021625 0.40354115600252105 6.708662091738944 -0.7517728237481827 -0.7466753546206172 0.04310865826401608
P 4.155833880520307 6.416119144030431 1.3909314326023279 0.18672765263996877 -0.5778304957983403 1.6274108562841587
P 7.39901934975375 6.436433590164605 11.799428715366027 0.040171687122879204 1.2666552579590766 -0.11791233363846791
P 7.605848019645994 1.5858046125704288 11.047494808162421 -0.14011509498775224 -0.5057912705429031 0.29494564180880817
P 2.606647502808816 3.323174766775535 8.104958478159626 0.8007237997255886 -0.17731304419428817 -0.6962951023958525
P 8.04291640616913 2.359758894373745 4.019367997676545 -1.112624838441813 0.6603400244574821 0.20996811122514808
P 4.178107019807913 3.9422617099141015 4.492490328888227 -1.323548885822327 -1.860809687728421 1.1533490556340524
