# total energy = -340892.3303437428 ev
CRYSTAL
PRIMVEC
9.05095588714715 0.00000000000000 0.00000000000000

0.00000000000000 9.05095588714715 0.00000000000000

0.00000000000000 0.00000000000000 13.24698882548510

PRIMCOORD
 96 1
Ni 6.317078503711523 1.8130603436769908 11.467481544290916 -0.0890694412648466 0.7896040356633433 -0.057215787089359524
Ni 4.586381859208644 0.04036726355126814 5.9081970430477755 -0.4585631907938748 -0.22570249124126934 0.17994816782429007
Ni 2.712182308067793 1.5822338140025534 4.851166670523889 0.4249655573440875 0.1500961174598641 0.08561722105018804
Ni 3.216519675691955 4.260692260188726 4.708959860778415 0.846445984353052 0.12756271224403837 0.24665286824069133
Ni 5.458169936620784 4.536592550510096 2.6945963006507268 -0.8068890479960361 0.6905250326812946 -0.8659318609918053
Ni 7.514990626029334 6.0988147009001255 2.5486279136111034 -0.4732333912115399 -0.5100978683380569 -1.0193830109668314
Ni 5.012917209459106 4.53833033405311 11.623768926212781 -0.50458542316026 -0.33490392736930064 -0.660517944796243
Ni 5.717669894754956 7.816468917874444 12.539943796715004 -1.2929758981314765 1.0470316259220356 -0.6715502913510047
Ni 1.967822639520743 6.525739242256575 0.2416876768182765 -1.0140783109244664 1.0644171683883346 0.6200310404257903
Ni 2.2845970469267596 1.4047988734960375 0.46783214697812403 1.6855689526821291 0.3863095355347863 -0.3425524450534939
Ni 0.6105792987940042 0.1546165754529055 4.860850288298217 -0.30464384293317853 -0.8147656225306356 -0.45953198246504723
Ni 8.878191305964469 2.460855363159359 1.4250051326615547 -1.0931790710123752 -0.19855549851283225 -0.21279786736445935
Ni 6.72820912692964 0.8152241281826226 4.9525192752878135 0.5704604285865144 -0.14788805406495176 -0.579025544547706
Ni 0.6218296370438308 7.342578966076844 2.4502295408703034 1.751462727161461 -0.04386559103469865 -0.5059347380993029
Ni 7.888107234244016 3.674470894055972 3.9300373067328835 -0.4469798568316496 0.8846101541275992 -0.6681350950218686
Ni 7.46764507543815 3.861744223683615 12.479193780357134 1.4551945098864874 -0.8636340660965642 -0.09342617557164555
Ni 8.023735809202705 8.815929779962412 7.023924675119348 -0.6200847764818611 0.05561604670240745 -0.1752664460779046
Ni 6.722416515119593 1.0922693644320713 0.5075296397888555 1.0723415654417339 -0.4143728694299057 -0.5952116673892652
Ni 1.9445345298531616 6.347842702996447 9.381000872223732 0.2533781027796668 1.3830555258283923 -0.9101363234231615
Ni 0.3202382082493058 4.880356908568552 1.277670956368593 -0.12629284439267927 0.068845658018804 -0.14395889421387464
Ni 6.183205814207754 1.9231742738036117 7.041887202304067 1.175956251510607 0.08511714148531792 -0.21529440853406792
Ni 3.3254841344125197 4.549354398404106 0.5450512827884377 0.7455355845892192 -1.218430618624734 0.04619012540281723
Ni 6.3801184119255545 5.547520973790767 4.548035674121725 -0.41984083452301246 1.8893931557930688 0.9094382689148723
Ni 5.040468319380645 2.538304393250884 9.274388756955403 0.44606043034117376 1.705025004524212 0.6067811173944195
P 0.12796060507513873 5.441552381490711 12.379125506242968 1.1701848962444688 0.3330619890645554 0.28235237852482986
P 4.044799807837068 6.254210563660601 12.685713967819254 0.08586944627031018 0.685083292840433 -1.12020933565729
P 2.485881256369955 8.492077525000994 1.4029226103269394 -0.8521656604456486 -0.4740921396674093 0.643136516095002
P 6.503057546637859 7.706047255245415 5.691303554967692 -0.40108643673364475 0.5617135356318197 0.3475465558339757
P 4.625500090838371 1.2366502137975042 12.855183161991357 0.18391769399499938 0.008434503920598376 -0.189405456582448
P 4.060041617662255 6.057886278079759 8.115622019135177 -0.30668427040197505 1.7620340749194043 0.0017570919004227803
P 4.76896679365253 1.3540139596426373 3.9501856397803 -0.37362731208142747 -2.1789448802798153 -0.10546202369025708
P 0.2790654096182029 5.43326170583758 3.501470921966523 0.8095385698037413 -0.06101433489984331 0.7999820364635577
Ni 1.1624414259372242 0.909485308957215 2.490897296159218 0.8555579739566491 -1.226640922349668 1.1041299135969243
Ni 1.8239938984684556 6.429364663266911 4.7770094731125425 1.1962697662569783 1.2894375459609149 -0.17221171841198082
Ni 5.799309517452813 5.593943326874725 9.40206335182242 0.026755156606657147 0.6668929950846515 -0.7283737280979521
Ni 8.45580129354057 2.5089521430946595 10.102564803107054 0.6051019299197836 0.05189283221454934 0.7482493839759564
Ni 2.3698298991380358 5.3124404948183255 6.9665913946338085 -0.05369363286871399 -0.451027544538462 -0.11865409690049888
Ni 0.5349540363270489 9.402314063302326 9.330158937347825 -0.44650523118807617 -0.5925485187348053 -0.29625767575201234
Ni 1.4250187090954844 1.17668763060756 11.483523458622365 -0.7380179360559354 -0.3341955884483664 -1.2571743150518349
Ni 4.0531357382699635 6.863991568139534 1.687970701830207 0.2192559642849772 0.2905598540362867 0.16864714098917408
Ni 5.590386301185117 7.794511298731983 7.95999626209349 -0.6089074197088029 0.552650654098603 0.27839545075961086
Ni 5.36850211599244 3.189068126285902 4.785395183803182 0.020060775305617062 0.26375353247671995 0.6662713023402526
Ni 0.8519266596684404 7.344018068073403 7.066460547717003 0.4514108960198097 0.808542524439059 -0.4534394964140643
Ni 5.132878579662807 4.290198376596155 7.35276762719336 0.29635846299593477 0.5545692112775547 -0.5069251270370302
Ni 8.3886884551476 7.140588782069299 9.212936386415562 -0.2583976674814453 0.7228350576679099 -0.12425190270325051
Ni 4.518988441181123 0.48593315378892704 10.439223255646652 -0.3967592701132005 -0.7369259885433374 0.3802183350353839
Ni 8.363807377232256 7.11959961521383 4.679260053913588 -0.09992849546653758 0.770748336409421 0.26153878421358834
Ni 7.067520414659122 6.120636555703289 7.1133019600615945 0.12647847804092413 -0.5226579643912548 -0.8230080650450857
Ni 2.3405500566294366 5.153876797474229 2.664207716037861 0.3676073311395927 0.8386498853474008 -0.045092007242632015
Ni 2.457669426663833 5.113292310980085 11.553228490800333 -0.26018072752379706 0.0948197134850625 -0.5503016942504523
Ni 1.2079405815139563 3.1644404751372472 3.692558324432845 -0.2700715042749478 0.2579369257949429 0.07971473952282401
Ni 3.950099655698745 2.78431842701479 2.5420704960230105 -1.063668206037452 -0.3543512374606349 -0.25541827313814724
Ni 1.0223326277817018 3.6620529824881825 8.272678732313066 -0.6821761464959671 -0.5221200896099137 -1.8711087556615837
Ni 3.8315864384475553 2.4859808168854403 6.9370110603875625 -1.3114981253053801 -0.22097371830703233 -0.5395272293427675
Ni 4.456437284588564 6.389160316922801 5.872509123724311 0.02730460135222394 0.8529578173296407 0.89268984581194
Ni 0.6184020400243542 7.432608824943316 11.363783836839517 1.122218395667519 -0.9399320666283554 -0.13442858612593622
P -0.022706133199790667 5.635695386686832 7.87411626653156 1.007067169713956 -1.4330683674114093 1.3452700795495027
P 8.239791178761521 1.73466096321038 7.97684642679156 1.0681013021081411 0.21316990599189736 -0.41122763893270464
P 1.7867763675889006 3.330597924526077 10.201784097552808 -0.27390604752968956 -0.9290395880855677 1.7391911088829597
P 4.2122334420152985 6.122428644982023 3.8000049378400576 -0.7030190513832473 -0.3354569716592932 -1.0370698867236334
P 6.619054598134059 3.817475998116518 10.320821365153689 0.3336453723718512 -0.3352980774839258 0.7512120661487063
P 6.46515214310586 7.717849701808387 10.071142599324332 -1.0330517667031756 -0.010328378509201567 0.7937836209623297
P 2.388031371559919 8.376170983064325 5.8157596298977525 0.39883980679131315 0.4051174122699087 -0.0946775314802434
P 7.266225101655657 4.016162583201146 1.618384237175226 -0.7171745169480229 0.11242251416849026 -0.8740835435646624
Ni 5.462052796724707 3.3012094705460395 0.3977632663708377 -0.6916164659732605 -1.6198279017305783 0.6472957896790142
Ni 1.2722114197376233 1.054617387666763 7.049424838421892 0.3757235324888239 0.3276683288528099 0.3763963901861324
Ni 6.8320688464926 0.7742232977146306 9.329615879990634 -0.3559764317688837 -1.299299526356659 -0.47856765894025965
Ni 2.7447566985433567 1.689306622928899 9.039758110493835 -0.9665612391801097 -0.07935349952866333 0.6821923444458832
Ni 6.395097744028099 2.165957116292225 2.689973072349833 0.7371478747461563 -0.5143471305327142 -0.4974925208692206
Ni 4.155022349435126 7.0857218870810055 10.542669346522551 0.14662538530244426 -0.4495018519225549 -0.35681949649546935
Ni 7.835285855301145 7.014644729980533 -0.07303035339517316 2.401976766667457 1.2868186202808292 2.0015531603287915
Ni 7.381642891970851 3.9293548646540124 8.290747155682437 0.9916122686114663 -0.5315233852016846 -0.8040384659211186
Ni 3.051475493885369 8.49628621951923 12.34696202916768 0.7736495692166161 -0.19301939918595143 0.7370941386900854
Ni 0.310441453525563 4.946456039894765 10.273185278876406 -0.9625364342914325 -0.4341999314581619 -0.11577857512491672
Ni 8.841236252807557 2.313053252443617 5.637997949881326 -0.4038166911806142 0.5154118243518027 1.3961797219151761
Ni 3.277468813080798 2.6287867999150163 11.641612885874514 1.4550695542728491 0.38860527354749846 0.18747944320432872
Ni 1.0558392667204448 3.2821662592205083 12.66814877760088 -0.5021397898332448 0.8154441366548988 -0.39920670321242857
Ni 2.980724171199211 8.424575495502035 8.064408995065191 0.005809407592925479 -0.8325584277376823 -0.058591584390963604
Ni 5.762390668119714 7.986002373833817 3.5421522536893675 -0.27363633880807064 -0.9589687715448324 0.9107413039970121
Ni 3.2572037227015853 8.639942992408407 3.719303899274548 -0.011507486418967278 -1.1197084847614716 -0.8873247248452847
Ni 3.387546539383606 4.439919289973975 9.257525920918997 0.9471334694728011 -1.3997754096862345 0.5668737396765204
Ni 7.309660639275059 5.965810903167865 11.265000798470707 -0.782655115149336 -0.031072810145404545 -0.9969169686538315
Ni 0.41299874052685775 8.913155148811677 0.13008576953294987 0.12645739499500155 -0.5397437162289479 1.0528937411297674
Ni 4.930571612196901 0.3197684636353348 1.7526958980427247 -1.5998743414267866 0.07241872008204302 -0.1665025838423455
Ni 6.068041450659249 5.617647780516154 0.27216496079948393 -0.9706837459889152 -0.23627178211668343 1.4319813049948178
Ni 7.818994134585387 8.770466828209493 11.519567985610385 -0.5684372275088985 0.7954769495043527 -0.6852738115846843
Ni 0.18472910590919903 5.021008764081267 5.725574094588886 -0.8605914226154985 -1.5055148554075943 0.6450707570032375
Ni 7.867172373124266 8.710241767296905 2.3645079370375544 -0.2266437721086161 1.1308709291361942 0.14830611543897684
P 8.385882658802108 1.4957066750899697 3.577905339895695 0.07980858478821094 0.1350471935465416 -0.112807922532367
P 2.015521177394102 3.1834474826389654 1.6686432904877455 -0.9178902563369676 -0.1457093012460781 -0.5336365748899455
P 4.597261108264389 0.7934077039530314 8.125305636909506 0.8608768150664011 0.06019620987392213 -0.1661706544242235
P 8.481632721831001 1.5989509296481124 12.456223359243507 -0.3058879997529248 0.8367323566097139 -0.03774276596641241
P 6.285345852139606 7.546397443186935 1.4244358275320985 -0.2243207804023943 0.9076102145671981 -0.1838539306365995
P 1.9061675275675505 3.2239143067057188 6.045700976079967 -1.3248226103284282 -0.049204486749108815 0.6908505343415134
P 6.903951538672907 4.129290481660181 5.968205786113081 0.906052383161775 -1.2390938034010401 1.3130814106321
P 2.325091023861372 8.471305581088401 10.279292863953625 -0.1563230722061824 -0.08726606950752068 -0.40183128531946927
