# total energy = -340875.6297141808 ev
CRYSTAL
PRIMVEC
9.15070395038140 0.00000000000000 0.00000000000000
0.00000000000000 9.15070395038140 0.00000000000000
0.00000000000000 0.00000000000000 13.39298019871210
PRIMCOORD
 96 1
Ni 3.263772352336557 3.701029579861377 11.56787860452266 0.6797644517306809 0.22155170229768942 0.4864555463287687
Ni 0.3174763457055 4.7129784543860564 10.634293611618487 1.24997419775897 -0.11087316740349937 0.868842092660065
Ni -0.17134235218459093 1.1385031072525433 8.12078013838326 0.5621038290917029 0.3622041578461504 -2.6380351472217534
Ni 8.183785478846106 3.0536630437563335 0.6678824138907173 1.7323931121245195 1.2581248518905623 0.5997869454647735
Ni 5.922609981811679 8.276619368291096 11.04464136465431 0.04286028969863586 0.25819352189043915 0.011254232757580617
Ni 6.822233967924606 7.338004233540899 -0.3316700022770249 -1.8498956119190786 -0.6430614398826925 -0.17600820933993558
Ni 4.543690435191155 6.386889237481501 7.048457665791435 -0.06961467497434462 -0.8618402074209351 -0.6912097174531451
Ni 5.132089836393931 1.012424711119173 8.120203644047624 -0.7065761726068863 -0.20728387952476557 -1.2917389404005817
Ni 8.97859730431804 0.7886149688990249 0.04149112089910931 0.056265507360948264 -0.04273173454057157 -0.26003160354044247
Ni 1.7196917539079908 0.8167158650150046 5.482991872721871 1.4108278108456542 0.17709372909463048 0.5673637919390616
Ni 3.198674245928312 4.701604129636906 8.093082788302228 -1.6477287419059043 -0.7369329305218728 -0.029306462273601144
Ni 1.2061268078931013 6.938026973053918 10.938542615067435 2.002395710834745 0.5744667215324301 -0.9744992630802638
Ni 9.03978806022919 6.691690028365986 8.966117574557067 -0.5071143602297008 -0.11302440941854729 -0.9780281021691285
Ni 4.609996434493114 3.111742560395795 4.225806883169213 0.2657512796330391 1.7163787389741345 1.4641038965609752
Ni 4.312177630562451 6.11291716749797 4.02122917499998 0.19730825636929245 -0.4911483238187476 -0.007409662200509819
Ni 2.6480397990616096 6.972021837449002 8.485042202171988 -1.117699681861559 -0.041402474206186764 0.9446569829078505
Ni 4.4080495536492075 0.43393735220785185 0.5365414480363206 -0.528834782625928 -0.16100762216604528 2.170950549220429
Ni 7.052548030363335 5.692021398260742 7.36358045049494 -0.4696019651065397 1.0494749452562053 -0.8632825962944164
Ni 8.837987590645128 6.740939115896093 5.388544714207474 -0.3033076406202583 0.6410572649684702 0.3672594608818708
Ni 6.486046263211012 1.6908212836074548 0.5881166444572019 0.25249158640965547 -3.189365025626404 0.615347776017508
Ni 0.714256350305632 2.7978917235121883 6.458134786662455 0.6254756084801293 -0.40856706138140597 0.024245245700609857
Ni 0.7576508175827165 8.14040199241351 7.233494961193708 -0.685641222226432 -0.2919099403062779 -0.41841644337166006
Ni 1.065443888590268 2.3450874503326578 2.310717407084223 -0.025949887096542404 0.7213458747168932 -0.9276126258310541
Ni 8.16829333741384 7.171983015581272 11.125267300239411 -1.7260067489822017 -1.248603028443056 0.797625106195607
P 8.131022521079739 3.356295117854376 2.88949484330411 -0.34158673870611495 -0.6933144225009736 0.3307827061120755
P 8.737348150909694 6.602003981007649 3.154047178857414 0.2710510945793977 -0.1431194290317148 0.2515695888160184
P 0.5305706138457977 3.0998374948297105 12.105030404498455 0.36149659025616454 -0.8725704493542454 -0.5310870689952144
P 6.7314406854136974 7.004808808950372 9.37262203202198 0.7567173122376516 -1.2138555976595418 -0.330697859707753
P 4.039230439397829 0.43750978694805137 9.998904431639078 -0.015512750923618446 0.26429346414058996 0.03697349190055568
P 4.535463952528657 7.661994050168719 12.905743518812486 0.6933936124783413 -0.9030346793813739 -0.2639183401893584
P 6.312558070999329 8.600197403250604 1.416347755058956 -0.2742940269967276 2.885948370232107 -0.15617909042915037
P 1.2561537052411298 8.767636980289971 9.36640687404159 -0.21439992174425657 -0.3513828988609303 -0.6397729989394079
Ni 5.178172780429905 9.036713423772461 3.413522703975618 -0.9148548119447534 -0.5124242024783885 -0.901331580647338
Ni 8.372299126599305 0.9370869672255717 2.329400398910722 -0.7748037374257173 0.04840255967310374 -0.7281824380227524
Ni 0.07155118268587964 4.725707083288764 7.3348124680762945 0.5883676478842383 1.6395374643443634 0.11920765541112374
Ni 4.8145055123842955 7.922697599728868 8.819397935996781 1.0559536110020136 0.0443939527343429 -1.0418711647670185
Ni 1.6427343354523627 6.944652082561871 1.498620817317304 -1.6579671318044609 -0.5937332830715258 -0.209200122710872
Ni 8.291370302720402 7.823147093738526 1.2885746485928884 2.2508660919001495 -0.13986441242952688 1.2988117880869634
Ni 5.308112773541667 4.763938723515592 1.9477675542118502 0.025825959924168425 -1.209039407217821 2.2321088658973043
Ni 1.6615664837498276 3.55536867772384 0.4571746492858807 1.6645856655622426 0.3070287982255874 -0.998231573700197
Ni 3.951649053899753 2.7684447588760155 9.249286101799566 -0.06411354265045734 -0.998591528142777 1.3371538782002714
Ni 6.690445532657311 2.114169441447072 9.411622331362988 0.3640075296034763 0.7961562349595643 0.05138606778145989
Ni 7.754452760760357 4.555375883867473 9.282634011440212 -2.089089452778563 -0.79008508906482 0.1082239027061104
Ni 0.5541812596364294 4.800056551178417 2.121970416385648 -0.2848669174165675 0.5283912673306062 0.5914987373140523
Ni 6.540465498354368 1.8139348517289793 3.7996284126627313 0.701772580570656 0.14785488683417117 -0.2701982596607992
Ni 2.7221147458390544 0.14637191181815595 7.67216871765752 1.1773094231043917 1.3503060993115132 1.1217401704795198
Ni 3.0353616362758036 1.6328881782278373 3.2451726319140946 1.1618013001664638 -1.9136836529093169 -0.7422965088266313
Ni 3.7855271781989837 7.443877875815764 10.849412015426132 -1.5854743639513726 -1.1188970446037698 0.023587557511952927
Ni 2.388178114245566 1.5563516921442615 11.108017308618637 -0.4310315610325092 -0.588643013032812 -0.3300041760748381
Ni 2.5388261499215474 5.884177026102566 12.529936012114666 0.5583759866181545 -0.26150973074786577 0.8347546640580528
Ni 6.781687199651492 1.0978922840532477 6.391464589351633 0.6544285440690535 0.7616296619376044 -0.8848952894681857
Ni 6.0802217030340024 6.906200825445277 2.4922463226724765 1.2475558181254642 -0.031229390327926862 1.1953716799227414
Ni 3.377954833607583 2.454831840289655 6.677726054458342 -0.2288556921582704 1.2860202927492497 0.6025655366511752
Ni 0.8080592992767139 8.495302886275947 3.7508112383491663 -0.45159627255773843 -0.043942467019221096 -0.7933141375250788
Ni 7.42197109106157 3.4409116753406055 5.383777197558795 -0.7507911765612038 -0.020220697922249047 1.1175287035013335
Ni 9.229582806506027 1.9276323457017712 4.321084010512852 -1.636189116697421 0.20712549957003037 0.3067907140728523
P 2.1160544864175668 3.0134731529290897 4.489300482299767 -0.8170952991050767 -0.06787635212699923 0.7960742167687194
P 3.8424903089821325 4.9504849699646325 0.6072333796409893 -2.1760629307463297 -0.23625969793182539 -1.0289984225694084
P 7.023604354432877 0.9444624344402253 11.381475109051967 1.715182661783504 0.42940482406236374 0.6160350318925197
P 1.9911473803629502 2.6799940565226144 8.296120433031973 -1.1630516276337968 -0.4701120719737388 0.004093710453399402
P 2.675629170838508 1.6274709616136007 13.26728690851998 -0.12791675314934745 -0.43552662068938536 0.333949019655199
P 5.285483083191992 8.278440358335407 6.418411581725966 -0.6229081048632691 2.403137876855094 0.05169485727113032
P 7.1853796458570205 5.2515156709081285 12.59369994591758 -0.32523992191697537 0.0872375302624304 -0.2086509350756213
P 7.698624317241 3.1204906331714883 7.537944365054566 -0.1887271995685008 -0.8151448602469251 0.12069889524466955
Ni -0.1592945356401581 1.9765794600084485 10.167039462162704 0.5961578333526184 2.219781454680203 1.566586011687302
Ni 1.915919444914232 0.14203264810452232 1.5900546490900314 -0.1223487721432667 0.5173416943846638 -0.15145803080439724
Ni 7.071288671623397 5.121081539794392 3.8023745388551853 0.12243233299600849 -0.19792583534863334 -0.38051863988462203
Ni 3.8484657185245257 6.998998112075303 1.8967267588894006 0.5418687329917508 0.2125222451055695 -1.2560759397813335
Ni 2.9794416857190447 4.196531036692983 2.665390448423526 -0.5865843307315705 0.3517904187119942 -0.20726768157484948
Ni 0.3597983505042253 0.0603003924372239 11.26717915905456 0.8289169743303532 -0.6433833419984856 0.9876340006900086
Ni 7.407924760820264 5.333872004570512 1.2942691315304553 0.7476076366268994 -0.12143088831468764 0.6814786062083102
Ni 7.516461257883546 8.718479399797268 4.126724893210373 -0.3236419813022362 -0.31265874281785505 -0.6223661163168701
Ni 7.203003901260771 8.208986516946798 7.509202919676768 0.353349792779314 -0.580059128018543 -0.7228749097669098
Ni 6.232114234418661 7.012111070535103 4.973563044797581 0.18957386383951222 -0.17059475163384813 1.5026588740160378
Ni 7.562699763883105 3.3878192922395884 11.719500275076605 -0.7048345073254312 -1.124351897070754 -0.8111889609229707
Ni 2.017794229654602 6.237000710215962 3.951665525166486 -1.1615470180638126 0.17613779293926438 -0.5986050093415303
Ni 0.09937481247852922 5.493917812987746 13.179482245850641 0.7723930711016956 -0.5876598231839363 -0.6556873561768191
Ni 2.534735785349649 8.42288421687549 12.700027463097964 -0.6561738088949345 1.213596173350568 0.2741150782167021
Ni 7.848302378320514 9.044464069840467 9.60425288072893 -0.6674421827199021 -0.7936126426021042 0.5813444224888697
Ni 0.31158146235602124 4.659044206540934 4.556974511810897 0.4798632378232316 -1.6285732520233758 0.21699030817925213
Ni 4.955444651391857 1.3459861638593107 11.894747232547168 -0.48317301892275494 1.3560350313754905 -1.4369857001879445
Ni 2.9140324553836305 4.66959496795346 5.608310760444798 0.48794395794883705 0.013188987886448253 -0.046755253877667866
Ni 5.08855078799775 5.422597228036122 12.098789624547596 -0.6489693207266952 1.5817822598117661 -0.42851239415508136
Ni 5.4513944927067355 3.477404681856782 13.3153939882233 -0.40258976075204855 0.6339983012391597 -0.4880326610079015
Ni 2.775435896533578 7.827777349831099 5.708168730080814 0.9972003042222052 -0.31802720621862 -0.10233273403265603
Ni 4.1992853985188034 0.9699013908381618 5.2794051857677085 1.2377041221423652 -2.2919914011855496 0.3280848475649382
Ni 5.011849589246849 5.418323849389418 9.588596941699711 0.11638792657414149 1.0510605445757704 -0.47830952018286654
Ni 5.500652730940582 3.9099584476591063 7.78714731015395 0.4771172996469783 -0.9672225269131923 -1.3228539166378315
P 8.861797721777297 9.185659428552754 5.635846143069631 -0.4082279328744324 0.4796038135142579 1.384006833998068
P 1.6682464974802211 6.120219429082701 6.657355672862138 -0.4808016904771009 0.27044380001270196 -0.04882113526776108
P 5.5755603917583905 3.598871123305059 10.622789346876226 -0.5812642040702376 0.2805389794651749 0.5293063229457078
P 5.280605758098431 4.934169265195741 5.590042295497733 1.0147557966074652 -1.0021504491386288 -0.0706873392132331
P 2.4572476260770855 5.209486488629092 10.197387771117294 0.41232292887941246 0.9274740433706608 -0.16684762588659008
P 4.9972908195960875 2.2944749079452524 2.2205024490496985 0.18403673607136695 -0.016708828114248644 -0.5830475212229056
P 0.6131300931312161 7.532264523242983 13.00510552030578 -0.26133900949795635 1.4918952077416305 -0.3217018268567298
P 2.9623481711322297 8.203441190480197 3.5097240523970243 0.3774027199634597 0.7842116610031784 -0.2373591016435912
