# total energy = -340864.03136576293 ev
CRYSTAL
PRIMVEC
9.27257660561937 0.00000000000000 0.00000000000000

0.00000000000000 9.27257660561937 0.00000000000000

0.00000000000000 0.00000000000000 13.57135314873119

PRIMCOORD
 96 1
Ni 7.6233281654810945 1.7327941745328923 -0.09210635615883582 -0.11223096698297445 -0.20752530611161035 0.17598301252895496
Ni 2.7493467281604413 4.128855740847036 8.005401895358473 0.5288558656718504 -0.5166624089294521 -1.242372474152312
Ni 9.307534039539588 0.7112149572245853 9.456125222257553 -1.0703733859717695 0.5214474890229213 -2.818530445798765
Ni 0.1735891215059314 0.839396271970377 11.689711777170464 -2.16868180779091 -0.44521993671774934 1.3406086695180912
Ni 4.35895472486845 6.725603678758015 7.374062765986286 -0.5661024087281348 -0.2685686944771762 -0.27928530956373193
Ni 1.7312363816932552 1.217609828281441 5.5580527815722025 0.42757008484647013 -1.7291167553660929 2.20879898752677
Ni 0.2308639715765931 4.974913431722147 7.947452001723969 0.41943665710605826 -0.11520907577469192 0.15192160070437705
Ni 0.38964386127190187 8.13154880683631 10.386671847757203 -0.01898399730167053 -2.3401088255180666 -1.2351147641486342
Ni 7.74097861517941 8.525438580853866 5.010788102658293 -1.2292446785211024 0.018190297755781574 -0.5243811177299484
Ni 8.381324198034571 1.6037570009829427 5.684170948063117 -0.41863395869910486 1.0358383283093775 -1.7914161276259473
Ni 6.698305213758657 4.676976278565102 11.321344769766608 -2.3556812260350264 0.11580788570095538 -0.569339941828826
Ni 0.9879837456577737 1.7647382003218817 3.662989446834742 -2.7880513033733014 2.1337220038862736 -0.8873941446306395
Ni 1.6799775792080496 5.503274109075531 6.043052109782755 0.6029663716340197 -0.8696103382846572 0.34735243754529854
Ni 4.201265290160888 8.582279474347771 1.3046292490127471 -3.1278326134395615 -0.564843339510053 0.7002183487096586
Ni 0.7869978698423653 2.6230542372327097 10.347898569430162 1.160976233162007 1.3833437464927723 0.3508527373890732
Ni 6.932567584595532 6.798041045801145 10.053699191830605 -0.19664002665767424 0.09390697186280601 1.781230959562829
Ni 7.842457691590063 4.678024079701287 4.518555237577496 2.906703857611904 -0.4334720521532019 0.3080104454125663
Ni 3.9640171497147096 4.685219599008183 11.485843057344084 -0.5664572209643922 0.9382536504846679 2.7087708231744188
Ni 3.207031827991712 4.388589879127263 0.5478581238051995 -1.5721701906432988 -1.0551431992855764 -2.004796349856438
Ni 7.090359017643784 1.4044707884264955 10.300167982275207 -1.0118897879135798 -2.554158563011756 -1.0734867347897705
Ni 7.73425599727026 8.251471037759096 8.493454682986243 1.0767862314766488 -2.052311364718266 1.5816727308170953
Ni 5.710200924607341 9.43883372173758 13.467911903948211 0.3927460351887494 -0.0012847802496945614 -2.2358719324841623
Ni 2.3068037456335015 6.7178239871362555 1.1951581389801693 -1.9631408790991802 1.1116419057032532 0.28136636046247676
Ni 5.07399091083836 7.990410921049892 5.305680141716904 -0.10086154880376823 0.42555459707833804 -0.8636032128586288
P 1.992815762682338 1.4513900251441405 8.847056039688681 0.2164812297533175 1.0377041778735225 -0.5505945429005228
P 3.7353832327686685 1.0034874934427345 13.25747449098136 0.19986444713224288 -1.0061981368454411 0.6772008047685627
P 0.12744229040460672 7.849041220852815 0.7000526297224704 2.0171574425249514 0.7274386178781923 1.4765035557769088
P 2.1195718824313903 6.262317942765192 8.171705553566174 0.19840714586042604 -0.25858638645348364 -0.799480928457423
P 7.321635618871353 2.1799827178494646 8.088715994549785 0.036785030038833426 -0.5786923295780034 0.3817609969321554
P 4.136227439106033 6.425765647433556 13.665266638835035 -1.9321009790742405 1.3035336190426645 -2.415633438218943
P 7.679844518800075 1.7530547540246026 3.6309480589932757 -0.28125040370990273 0.4542761333827467 -0.9625742295079035
P 4.170341247778803 4.788877730879044 6.025558467096685 -3.1288805950881016 -0.168635056804316 1.4638215894338662
Ni 2.161901193817961 8.582585469369842 8.392090586523278 0.09941504616522877 1.8582645527090642 -0.7882408367672296
Ni 3.4451052277398406 5.871988838095378 4.259803065140826 0.09202235324558346 0.04810945391271714 1.3991730002155454
Ni 7.6454061699523805 3.8613511835214758 6.8232559628774885 0.4490868758723234 0.41806985866551866 -0.6041279960422886
Ni 9.196485664256876 9.326357369685203 7.149985393096184 1.7474867732328485 -1.282199890561895 -0.5769673764670966
Ni 5.824179434040797 1.7692817627708237 5.665320727445864 -0.17555286697007186 -0.40537606524793407 -0.35988990789067693
Ni 6.519223945235363 5.580217948261898 8.225013595441615 0.0999827457432407 0.26588317722521304 -1.7540618553472047
Ni 6.163991542339518 6.627166007415225 12.457375397906118 -0.28761311270313694 2.149931009545968 -1.747536138413545
Ni 3.4176954918233666 1.7908312303858052 7.100912136874684 -0.4337918973864658 1.4614451187818895 0.491005113372664
Ni 3.8164348233119356 1.2507963793115695 2.2448239902840785 -0.10651566176575204 2.1490509209338597 0.7436648499290676
Ni 4.622963520881253 0.6780692055307329 10.947345599441347 0.9532131000079777 0.12099174389474 0.1190590456484014
Ni 6.8271662083565055 3.730580038179787 2.8041532183863924 -1.7474237812053968 -0.6934540334026315 0.0656852580129514
Ni 2.3439775045269875 0.5003111336634866 10.826234624220696 -0.8570468997973498 0.028133267901106387 -0.6138591072871235
Ni 1.5009241284140336 0.1003969667416908 13.35801147362709 0.6793255644210494 -0.6764258742757512 1.1363193538452752
Ni 5.246052839006861 1.643193268524473 8.781153984510887 -0.18069301641011462 -0.42413843345710184 -0.682164062311109
Ni 5.50133614060241 2.5391466931501077 12.228073855457374 0.5726754339599621 0.5005212803932154 -0.24012020932849615
Ni 6.407007225322924 0.765370512585402 1.9307831536472841 2.0435068790527584 -1.0326175073792345 2.5329875853610955
Ni 2.048989030673542 6.267974214385303 12.198270867565245 -0.5397311178234575 -0.6908582476509972 0.9968485773097413
Ni 0.28838825395312534 2.394577954085918 7.532941872249357 0.9582223802971108 0.7525770648170329 1.240695086449889
Ni 2.0764451294721478 7.919123353483638 6.230038249709565 0.4655879588511401 -0.41778420910429986 -0.8254557552546301
Ni 6.256262950358745 5.971808123325703 3.122184971917114 -0.22516281668771546 0.2083550011017573 0.4032577333533507
Ni 5.982629220015326 5.405587516423279 5.327420624406269 0.1817487113681386 1.9592855099088318 2.022705883147007
Ni 7.962602464347083 7.404495361817771 2.6621706008875288 1.9242056354865635 0.8240444767294002 0.06163962718866803
Ni 5.548533554612848 4.91182282171684 0.2659087469225747 0.310413141316788 -2.2470770571713627 0.8527487866426281
Ni 4.207403735755173 5.702838498924769 2.135995469797851 0.2390436884348657 1.1447775119149572 1.0454858787014705
P 0.537827050627107 8.62433060844155 4.840087388709189 0.6405487007631677 0.582862401795293 -0.3968238048025488
P 7.42527520558936 9.264509284921035 12.237125744564837 0.5572225897400016 -0.4632150877435893 -1.4845793908065077
P 1.781197023478763 2.046522525344116 1.7125688308316023 -0.5090514293514137 0.6443837582385419 0.08948441731507814
P 3.850975170500321 1.4797177461268292 4.763571942553722 -0.4529417308420393 0.3587187704007112 -0.8543300150868189
P 4.667221528164518 3.0813327819552705 10.280123453814232 0.40728845177929857 -0.35163692385326534 -0.2383680025240798
P 6.725038051596004 7.230820005351074 6.542328423917054 0.35300809316917914 -0.7196252924813606 1.0021586766687451
P 3.161503477738029 7.786868595913723 3.225422128818215 0.7148641236472913 -0.8962497952490563 0.06498643217371389
P 4.31331510369765 3.6292956858740886 2.320728373653045 0.6089182183420803 -1.2860840561076496 -0.268724246218434
Ni 0.6165493699720597 2.3670198569466216 13.491322377651974 1.648721959057109 0.9147170008153085 -0.8197479062365753
Ni 5.698712202415017 2.533444058647864 1.0257305497744118 -1.3282725165502414 1.9698239475463108 -0.6052286853056351
Ni 6.8589989632283785 0.2609887178707205 7.047630985470878 -2.0238109432857274 0.961875403668666 -0.4674522657533885
Ni 0.5839210280428011 4.638476541242641 0.973833794031069 0.2842233702952976 1.0804654801004487 -1.0689029720738301
Ni 8.879854997024186 6.75272596480527 6.545001707700788 -0.46987604470353267 0.7577845771599014 -0.500796388431473
Ni 1.6067056802865418 4.774069426326062 9.94423271808624 0.2401423208156832 1.3982792847566823 1.599373490530968
Ni 2.1007670974386268 4.231187894288919 2.755446228933735 -0.08637081138676093 -0.14465077807457669 -0.290242579906184
Ni 8.827984204494838 5.045218106187202 12.240939555249023 2.773613787791733 0.5334992779811327 -1.7606107122093162
Ni 8.022225130768913 6.329136128493916 0.576496476098173 -1.4139074782122425 -1.753225732599155 0.6374353519451668
Ni 2.4505564979721672 7.260529340221297 10.094141533914401 1.7500373075688438 -1.4653711933091733 1.1750859330905117
Ni 1.1485105887518186 6.610466097271257 4.030040675643691 0.572707315639162 1.5902568729416806 -0.11360033652667531
Ni 7.891240716169416 3.8766323894722023 9.50769651056833 0.5134043070034706 0.009679689181609136 -1.7974985863746014
Ni 5.383537329681272 8.3669053416915 8.99136051032472 -0.4191065274601492 0.6321771888700208 -0.2192027424495386
Ni 1.7382464494716225 9.246399943160252 2.601885872508854 -0.37190518718399823 -2.076037504690612 -0.9461862750681834
Ni 8.55245886856043 2.9069527096801666 1.7558615629088774 0.5416422188032414 -1.1066596219973133 0.656676716673282
Ni 5.816242108619789 7.202028655547064 1.063386482642071 2.9712773706179147 0.4275456593664378 1.4279477583553923
Ni 3.4599784403278053 8.28172745463848 12.295184127343532 0.9352431457931183 -1.3889580073557564 0.44253313391420557
Ni 5.3256857253568874 3.490911755286316 7.237969161775837 -0.24531615170713875 0.7324342713205708 0.6595496673457028
Ni 8.967007942856032 7.373228234107909 12.270497747123496 -0.987828376089002 0.9899377091225209 0.14922477059850428
Ni 8.016550313995948 2.8488692909451214 11.488055494079427 1.5260227455529587 0.4689813008034053 2.615758338101424
Ni 4.4259490895492775 5.205837675045513 9.448728488042205 0.48566570343762167 0.5877958345411682 -2.1738044737294566
Ni 4.894956005197197 3.5453881417914865 4.391988278387543 0.1263100707838599 -0.26978174094867086 -0.7707259678119178
Ni 3.0976432438893293 2.623017146927004 12.13608711553444 -0.5707992999831719 -0.8318189784684964 -0.8321884459927732
Ni 2.5378392598739836 3.3703868068958123 4.900330390493945 -0.007993559728437847 0.6009817371038231 1.4127805636966506
P 1.5773208855912422 4.054424769872226 12.151775387590288 -0.20974956745643877 1.010092329693525 0.11126474641496321
P 0.4334410215067737 3.5689126681852934 5.60067974266206 -0.3699537198845822 0.32851190780002776 0.1442337451418161
P 4.26744366811619 9.229440400876346 7.063631743352294 1.069268840053681 -2.4018402410895923 0.5858304832846813
P 7.4019361307240805 4.168264190659287 13.372329258887113 0.13772885414376282 -2.525121809459774 1.397810829760696
P 9.226742081136258 5.294121875201381 2.969154079606181 -1.0063153791495958 -0.47131303426037535 -1.1235288869488262
P 4.608340667856801 7.179459204525177 10.64482593901437 0.9245422144358464 -0.11073869870816412 0.3964869902884204
P 6.025681792363157 8.34690439433973 3.111463091795254 -0.394952555921765 -1.2344750736821062 1.0671862464930395
P 8.909703420540806 5.857032172319575 9.869332554744256 -0.7521836860333562 0.761176890670902 0.49568169291272696
