# total energy = -340888.5328596117 ev
CRYSTAL
PRIMVEC
9.09902716181274 0.00000000000000 0.00000000000000

0.00000000000000 9.09902716181274 0.00000000000000

0.00000000000000 0.00000000000000 13.31734599507326

PRIMCOORD
 96 1
Ni 6.309574647100295 2.037381320185513 11.248615640587175 1.12020933565729 -1.9521013334555672 -0.009802845023034731
Ni 4.791201823571422 0.6512492046888859 5.825632890367656 -0.22184686494060502 -1.102549970704314 0.5824240287062937
Ni 2.4767278359826013 1.8085498916718763 4.617709767004069 0.6317305882509057 0.04033546639425312 0.43032990697979434
Ni 3.2996620304885593 4.327961263029938 4.795376457131486 -0.45364698443918 0.16727931410737 0.08616358047196129
Ni 5.383066228936508 4.762840156599495 2.719575405594588 -1.120456932891722 -0.44712383860868155 0.020611505602764504
Ni 7.3720680228821305 6.457197260174582 2.5114115068724288 0.009530565198254555 -0.5791296742257381 2.2959740399823816
Ni 5.132242452308931 4.4623811880143105 11.695879219724741 0.38367029813972636 1.0156893641653284 0.3328555294807042
Ni 5.818645747580443 7.999718901202169 12.391697278171055 -0.573565035653767 0.023950340168010367 0.88663566919806
Ni 1.926100220709519 6.545621603977339 0.3778798591094194 0.7097309161857841 -0.80612105948176 -0.28721150638934406
Ni 2.7348854283238033 1.6991704888263386 0.2892917328217432 0.5527455278052545 0.18695365260784577 0.43070580226197436
Ni 0.7987016659593954 9.116042120360946 4.889609619732728 -0.06310669865249777 -1.0416554492117867 0.1552756047782745
Ni 8.489419432085125 2.2406808791055575 1.4260213396988197 0.42444490895392706 0.8986172670399685 0.04677736536485492
Ni 7.1024820527043095 0.3403773096735847 4.796894174825075 -0.27312468927897476 1.0963728953593246 -0.48318818843140654
Ni 0.624183239153212 7.230942115042992 2.1482611525734545 0.6149405132767602 1.3809703611645894 1.851427732292889
Ni 7.686721473493689 3.8611993790626813 4.011344242404731 -1.449101252504556 -0.17495765658823417 -0.36859360631226196
Ni 7.484804966668523 3.628355279668512 12.603962108335065 0.2792166611093256 0.5971741904322748 1.0096195038221645
Ni 8.018208123944216 8.863380340291494 7.027123911587369 0.2555635404667599 0.5913969216288654 0.41854525564004047
Ni 6.955141509465162 0.6476541791448986 0.4381791106406879 -0.8699358399448761 0.8668011509706363 -1.0614935669836363
Ni 1.9822048208214555 6.307581960200439 9.469871431462604 -0.4795536770026128 0.7767441489815398 -0.9435840615586459
Ni -0.15208659569104283 5.151405003044537 1.3137611849240831 0.03579129866699642 -2.4498594492813486 0.38492782469591125
Ni 6.7937338705768 1.9061187575493161 6.8629347001634535 -0.8538556465535617 0.12329956609231021 0.6062828376017623
Ni 3.2970870058645443 4.367214465249026 0.47034872038699843 1.4834126241919163 1.0532333838573733 -1.2867090912861583
Ni 5.818946015469462 5.576957394000609 4.856995977471747 0.08770521392746831 1.007143788588162 0.6522328219693154
Ni 5.507822987310617 2.924609239049393 8.970484076499343 -0.2593278926051985 -0.3387549256842747 -0.26225072267894833
P 0.05885341615050519 5.872284511391643 12.695918694395923 -0.09574299663028027 -0.6538855270813899 -1.7625552375301967
P 4.104188893494932 6.06327308686189 12.840304783587657 0.3405852940247941 1.499071927995728 -0.5725751609366719
P 2.6214387604360936 8.66542191018522 1.4340248437952288 -1.8098879611778893 0.3059628188549182 -0.517040103983845
P 6.437889125007938 7.807183491152126 5.946327843115757 -0.8429294865593612 -1.266490450246438 -0.5300614559441774
P 4.992081041325431 1.1680693853664603 12.606745500676006 -0.968099787311823 -1.5699916949347414 1.0331358417765497
P 4.01341700074166 6.207692842453303 8.444235484106557 -0.851070884719573 0.5099891106743345 0.05296575356375394
P 4.568575931430853 1.1966676270388275 3.7983332920316433 -0.9174122882592844 -0.24912087016520967 -0.35632533046787024
P -0.015058889585672159 5.565265144382731 3.7046588096845166 0.4283169903148236 0.34286303431537724 -0.40998476766453906
Ni 1.2994593343798175 1.1612178180806532 2.3959503144202063 0.7120968453147994 0.3138926152249562 0.84120350500719
Ni 1.7377230659710474 6.43173818279651 4.627364744490085 0.9088181188323704 0.6166261285092994 0.5506521356113355
Ni 5.994766513030757 5.730703652205505 9.08655854336732 0.9425016271277445 -0.8422162625424205 1.611997864163198
Ni 8.69169080096095 2.211245526954712 10.295027608347304 0.5278071126923619 0.5596918772161006 0.9622078473074203
Ni 2.4083031533939274 5.489370160676332 6.915271393219544 -0.20898723536911748 -0.1681807428757168 0.30629937625873055
Ni 0.35956988719809124 0.11151949398182183 9.093470164230931 0.742380069679373 -0.7226283409737425 1.057827945206591
Ni 1.5432404641558468 1.140126273633772 11.713098218305966 0.4937186556490852 0.6374412654824376 -3.2690093169226087
Ni 4.0321700952649655 7.031946395865559 1.6981750552791046 0.7865012283683035 -0.4142124325926415 -0.786670149846
Ni 5.724707393452056 7.887646186382398 8.028321692388008 -0.19191151083375335 0.9572839276432417 0.7824957067533364
Ni 5.304168566339913 3.135242613683064 4.761230538733812 0.11282592025449602 -0.9307012920587068 0.388508342958318
Ni 0.6089687562068661 7.277565529083466 7.150389339446014 0.4080597827276843 -0.0708079239514974 -0.28158876088592794
Ni 4.826824514041456 4.690830457396467 7.186106659796224 0.8210020903586506 0.48809102504966256 -1.1630403147798873
Ni 8.375272139123036 7.040408490919744 9.41328549282554 -0.10261992625577165 0.6569482251671137 -0.8133301756356895
Ni 4.560314014969349 0.0887619177022299 10.690020007422751 0.3326220733136594 1.2195395354181964 -1.397228989115297
Ni 8.298112390671978 7.261578538749915 4.897907022399298 0.15441634210177277 -0.5886998344126764 -0.20947625919039406
Ni 7.25334391936923 5.875250794174078 6.887358308275757 0.6767238651321442 0.6154457350479531 1.169082150098593
Ni 2.197478699194517 5.264296630288907 2.4667189063486195 0.2662814411048962 -0.02785173210494558 0.6973153161302507
Ni 2.640601311171698 5.00344572597347 11.270869130774292 -0.5721635273205502 0.010758009847452442 2.0800718226609853
Ni 0.8657414766478034 3.4850092092560168 3.595163849196841 0.7581584155595524 -0.5373410203247262 -0.3798172429422233
Ni 3.735023172485935 2.8357026468188176 2.5684760543265335 -1.0245223890759259 0.1549390473744622 0.5071606400866039
Ni 1.3699040009491672 3.654942636387143 8.334194582002482 -0.9379212068459136 -0.8711540286226933 -0.35713677062557203
Ni 3.8426555621589955 2.685450414958875 7.089222950647366 -1.2034853101688112 -1.1200363004145355 -0.5041257099150221
Ni 4.284568003553159 7.133254961815332 6.2172695683076356 0.39193665191357663 -0.6582548597936791 -0.9570381301810228
Ni 1.0866512923074911 7.4830397554421655 11.669310970962686 -1.0886464732493446 -0.09669301924837542 -1.139693412523831
P 9.266176064870669 5.421509617757937 8.113007246021125 -0.0745452795067426 0.9894114043054058 0.33245058073280165
P 8.690644412862852 1.8686580636374053 8.117761487597265 0.5059159690462254 -2.176591806666606 -1.45356854424729
P 1.8110521240803716 3.1360888231884823 10.43845557000226 0.36510179110891955 -0.12117763465330098 1.0037026241170972
P 3.9180319013298166 6.188630381014039 3.730961366859926 -0.5679620876446928 0.04385582084268576 0.7978444212952647
P 6.803105868324982 3.8466227379048283 10.443169775859866 0.592787888439121 2.7364063255035003 0.699731381770911
P 6.513365553475098 7.696084372214931 10.227228938812102 -0.8295391812953842 0.6615309594417897 0.3427028545884292
P 2.412779874648399 8.084876694333472 6.155730119404447 -1.355327978006137 0.13777153445624013 -1.4936540994142662
P 6.960400747036472 3.788070499546037 1.7192693294340675 -0.03839891149317257 0.07493608718725804 -0.9732255385741626
Ni 4.999888006439936 2.9049098457243296 0.5800393099538836 2.3164397640359007 0.0831060245925601 -0.4232783994496517
Ni 1.6380705229243515 0.7359620554028233 7.178236001493139 -0.7375055151958911 1.8891018498048948 -1.1675533721588924
Ni 6.912248696470081 0.7841905377955102 9.17134964571294 -0.3939444263722248 -0.9429574837182405 0.24515700042145522
Ni 2.808933309561387 1.5240597153663624 9.257526529861522 0.41830100083971833 -0.2402024846296573 0.14606257082043878
Ni 6.244680386964335 1.9051542606936778 2.73472983496313 1.5266619217988546 0.1706078642599707 -0.3193186713365339
Ni 4.214123336983809 6.857572643587722 10.758591184345159 0.32022344253899043 -0.804785114279156 -1.0036234341397297
Ni 8.20061631701006 7.617414185291837 0.3515354464100861 -0.4097399986435846 -0.9163527366465185 -0.8342306732337826
Ni 7.884516121115044 3.717270970926027 8.654330196345379 -0.4334550828723374 1.7966370097052542 -2.2472251527134524
Ni 3.1158980824086595 8.214856294171133 12.492842061635907 1.2094381853181364 1.0897944708108587 0.9058006721622851
Ni -0.10440314501206098 5.150777170185678 10.541198142597773 1.1737217057531333 -1.9225981817901279 0.3775682990070465
Ni 8.873443864087115 2.1832205239795637 5.705018009056627 0.8097476004907539 0.26186480009443935 1.207559223127869
Ni 3.9758016233717695 2.564997496327378 11.361600077906335 -2.0720438101501863 -0.27924674301631264 -0.6476377463994653
Ni 0.9173365990082841 3.4978752333491534 12.498728222163383 -0.10224377386327553 0.41534294665265886 0.20033444479012594
Ni 3.0357902492290476 8.295118810808724 8.205722690928777 1.4478434688380548 -0.41987271620221234 1.1252893212833588
Ni 5.3627117056717655 7.944788075565492 3.6387918635686725 0.3503241185791128 0.29507291141529185 0.33974171507757617
Ni 2.8973758514180235 8.69799642663036 3.631160509674109 0.6329945425649937 -0.7451301216206845 0.1426301481001221
Ni 3.4790493466103283 4.168391627583453 9.296212862702248 0.8106644558780685 0.07002168060477618 -0.7162430062726891
Ni 7.155520280737471 6.086266327939228 11.72360577461626 -0.19961787833907554 -0.07009418571392445 -0.6118053100818883
Ni 0.7580917988235565 0.26689902752244454 0.25576090864521117 -0.7656562665984943 -1.715652145220755 1.435870869857211
Ni 4.566191986372578 0.6345433912270768 1.4199222619409488 0.35963356890549675 -1.5808736319545678 0.5966378583128306
Ni 6.257510014949711 5.649331054281236 0.6430919270371911 -0.909165731979776 -0.008170708736250443 -1.4923420654710622
Ni 8.130808582326509 8.821315538747951 11.454582124303329 -0.3132372410291444 0.38132493783600135 -0.5933432467219588
Ni 0.13426615142908577 4.609421463364439 5.84266535889661 0.1940031032554594 0.6713487168631599 0.6216636909332068
Ni 7.918291709116261 -0.20921665613911522 2.4186696747866505 0.5802522178659555 0.5738013200342893 1.0481492844662466
P 8.683665459199885 1.412906002267528 3.78541540348495 -0.14182513570032348 0.9310730735758288 -2.316180339726927
P 1.7755204238797375 3.3998241190438945 1.2693897800512552 -2.8413248179854613 -1.6197448550984686 2.458177225118425
P 4.880499673960417 0.986643887210136 8.041772783913384 0.04892372228389639 -0.27047542458158574 1.0941851436793866
P 8.589454134263299 1.6602994457387303 12.413164612430556 -0.7806434840359459 -0.09534241875775191 0.9281954949177175
P 6.213288744021393 7.818238808884206 1.3844178588211347 -0.5215631886651791 0.8196131804309238 0.03689687302634936
P 1.8696862536816232 3.1581721615718212 6.193178074678642 0.14897305959901438 0.46577333538906873 -0.7633762123150659
P 6.71794807519368 3.916184798861 6.232211080445782 0.4940246169252782 0.5827629001029513 -0.8467447465403933
P 2.3478856145124394 8.644985495678016 10.326856004583366 0.22123982748422547 -0.2458753666447185 -0.3051848030383131
