# total energy = -340892.95471017016 ev
CRYSTAL
PRIMVEC
9.06757319880954 0.00000000000000 0.00000000000000

0.00000000000000 9.06757319880954 0.00000000000000

0.00000000000000 0.00000000000000 13.27130994080388

PRIMCOORD
 96 1
Ni 6.480458535215127 2.0331765953652474 11.357507173309765 -0.21055535118718577 -0.6195733840630814 0.38719270947068807
Ni 4.558133021925207 0.17149682499035343 5.872514930821332 -0.29976568890527083 0.20793051196982898 -0.08926921598047852
Ni 2.7537947708000425 1.596854041714315 4.754606477228565 -0.2552871468769216 0.06516923760848133 0.4597862645676985
Ni 3.282842327747686 4.2727492913602365 4.802952963887806 0.8034900496168162 0.36586592296845377 -0.5571680823529824
Ni 5.21633909119031 4.218244108999926 2.699557081848422 0.5382979849213568 1.2432214524161684 -0.36353367529085134
Ni 7.23936907217173 6.195627926613887 2.803737150338242 1.467613966596763 -1.6575485562098036 -1.5666713723122567
Ni 5.258557711897281 4.617117585434409 11.833071463394024 -0.013461524821544559 -0.5163577332048398 -0.9901593382150239
Ni 5.7023610134183285 7.918883938400189 12.175617175259841 -1.1833155200891554 0.37161825207119875 2.039751268665068
Ni 1.8072217393950987 6.64294944652718 0.6279475775771395 0.5148986321608101 0.4525126137244207 -0.42398673837058587
Ni 2.759924450266948 1.6780360243581105 0.312751479924459 1.0392933767375132 -0.8199204272586976 0.3417775145606824
Ni 0.2804382761548366 8.953784200111535 4.938891300668884 1.3142970282067559 1.0284404931834095 -0.5760978293779497
Ni 8.661599789664642 2.281773181555608 1.1735352947549347 0.40522848392647637 0.9215743900567741 0.7506654496166169
Ni 6.835354281746516 0.7469068835863525 4.576492137334443 0.0076284630795352484 -0.6277731462650543 0.6892775334274387
Ni 0.8055550401307292 7.8417370258196675 2.8356541011600775 0.5340955168042351 -1.904884052339816 -0.23110540742439553
Ni 7.343809380011699 3.9778355413873996 4.01053683728895 1.488794971549752 -0.918932838668869 -0.3821777727545999
Ni 7.6573569928610015 3.930185444348067 12.537127716423043 0.6489585220934179 -0.4304705463227167 0.6793283926345268
Ni 7.878941278560368 8.783214081099757 6.801745321770056 -0.7185647124273301 0.2173250658108515 0.3732958968839378
Ni 6.971730582311988 0.7423331996764305 0.24854127399398773 -1.5548674376987932 -0.6843145329952085 0.16245618168711376
Ni 1.8202881123415646 6.482661955496869 9.233420902797622 0.5253064577576952 0.44973222276580604 0.0059940127999058065
Ni 9.323550766651392 4.883550088061757 1.3267645868251283 -1.4103465003338613 -1.5130870113278974 0.9944227414770681
Ni 6.3132978237174875 1.889364884795539 6.859581930515191 0.47546408031427145 0.1808061449492112 0.371262925614309
Ni 3.6627917789640745 4.623872927450451 0.7518278555489111 -0.44395109730765475 -0.43598839081715235 -0.42862243737038436
Ni 5.870491955245789 5.593731486771096 4.760989141987078 -0.9090724009350215 0.40254476644672604 1.4166063652006442
Ni 5.249970720099708 2.925607147336917 9.213474055325285 0.48190829327771845 -0.11416417944994531 -0.22956480241015303
P 9.493658439431199 5.559864100959125 12.627478829062307 -0.5669315894976494 0.6133795965475437 -2.566375673903238
P 4.187686387397157 6.267860214533073 12.699435462756945 -0.15557333852435143 0.5023598762638509 0.3736658786288468
P 2.4479636627234274 8.694315593683275 1.421383806158284 0.8914359188001809 -0.41773124437917736 0.5753352401803125
P 6.181301160995971 7.689755431818477 5.740504666740051 -0.7277525495741854 0.0450863508156772 0.3521706848695483
P 4.788993434983515 0.9663856787942764 12.73403460172421 0.13101930333407114 0.16146682119065092 -1.2461982756563055
P 3.9235117104906077 6.357266486047406 8.421946550897667 -0.7509968648141065 -0.03652843394333709 -1.8841707310518647
P 4.8388832225972935 0.9672743009655141 3.7729011335536127 -0.406155623726436 -0.1184718056863637 0.2635247042953655
P 0.16298056026355204 5.6472573712284095 3.4411975189342137 0.38392869400743557 0.5639092577315579 1.0929895807093886
Ni 1.4748861149253398 1.2458120137826827 2.5900552546616677 0.1767934242453923 0.2930481676757792 0.06136271937819754
Ni 1.9078627340743668 6.3553985659731715 4.715853482989421 -0.5982262858458729 0.7452944151126906 0.26816014618484785
Ni 5.82363073707276 5.594375284466584 9.335861810752306 1.1094109594902055 0.27224151534307306 0.9622335583390331
Ni 8.66854555071738 2.218472453214679 10.135272663299048 0.3915417304680031 0.5227281555075578 1.1525317019390797
Ni 2.342807016602563 5.241565079765652 6.918957306428274 0.2271137697664992 -0.11613158758896128 0.8214728593474819
Ni 0.6657149266120633 9.227343815255137 9.274814374345587 -0.45204595850064727 -1.7924419977873 0.4159237588567934
Ni 1.546175375234233 1.0354987215409543 11.561049708661052 -0.34518859712476035 0.36000380776072194 -0.5283174766698773
Ni 4.197996218098151 6.953722381984659 1.58382484581787 -0.37609017179962323 0.459319352233609 -0.3191206963931149
Ni 5.612900336464939 8.006576438584279 7.83672175109608 -0.7974088764197428 -0.7308756685841994 0.49779925347636206
Ni 5.159548880389675 2.908841204534686 4.841758550051371 0.6105403273265356 -0.5785511760144488 0.0821464888927682
Ni 0.6988242633065295 7.38335306663178 6.865779616780915 0.4146610900942858 -0.45097663669586846 0.3871083772869978
Ni 5.0250132971789085 4.881899789743743 7.268205768385714 -0.09861980395744306 -1.4863130856681628 -1.3312917629925396
Ni 8.317721144541968 7.154016005867023 9.419962645201423 -0.8300228058000221 0.37290843163753196 -0.2797727907231117
Ni 4.707657303595729 0.38257179337885705 10.307494894143472 -0.6040050973111791 -0.13078636138765862 0.00027947891363177673
Ni 7.961320180863382 7.03014388871111 4.935931644784271 1.3559743533408841 -0.6323106291240916 -0.6333257006521673
Ni 7.427883918498605 6.094315931519603 7.220640906534235 -1.3846537235534475 -0.04476676269272935 -0.34438204206306494
Ni 2.2891451185476117 5.374051391438668 2.55517864795522 -0.34004099148554984 -0.8251281967118821 0.3848668895509888
Ni 2.66626548693312 5.200362027254382 11.554586342501274 -1.4225774951824144 -0.6901730486585146 0.6581957244209696
Ni 0.8331893761415894 3.472164188087216 3.560997388976832 0.45829271074130745 0.6190362806126887 0.34463658127603225
Ni 3.7823749340077883 2.4611116438284766 2.624852973481486 -1.2144667488809795 0.3933759554632644 -0.6597031622044316
Ni 1.3765936216986288 3.489827820633861 8.220660934509862 -1.1544029508198637 0.043809540985782616 0.10143181948494144
Ni 3.6480207022605393 2.548432373512353 7.016143555727526 -0.193722338790247 1.302196645398796 -0.24371332599639314
Ni 3.9130386634724474 6.771373485417394 6.127111530182182 0.8290676409756044 0.8370213486050423 -0.2870662390607314
Ni 0.7935305313421737 7.567288788504827 11.286360273899733 0.0745679052145619 -0.6398527031374076 0.9930214902541672
P 0.1725695188970619 5.592072120879907 8.189685197783684 0.6198924579653969 -0.8337712170988608 -0.25594226396241726
P 8.530246924638615 1.3722955920132542 8.084948380300863 -0.008678501610604409 1.8756524091682083 -1.9541183638855957
P 1.9160144823594971 3.241140558711741 10.443512118811181 -0.7261139855294979 0.5151858243839256 1.4212361506631717
P 4.048580747305739 5.984562025798559 3.5808118498807997 -0.057666501473532944 0.4924590722103712 0.5105087306232304
P 6.981052047536809 3.913292555521373 10.389856568057452 -0.05409523918250684 0.6576190259818933 -0.4679135216605232
P 6.197903887481036 7.727304252339862 10.124456862014839 0.8858748797726357 -0.8559354119007259 -0.9502007955442152
P 2.353261928474371 8.403173954151612 5.746556365077645 -0.649910858704358 0.5245189288593936 0.2599243885386169
P 7.098794485225818 3.8737942067671702 1.5038116733564475 -0.9518118487850769 0.6113198858050374 -0.17002448095267492
Ni 5.203517542719594 2.932045124291803 0.30530881586168374 0.9725171996532284 -0.4448882644099435 0.525436041357024
Ni 1.486710230346708 1.2232337565747022 7.175611338142736 -0.733474282549311 0.13923089261058602 -1.8631177670363073
Ni 6.845410220398583 0.5407574209469954 9.024968276571588 -0.2730516699491943 0.5519361445300818 0.8947940366391364
Ni 2.5569105544318163 1.635672322480325 9.313486667183465 1.8193779029461956 -0.8733890886007991 -0.36498866256982304
Ni 6.437124603007521 1.9680986226818429 2.4570638791627566 0.4680626456438778 0.5509005041767158 0.09389103102320603
Ni 4.00268975946253 6.864424921348436 10.4902799409805 0.40619239050164235 1.117883258627275 0.6929920061645485
Ni 8.37076644762096 7.0839418003637 0.5761164225464013 0.15268856077738865 -0.14556197703493642 -0.5593712606518884
Ni 7.919047154717356 3.602447079478487 8.29123748356713 -0.9042934914891395 0.5200989454148269 -0.8792188079086986
Ni 2.8995832123220957 8.222665774939053 12.496716263050029 1.630930953622275 0.15599679921501522 -0.14035009381669378
Ni 9.293899802366214 4.960887419678972 10.424866468089586 -0.08833976218767367 -1.0731252376852938 0.18913471941956458
Ni 8.48965139953013 2.238149087006373 5.659310896251127 0.7446349271518208 0.5463596788835687 0.7749505474162266
Ni 3.947232481918751 2.593117374123168 11.323705074024662 -0.7480388106270471 0.0448418389050389 0.38974864312332236
Ni 1.146540222652975 3.266819925945878 12.621453426686923 -0.5722386035328596 0.8955599682708835 -0.770742165761834
Ni 2.8055162081953524 8.483458247050994 8.022227976643192 1.555602773202921 -0.5428454950827232 -0.43222635267155884
Ni 5.6771803627088655 7.60749440796675 3.4400559114713682 -1.587644375019498 2.1749563279457127 1.0136327387466155
Ni 2.9840023185896865 8.52296566337837 3.64265632596968 1.5066034604860825 -0.425248635802145 -0.3583289911614603
Ni 3.312892265252605 4.433181863561361 9.32471413628986 1.1243752941095215 -0.07548244660903129 -0.5401826035385794
Ni 7.314085875141112 6.102259125621687 11.543929223747645 0.4585986720175005 0.40141682348986996 -0.4646813878764706
Ni 0.5920218526542402 -0.018478807375158158 0.5028912353644543 -0.2244614197453167 0.4960092514554748 -1.1235977925135487
Ni 4.731913061841251 0.3411964569772443 1.6455496299408285 -0.28056494760710393 -0.6626077374457363 -0.641666616417695
Ni 6.187594056780043 5.756666709168768 0.554337018535217 -0.013057604514906543 -0.03606306427114434 -0.060290055139309066
Ni 7.734911946234438 8.789824341944987 11.295384322724386 1.1611194436080905 0.3685164732174234 0.12058113871988264
Ni 0.13636269920570976 4.7515715604865925 6.102294489157073 -0.8180401795168493 -0.3863175059545863 -0.9115445166245979
Ni 8.022825529715483 9.03996241557525 2.3505879011447997 0.06853018366091423 0.5164544066837041 0.7466488722580561
P 8.59866176425075 1.745616647238062 3.5016084117039847 -1.1025175748044818 -0.6172506494671757 0.8109333932687388
P 1.8543368496170534 3.301131622843468 1.4727570487436394 0.6601227662403535 -0.05755800092012668 0.7830240684529804
P 4.702525057178172 1.0741537859897985 8.066235629537767 -0.15747826885654814 -0.9955368004768531 0.950284613507273
P 8.625937024363845 1.4879071500059262 12.420605774083514 0.17450411399058333 0.43408371759527176 -1.3332152052674975
P 6.589341953911284 7.862828201026802 1.4043703186083505 -2.121432130775327 -0.5374469497749711 -0.5948789666401949
P 1.7471399995316126 3.253599404255422 5.800902864907376 -1.0084979886232117 -0.6954818624659377 1.3247241370773508
P 6.71683203276438 3.952119903860559 6.151875979282871 0.843483045069986 0.23111697738862133 0.2843295568558587
P 2.51353128435833 8.529322032174674 10.228463739857 -0.05325808799319215 0.3565217627493924 0.7509451856405648
