# total energy = -340891.97042366647 ev
CRYSTAL
PRIMVEC
9.08107336698081 0.00000000000000 0.00000000000000

0.00000000000000 9.08107336698081 0.00000000000000

0.00000000000000 0.00000000000000 13.29106880153980

PRIMCOORD
 96 1
Ni 6.319900484939814 1.8351850716022342 11.435277385711768 -0.06901535082744889 1.4138200607047586 0.45229921216203395
Ni 4.6366054494484965 0.029011305653685544 5.84433556068504 -0.41366478761928754 1.0635715325585877 -0.369927237522021
Ni 2.702809000222895 1.60045748261533 5.070981348425961 0.151487598490752 0.09208071728734464 -0.41744456637669397
Ni 3.4179253797315905 4.579412848263123 4.793078703377492 -0.1524029112161698 -2.160313124111241 1.0654180988490234
Ni 5.153000696575559 4.356454330590325 2.818995887584937 0.8597884670982289 1.2033289870966049 -0.10550881776779249
Ni 7.270988560511057 6.013241712404269 2.7120689709165635 0.02468593278245426 0.8563179920511251 -0.6699968308209557
Ni 5.135846548649366 4.548382819960421 11.317837310200538 -0.9010479879686482 -0.5053935208838521 1.11371087241714
Ni 5.815001876920513 7.654228026250199 12.355125660181422 -1.6859029389827804 0.8063100355641146 0.5937744207221064
Ni 1.7563341100124288 6.761885415440497 0.3979172049096595 0.15405021701160565 -0.3246585954922086 -0.20086177804850566
Ni 2.699712354144106 1.684502818272781 0.37177915092555985 0.19860692057605794 -0.3635514159026642 1.8107690782312622
Ni 0.7095124490241775 9.143097277146591 4.472896396118976 -0.9711372885865662 0.8217371687524622 0.6021808996182467
Ni 8.624785923501568 2.1020869041584906 1.3086789571903517 0.33389785470228944 1.4601641951869369 -0.8243591797563417
Ni 7.158501302511181 0.7298041078601122 4.804655255932447 -1.2123458458832348 -0.27544639543361593 -0.15353753904124526
Ni 0.9930244732012922 7.689598807707332 2.6644341996371295 0.007121441536129671 -0.2836970654781824 -0.4346156788393418
Ni 7.500730640121847 3.89534465920422 3.7191336919255256 -0.0838812121956878 -0.8938537842130541 0.39647207789008493
Ni 7.736547957934131 3.989633445820245 12.430419565263715 0.2972354662842494 -0.8933480482212292 0.5891124964700628
Ni 8.1774159163888 8.964427155151956 6.94980733516261 -1.1173649242299595 -0.8765289197813613 -0.3863555582813733
Ni 6.700052385673713 0.6590543719796543 0.22768975698965715 0.5007148844612602 -0.7954152430284817 0.4936276385971757
Ni 1.8897169182389706 6.575405570197303 9.161214926975893 -0.3142273728565556 0.61751932974753 1.1020275225419407
Ni 0.23185978596144555 4.936471578972505 1.026012380960261 -0.28547061243883737 -0.8104245719531203 0.9531807041081456
Ni 6.51179265001573 1.7800901984057182 7.076138689781588 0.3960234203884405 -0.1802088776848445 0.4375721903645044
Ni 3.475508467079391 4.4174609826645295 0.5288835394659207 0.907423809588005 0.43675200845605433 -0.674851844920412
Ni 6.253399783370985 5.701243268624361 4.9560004276306735 -0.7474942509774868 -0.3347465758558299 -0.9828250093371396
Ni 5.204862707590114 2.7161127729660786 9.199519803295363 0.012406858304785084 0.18740590965391596 0.20037866776450008
P 0.27851198508332825 5.777687745724784 12.263762795461542 -0.3087074714795909 -0.8351860951685165 0.933454686434128
P 4.159603899358929 6.075755822686916 12.657257517554866 0.014641404062258655 1.171049558237609 -0.4176330282384162
P 2.481566805450071 8.781198334237812 1.4561828347791126 1.298237660751048 -1.2519560040756892 0.09942995856356425
P 6.364261529206335 7.838065279091846 6.035248786032823 1.3389014570189974 -0.6742910873209355 -1.5859582455663268
P 4.648347277541968 0.7718394891918006 12.69103003006811 0.777506738179177 0.6750081679926181 -0.4222209047194148
P 3.898050819120581 6.179806763363639 8.149950209452445 0.3031366622600328 0.12030860178478636 0.34307952120155755
P 4.943591140631656 1.219633582439114 3.818484268935442 -0.5360174164172963 -0.5030846702450175 0.4576522489438312
P 0.2054356781606836 5.877397933247076 3.54412959932094 0.433580295596292 -1.175608895473517 -0.12344714741376805
Ni 1.4886058997635925 1.2345537862732785 2.5722740166600135 -0.06894798792462319 1.2066595941317348 0.3827701549229601
Ni 2.0384194975356498 6.469747279503143 5.045488958770899 -0.9400328538722778 1.168572043231394 -1.0453560379918254
Ni 5.959608892048472 5.5166432056049475 9.208478282347343 0.02936739741852362 0.47557849440494865 -0.7483941370839369
Ni 8.710910825000788 2.5251559584652803 10.308021932014844 -0.057432016865223666 -0.542808985417833 0.5863220782091193
Ni 2.1225647250020945 5.183994400584082 7.235751270835032 0.13706628085909942 -0.2687790107157694 -1.0443396809121692
Ni 0.2459054824132424 9.229095043616182 9.485423782244187 1.2494352945363643 -0.3409575897625483 0.6270401247537717
Ni 1.561944649711683 1.0839078572380045 11.642098835695393 -0.6158383425006814 -0.25510794098657996 -1.8786186908853841
Ni 3.9879988525821752 6.827014874904056 1.495803558655229 0.8275884853269165 0.5329580607656822 0.09239722008649894
Ni 5.762277163919199 8.228596846887491 8.12080359580294 -0.46291555422529956 -0.7087222724156118 -1.04717277948559
Ni 5.020689455027308 2.7482779354618856 5.427646868650851 -0.40280316231443536 -0.4640039021934719 -1.1855886323940485
Ni 0.7407413528375119 7.356377895053144 6.9159676227051365 -0.037142413378252165 -0.25065659008344576 0.3672008397297934
Ni 5.033357552622354 4.45106095478042 7.208025845195296 1.1079852827872725 0.6624398444093043 -0.47126932550663353
Ni 8.159117553195955 7.1995114306396575 9.052054974322845 -0.03238484408860874 0.39550200066733177 0.4936404941129821
Ni 4.492479731218414 0.37785892966382717 10.40886089697876 0.5376513524762934 -0.856419550625996 0.07702433717485445
Ni 8.284481773482408 7.344499850856499 4.758189218818234 -0.8578318575924904 0.11674068192786992 0.5389896116717428
Ni 7.1919650585239 6.048775953185209 7.004792327369235 0.48187126939219593 -0.1533796733071423 0.9673150866269986
Ni 2.26126904232591 5.544903506476475 2.6268603497380187 0.07354460615637012 -0.7648443122201602 0.16554973301077297
Ni 2.4775438898697084 5.260429796610961 11.4761068004767 -0.5849689066153345 0.019323640029276397 0.26616599857295453
Ni 0.8179885968392994 3.6647489586802156 3.723918509576299 1.3234897504496173 -0.8389725587941422 -0.7228036902093423
Ni 3.5719585491990875 2.8232331165009565 2.866963026156111 -0.49909226125617273 -1.3364342264254274 0.6717320683445076
Ni 1.0554750159691249 3.1710382332681513 8.30695833861323 0.20288832156023123 0.8493189350254728 -0.13166207912439262
Ni 3.3896832410071522 2.9067426688192626 7.323006765990582 -0.7073616446226592 -0.7785598620340398 -0.5356014119258001
Ni 4.25087776955807 6.721002422341647 6.038571550842878 0.1259048649256412 0.1419526624171233 0.22118532009720615
Ni 0.7913864999970587 7.64895192252065 11.402088786227457 -0.26306164861601794 0.10073659319012974 -0.18880947486966193
P 0.048457516542595995 5.619486363500207 8.019724890497443 0.5684117735876018 -1.360742721263805 0.220117283844008
P 8.670654425976531 1.5795165270209395 8.069300287193407 -2.439432854631386 1.5441364244345344 1.2726832093207114
P 2.0526495397804068 3.143204742853231 10.382265156888002 -1.5047646075051309 0.8902259576524797 0.730383045218497
P 4.3171696064353675 6.149448734503254 3.807838526418832 0.01155813715124461 1.5857777541244045 -0.9702183763167225
P 6.886895473858701 3.864741441358125 10.34964957314437 0.8491932080808859 -0.5733976568379674 -0.1239755091134123
P 6.275693818923555 7.625186753053815 10.061538893324151 -0.011858442000482802 0.17627226163459964 1.1614053502796255
P 2.1628665293940736 8.596271352570785 5.831443160573437 2.2900633309249008 -0.6774589435259559 -0.055303400557995076
P 6.804929704043016 3.9026912477019917 1.4402737020359153 1.1525692400452343 -0.6504819007164798 -0.08885115460645343
Ni 5.062880122716614 2.666021571292767 0.6064041237814077 0.29415425625576436 0.08827239928484798 -0.605848321167505
Ni 1.358029143262405 0.8494781274633705 7.32375141402126 1.3963681837768984 0.17885956274580161 -1.2354405229191692
Ni 6.881346937922806 0.8287950743576535 9.407511803658917 0.30330121286235506 0.1946682476432841 -1.4274397083707222
Ni 2.7625715452214563 1.5480506071880848 9.180101743734442 0.13889690630993498 -1.1439437031597524 0.4546381447078558
Ni 6.471064035167144 1.8835054639343034 2.327093203915649 0.1930919042950997 0.1400248492667911 1.771977559285361
Ni 4.270801644915438 6.8054836495292514 10.47898494689198 -0.8772056341334119 0.5843359010170258 -0.3230650257528436
Ni 8.207292648351308 7.166120323215298 0.5533960812854948 0.49271901073997726 0.3754268271840115 -0.7525528964473168
Ni 7.692695453786121 3.7871799922116858 8.219170692547952 -0.047734329961485536 0.019165002964225058 -0.23260873144279937
Ni 2.9876368719566564 8.41978068822691 12.452203244483066 1.3464363319434618 -0.7486113953010656 0.027637044990978212
Ni 9.27068636045153 4.952635889882312 10.247255020282225 -0.01782108734182092 -0.33356926771827716 -0.5027763949759793
Ni 8.715197091713948 2.3801766193219835 5.894961637590143 0.6428038153459317 0.30815237030706927 -0.3804389356866222
Ni 3.664267661782339 2.505776947520602 11.72661729528453 0.8378255896738925 1.0137024156422867 -1.1372588349404091
Ni 1.1895207425644396 3.231908669239183 12.45280168722967 -0.66699403943889 1.229504102830076 0.6565047098717919
Ni 3.209787174083964 8.315502720711565 7.99877757815157 -0.0005797837628699693 0.08649499566945104 -0.135397892017741
Ni 5.748773607558029 8.153614422627786 3.4760269963788013 0.7898341493962784 -1.0002545176674966 1.326984136756121
Ni 3.378758709532715 8.315602612520559 3.5989157160169314 -1.219427178210048 -0.12477075132119803 0.6829541623125722
Ni 3.46619128562239 4.433779671824599 9.360460945408416 0.18617049458491808 -0.16222581084386256 -0.148818279188705
Ni 7.207484613212023 6.0655850203167 11.325372785028042 1.1275328659018968 -0.06909454080481647 -0.0467259433016292
Ni 0.6652376749563327 0.02589377310574356 0.4031442708420668 -0.7921890227817001 -0.5037847816358356 -0.011650439754734775
Ni 4.678260333798656 0.3131771671260283 1.750234352912363 -0.8677133783722605 0.25663517626438387 -1.2507498995827298
Ni 6.307050765873872 5.672973886679288 0.41635904906451116 -1.3969181427430974 -0.16707748250920906 -0.5595694927056234
Ni 7.635784365880638 8.800077886137524 11.27481390806717 1.288334028484091 -0.17961598129585193 1.0704752016569565
Ni 0.0801077821684107 4.9600823701890775 5.614121265249919 -0.7300801692660974 0.13445558270912972 1.0124366615559854
Ni 7.995258662152946 8.800541020888312 2.4682448705597975 -0.3907775986084689 0.49871199509861847 0.07852817541389057
P 8.489160090109452 1.7991513717763274 3.498222956337088 0.6778006431360908 -0.45228609953591137 0.2460795122357246
P 2.02020286400471 3.493933965301862 1.6080601573870659 -2.9037008091195218 -0.9709902214857405 0.2104432510893537
P 4.632182966632161 0.9951585254843285 7.863089085351994 -0.6856239958352515 1.3980106044763279 0.874554826774126
P 8.594300759611556 1.419853091955644 12.496568829286359 -0.6598911098455216 0.9619864753252336 -1.1226297721733245
P 6.22580240086823 7.707888089826631 1.3718242020843643 0.6919962179101825 0.16260376300857157 0.15218231056493148
P 1.7063337190745653 3.395277182310771 5.947966047656638 0.2182969428058176 -0.13719097936242178 -0.2540576453451947
P 6.894450927048003 3.653633724661337 5.992890118482938 0.04792741980889811 1.8904876744088284 -0.13173715533670213
P 2.408464163414146 8.59682529805702 10.241446765642948 -0.1103193517825584 -0.3602107815652055 -0.7851843093290929
