# total energy = -340872.80489729246 ev
CRYSTAL
PRIMVEC
9.20295572195209 0.00000000000000 0.00000000000000

0.00000000000000 9.20295572195209 0.00000000000000

0.00000000000000 0.00000000000000 13.46945594809599

PRIMCOORD
 96 1
Ni 0.1734085344268257 2.9029803637269547 1.892256544849588 0.7758038965554575 1.2372945454087725 1.5365856086704697
Ni 5.871366134013025 2.4998172779605636 5.06257541092874 0.8809363048204376 0.41438006851875736 -1.2026694991357354
Ni 0.5185405420815219 8.262505707448952 12.06029498112198 0.284758159752845 0.5389536162274847 -1.185331779188236
Ni 3.153751705126891 0.5114533458536937 7.389492157620219 -1.215761299322687 -1.0881008851585194 0.6309366315947005
Ni -0.19405812655252483 1.8005030759605516 13.163820485549012 1.1910586543696844 -0.44319082210286254 0.2335654389291139
Ni 8.185881897823062 2.5884785537155266 5.927490359692041 -0.3212680817534209 0.5754951627969443 0.015605053527108607
Ni 3.7484467060907374 3.8790550541823334 4.192085311568349 -1.5099554076774513 0.277116069826555 1.6614250084460742
Ni 2.509784079044498 8.631709886475067 5.10830489808116 -1.18340422314822 0.44462524055654395 1.0034773954801686
Ni 8.483330630818303 8.491567276220078 5.279918856135531 0.3596317691332839 2.56541125310744 -0.3067506048635363
Ni 5.771541672925826 3.440837909940682 0.8239157808695543 0.3573452870919523 0.7211263025069192 1.1597593300357705
Ni 2.212408969695306 7.051341512202154 13.245041171575112 1.7038741787492204 0.07106374871604536 0.5441811831750112
Ni 1.5660393721605528 4.614481654569565 0.3829349890143247 -0.32538210392179445 1.1523352696575573 0.6027403716661426
Ni 3.006265136178475 1.8221208190318 3.2980236816296755 1.078909705577555 0.20566819829821353 1.4805306746584308
Ni 4.512089568826393 5.162259987088445 13.299943244729707 -0.24555860673524807 1.7097787171591134 -0.9579709264079372
Ni 0.0709566294712388 7.129051270607272 9.045871424665659 0.7484815545914206 1.7786539428642725 -0.6757247344436685
Ni 4.402003812071062 0.8273816140073287 5.43291891587747 0.12545980696842265 -0.48112719213731975 -0.513840880320257
Ni 1.0220434544574584 2.2209217037697657 7.194508213718623 -0.02327182604374702 -0.5019482426477291 0.6060270128372144
Ni 6.748104120036281 6.861236055146906 -0.08936806275703688 -1.4003361672857109 -0.4109908403315502 1.4360801576545397
Ni 7.224476718843022 1.1942583655227086 9.880708353131064 -2.1479461179054553 -0.08837730029382844 -0.7532103275256576
Ni 4.961000547656717 0.22846245635139895 10.433278664712182 -1.1619573661283538 1.2426604377063761 0.7582514894939909
Ni 7.82621198096034 7.321429857734296 7.099817161352216 2.0430114274735782 -0.3582968523719442 1.2765105534866015
Ni 2.397011059208364 7.388823102736745 8.160954771861894 0.03656314383601445 0.5522220512016167 -2.071964877283135
Ni 6.78695899923884 2.83463921428162 12.370213719166836 0.7351483278176242 -0.7066335082073831 -0.7761173140308182
Ni 5.754516204776907 4.111991067326807 8.836919234517346 2.1037015462647837 -0.8582046675508769 -1.4399265279838234
P 8.485612963845833 9.006656709893035 0.3992849602107402 -0.7710478699277108 1.626812046357895 1.208629573373912
P 4.1680646767491645 7.31235574335871 6.4569336434579006 -0.8898804013876028 0.8638549238581187 0.2963427792666509
P 0.728247374601842 8.837285512156441 6.912969550634652 1.39837441557365 -0.39794172045707593 1.1246087502765663
P 2.769049748607381 8.69104134223511 10.5544503019714 0.564669275826034 -0.11180287830662036 0.06772002905479305
P 8.443877559491593 8.582345231798959 10.319839350879302 0.6170938121743372 1.7589384667132157 0.8047938560299044
P 4.3605168875222375 7.393884728402639 0.6030503644948755 -0.212749273514711 -0.5268645462734345 -0.4553462265184739
P 7.679765346012373 3.308609841636 10.333739495253425 0.21926007805003528 0.10860494019461296 1.5259831505642754
P 7.9277665977297005 1.8155591115776493 3.587266138977138 -1.930191420756353 -1.0453298127395805 -0.640585210428058
Ni 4.052328305159543 8.351249809805719 3.4846826317542376 1.6946446897311525 0.7833472561203542 -1.0466583017430169
Ni 3.4174716052757605 2.7944222976271478 7.496425902029062 0.7576727341723855 0.4245960898198107 -0.7662982710578673
Ni 4.150164927803409 7.135005582981516 9.642271733331125 0.8400099989197211 0.25349920173856344 -0.1335739514351248
Ni -0.28118895076523626 7.064225650260795 0.5249439586966665 1.351545113924937 -2.005607790014139 -0.4533137694694774
Ni 1.1861505615015209 5.326560356203387 7.839034459215416 0.58701139096666 -0.041632845049437976 -1.4248341524270751
Ni 3.935772870507622 2.900532377495813 12.836930576794202 0.08094784059897672 -0.4276546741404764 0.6201493111712094
Ni 1.316998186442777 0.4571347400940386 2.864320587186427 -0.8506965320992897 -1.4368183213721446 0.7496827739883734
Ni 0.6162013882704456 2.236824411316431 4.193068187243109 1.119199149225221 1.1308148790872783 0.7186765554148461
Ni 3.1337444793129725 1.7797228018631146 9.880290538939732 -2.30620831611588 -0.6630607658227549 -0.9922319044733364
Ni 3.0954233715442716 6.3478307623773285 4.45049694683706 -0.06140848501446844 0.08192871645500728 -0.2274500700599954
Ni 8.09382473139407 6.3651047103316625 11.585725241347875 0.7152528744452779 0.5663533483966763 -0.9781617995335153
Ni 5.504020952049657 9.043974695484312 7.934694582822947 0.3661186624092082 0.20060698172522226 -0.8664486527272239
Ni -0.11516578833273876 5.007723954030803 9.694533478479277 -0.42907726551961584 -2.228905014248026 1.6147540867520966
Ni 5.678113266089166 5.270146237418053 4.941552861552774 0.5673738192413906 -0.3099850526404339 -0.7158619687841864
Ni 8.953601669958703 4.003580248519099 12.262377164798313 -0.5824242858166099 0.2904238426790547 -0.6496090111932231
Ni 2.011830548989533 6.339023533718672 10.2688439324432 0.037271225646632586 0.158567645265985 0.7214638883519962
Ni 2.1003445774523977 1.6324479008970911 12.167323515975113 -1.1100527068392625 -0.2838575023154466 -0.4818802682532604
Ni 5.868448797038318 6.245898824421964 7.592502919532349 -2.9752394405894567 -0.9119744050731649 -0.5545833523449416
Ni 2.234459251687095 3.947258159291325 10.949927079090237 0.19187551538949535 0.055969573387084255 0.957600687552712
Ni 4.80793698752006 3.041484847857346 10.688349627041404 0.26520980530727223 -0.5945197835285633 0.5592961844395786
Ni 5.208265562913551 7.548365543725746 11.861620651962161 -0.960523517626462 -1.8645501286074597 0.23940492842902641
Ni 7.971213751854589 3.018431443688135 8.314115883329565 0.8306375565658856 0.25469605026014197 -0.8543503268017931
Ni 5.540639513003465 1.8340294437802867 2.6707907102943063 -0.9408332382863862 -1.5333002530509787 0.22121283090103191
Ni 3.7232766220976066 5.143633204637954 6.371322227240532 0.3929285835132007 0.292589997092438 1.4110476401659442
P 8.167319536062863 4.416792961971231 0.8814949938536212 -0.378529120258419 0.13680299989538375 -0.6109442476331737
P 6.051688849099463 7.243628069771616 3.4912691871889296 -0.8509824387708248 -1.1845491353859405 -1.1957223783939408
P 5.464273386138748 1.2066179351032478 -0.6997642265364891 -1.345301189897754 0.45968984819915026 0.7922003356356099
P 8.791795301853682 4.767766085644369 5.786505678985362 -0.3567130528245921 0.45315487529410986 0.012889454368158446
P 6.852548464913079 0.7312079654686024 6.074684274647411 -1.7161789642585024 -0.43644553295922894 0.06718343982503268
P 1.0595362962081039 5.731610047899795 12.128234881696347 -1.2682477992571772 0.28843817970759356 -1.6192645730279405
P 1.7847292097944722 2.5582744529237695 0.6371473155714934 1.7986483837083282 -1.9532806984756488 -0.9902817227255011
P 7.365530421717874 6.123251033059458 8.93695720417809 0.2772086295403613 -0.8553743971909334 1.2507776674968718
Ni 0.1034798751135513 5.879464735078456 2.4133361824242376 1.0252271284524341 -1.1765136666759737 0.7318416320418945
Ni 6.86319628472297 5.584611235606457 2.218715755275011 -0.5141198450132565 0.1146190075991768 -0.6397367463848337
Ni 6.475061625706409 0.020213372022856592 3.9715769698770105 -0.21612641751706005 2.8429484696318132 0.29803816469120287
Ni 6.222670564093386 4.813210281168347 11.10194334286184 2.7210151877594106 1.743593094605397 1.384784849814673
Ni 7.960519917265917 6.396127874185719 4.407879899321378 0.5398974681979928 -1.3070017800969234 0.3107137032763423
Ni 3.6458797641881984 4.779002894622655 8.732181315351927 -2.259584445609754 1.2977874605875068 0.648728922581115
Ni 8.029680129773551 8.159717894608264 2.643110980266467 0.3233846138757914 0.11506509399765989 -1.4384211470828905
Ni 5.794236161820546 8.871124780471886 1.3686451741464152 0.010803261263091071 0.5002898811086997 -0.6722038657746037
Ni 8.161245585263789 0.6676090991244233 7.738646777235938 0.6415635151809274 -0.6950787134902481 -0.20711444382643687
Ni 7.6544480147271425 3.9849074512898257 3.7576008861814016 0.44210453101721925 -0.5799927935569817 0.6850624669048265
Ni 3.371788132902122 1.1380098999409842 1.2075943687089776 1.0383304986036117 0.33782675744305046 -0.5330598764508692
Ni 1.4944679852448015 9.078540997304495 0.7159973201948011 -0.7457605561158317 0.5310806412373111 -1.226052911056682
Ni 3.624685357081734 9.133307787009477 12.616098291060245 0.005073043647533198 -0.5403607809876565 -0.06284624590225951
Ni 2.32388437276982 7.342228537743245 2.244792330410125 -0.8551381128104111 -0.5954196696350132 0.010828715184387803
Ni 7.058096481727185 9.097701551188846 12.246577530356117 0.661325528299203 -0.06343657118809075 -0.5675113732605194
Ni 1.6703456727010082 4.257241318026473 5.663730886833419 0.11390629780286836 -0.7080468436151418 -1.2183095196658373
Ni 6.5088548792430725 7.9078237926060755 9.933009670988966 1.0047853156583146 -1.7213376256413067 -0.8669703295586487
Ni -0.045934713065782236 1.4715986401907135 10.941225684422776 0.9679768885807135 0.4076646041717947 -0.36416179579315344
Ni 1.206783588306859 0.18607640302519668 9.203975443669972 -0.3716894716287663 0.012873256418242347 -0.5002867957849061
Ni 7.530861521877506 1.7951009409316785 1.4088777358256732 -1.8490288930434091 -1.7961323021546938 0.1926537883164166
Ni 1.0119110001699128 6.842287169244948 5.756307099967057 -0.49004660611413664 -0.8341807938324538 0.670815212957193
Ni 6.219615182782337 7.553749272843106 5.6213024999107395 -2.0295295909370594 0.9446932354624247 0.3720357992245915
Ni 4.414878747173947 6.005784505787676 2.333394707248248 0.24103346517138488 0.0012750100576816752 0.27931076348502865
Ni 3.3364763916656894 3.9184713136860188 1.7281310318940133 0.2737777494819414 -1.1270543836035818 0.53886825560253
P 1.9388695157546003 4.903767365809081 3.266059975697338 0.2642207019211256 0.09449164072168242 -0.34987751795999744
P 5.523301144358837 3.760649825423422 6.637505758645331 -0.8311594905076266 1.678710792109715 1.2142831721152636
P 0.6361377513250412 7.732525891362508 3.7459094511887607 1.2892904788600894 -0.40144587695559253 -0.7686924823216568
P 5.349705789930161 3.846688258787876 2.9620412525877655 1.6811340568392272 1.9114740468525082 -0.808694219525575
P 5.103370273204701 1.8513862183364274 8.824648933607643 -0.3329383190024976 -0.6880207782022022 -0.19804179210120734
P 4.275776070919404 5.194424317456267 10.81335981714652 -2.318325411094388 0.9427991037635053 0.5411753064691518
P 2.3822863299984887 2.0214844495777577 5.406329736106737 1.5165194340482142 -0.15329662667503277 0.9777877040235482
P 1.5592844026355221 3.5554331150165384 8.9767461833899 0.42556796681477677 -1.016022579135031 -0.80413333962777
