# total energy = -340870.68312977225 ev
CRYSTAL
PRIMVEC
9.23212174452692 0.00000000000000 0.00000000000000

0.00000000000000 9.23212174452692 0.00000000000000

0.00000000000000 0.00000000000000 13.51214337028261

PRIMCOORD
 96 1
Ni 4.0149851838847646 6.943922013204531 13.350375740078272 1.4726618134333151 0.23581155465081324 -1.0479019443421307
Ni 4.080662498990218 6.536997776782954 5.7954257397702165 -0.6753115581656499 -1.2826107528470683 0.19942453138134686
Ni 1.4518250237353794 8.629264327954438 2.5574436302768384 0.09350793665217444 1.957705824126538 -0.06329824583801356
Ni 3.333709981341628 9.509916434773283 9.015572312989736 -1.1751016168197954 -0.6881264505421311 0.5240070222199814
Ni 3.573597436458316 8.074727694678616 3.583231155647596 0.868316559173898 -0.5887026626261539 2.327903027480494
Ni 1.1611516661172714 5.878415129838525 0.8133914828097377 -0.9089510448658088 0.7763471706534372 1.0642587884335992
Ni 2.1078688371608316 7.888691206529894 5.5070493340776405 0.9624022227064135 -1.8315705883576456 -0.2598259152875396
Ni 5.0632003029560675 3.520069593756401 4.289984244962805 -2.3958115183970095 3.250685836023073 0.1627767982513261
Ni 5.217755255469478 3.455730936324589 9.816383183303802 -0.17561868721100077 0.8455247580903632 0.48876825362234533
Ni 5.053405021633761 0.8797667463298632 10.800135011297817 -0.16961156178497241 0.3422212869663203 0.40978756405206845
Ni 6.418743527529966 5.664774597247112 6.382663471982647 0.08118566764139566 -0.8142102642477977 1.0208287422744224
Ni 3.8837321070146156 3.14106329392168 11.906387864612926 0.9210457712468136 1.9102525157405812 -0.06517695091796517
Ni 8.05278294095277 1.6791383288417172 5.361010090792972 -2.0852299698231573 -1.8112254490423905 0.24653434038495609
Ni -0.12290169941099889 5.54551404670842 9.691328553068711 0.9985084815106674 -0.03738898217141948 0.26059776045655764
Ni 3.569286035536999 4.749040427256953 0.840756415295551 0.16585003786001115 -0.02252749167855475 -0.08415966266805505
Ni 7.223027522097992 5.675936232608722 11.4715124559657 -0.5763323139862591 0.39215313879975683 0.06530216364191979
Ni 7.377674795830275 4.23426654294925 8.614288903041231 -1.8651448247686653 -1.1396545888660954 0.5331951164771528
Ni 3.7764733149292677 7.595719050561876 10.564009645850158 -0.42210700484936986 -0.18674205081767192 -0.05547900690391091
Ni 1.4102804752430342 1.35599559854637 1.322444221183952 -0.279537534783854 -0.13179474804751495 -0.46220772952499756
Ni 8.201863245187079 3.85965473313283 0.9142367198200562 -0.05146808597230491 -0.7840136860597594 -0.5772705095298122
Ni 5.776723307251152 5.823844057363358 9.456108858778187 -0.1674135256923891 1.353844708592391 0.6823707790052764
Ni 5.5135155122474275 3.279388176157415 6.766827758315739 2.5869319007880356 1.1130223309905476 0.4628237658424416
Ni 8.189833790368073 0.1608540292770392 8.43899583513263 -1.743812666815371 -2.7767389636842763 -0.0373010504433035
Ni 5.57167788013671 0.7851596540787174 0.2964480498585439 1.4092306415618632 0.954983304534523 -1.2630785963514117
P 4.97146993988497 5.662789691041366 11.729729365877208 -0.7090534305027854 -0.009362415051506456 -0.9898400072023921
P 1.8948376246139733 3.5194879700775084 13.064702499674265 0.33430948831841134 0.6346837573419585 0.08144457772973716
P 2.7304646729890028 6.9637895395057585 2.0853969292752277 -0.801228250165833 -0.9468627323099176 -3.055053681804622
P 3.7093557888094124 4.012954117069583 5.9474243177330655 -0.8969560772874617 0.9327933987010453 0.8383848046114722
P 3.564466867911887 7.487352403850067 7.834746071918679 -0.5425868421046978 -0.9193151617089523 0.6849611654402721
P 7.595719050561876 3.7084233444988066 5.933830941466369 0.21784494287006353 0.5218964036348819 -0.10845401643904548
P 6.389846986023067 0.461514696352707 6.903097570219386 0.19376321933051144 0.11207104436634246 0.3459768973540106
P 1.719925843339313 6.644958210131728 10.545552787773293 -1.3872145423020883 1.1254605567539002 -1.633945829189199
Ni 1.316722152038273 3.801233865830705 10.414673611839573 -0.11019233928639087 -1.3516844677162785 1.0657698257614872
Ni 9.436890350645628 7.15373121521276 12.163483071715143 -1.2036051235761271 -0.03820916407986968 0.8963464687279208
Ni 8.20277722525391 1.4155243204749568 0.7134168348933809 -0.17288817565371517 0.02468567567213813 -0.8466311037806644
Ni 6.155849624670405 5.249615308102165 13.592675548644081 -1.1326822713133204 -0.2889750260476701 -1.2966985983987025
Ni 0.6654725795088373 2.5908472936890616 6.062574727607581 2.6423420021272235 1.4191083056868914 0.07074236082088461
Ni 4.309877621205318 5.046610179924791 7.919940092693647 -0.9693076915769953 0.040555038604226934 -1.5375703411812423
Ni 8.024892700731575 7.5366427026057625 10.101084281273089 -0.22476146748423875 1.2413234640625073 0.5744896043505655
Ni 2.20439067149138 5.670378495232635 12.293010665004577 1.4303118877121945 -1.1408630073518997 0.3495242483856368
Ni 0.796798590141895 1.3292409093172997 4.018065942958519 0.5674334688347323 -1.3223731203466709 -0.12433289245283101
Ni 0.9736011099790511 8.753944134040909 10.713210890881188 0.5073020507604747 1.4561841274932663 -0.7312358801370955
Ni 3.580992366089953 2.2501727639299447 0.5467179492495631 0.010706073563594464 -0.014462198171917028 0.7708936037380336
Ni 5.714258770562439 8.054232384089058 5.269263109902476 1.2290353907237739 1.1820387102592609 -1.1598359489099768
Ni 0.9565124523658666 7.76224806516297 8.413038801234613 -0.6160430023123197 2.2215498594345355 0.7424124655792054
Ni -0.047346013886253924 4.689105491965331 7.370347260688415 -1.1057679634209796 -0.8485352627819129 -2.2171453026089365
Ni 8.24670366119315 5.55578939836886 2.483045652836747 0.5966977650164885 -0.6261806049669538 0.6534204145195134
Ni 8.090920836468742 6.3716320095396455 4.757341951257913 0.675327756115566 0.22858418366443858 -0.17717497595452714
Ni 3.2739227600002 5.477888753884769 3.546167879119292 -0.047616830547014766 -1.3849134049727374 1.1625605469299913
Ni 1.5729966235047192 3.7771934204364683 1.792642651383748 -0.5599970671613452 -0.27778584220006997 0.465127988495586
Ni 0.23953755769716342 4.248982545237427 4.097070749220317 -0.059722355561297145 -0.11937349156502668 0.7112090433932075
Ni 2.0098790954502204 8.073075144860809 -0.04510076184328985 -0.11301309656463762 0.4714737282079557 0.649248799640327
Ni 3.4295024780430885 1.1494084070767685 3.4537035623581627 -2.7521908420312666 0.9064779007349678 1.225100574445742
Ni 5.988221987564737 8.393466702833775 9.146667520575614 -0.929054243373587 0.36756722193027663 -1.261879176726672
Ni 7.15258643209875 3.072699431347054 3.735107869601534 2.2749257039525146 -0.03355572446825834 -0.6108802271644577
Ni 4.161979028572569 9.12537086180625 6.590832125931524 -0.7264991367830584 0.8924000824856629 0.354329383083764
P 5.332510530527223 -0.0021695486434891334 3.290747378927411 1.3178793462413756 -0.3115138305801345 0.09412834384499273
P 0.5719945757644946 0.2815778711348505 12.905556412946355 -0.9686636302350929 0.5512270342781992 -0.12789078500741843
P 8.808053600421717 8.68558950358817 4.290632339919286 -0.1574013928720257 -1.2643111832069323 -0.43315837756752495
P 3.5095265105612325 3.370093773699035 2.665742882498873 0.49707214550235035 -0.20661719247504418 0.06624035918547301
P 7.359238248421561 0.33405694479038084 10.921271529003985 -0.9756027805570874 -0.2176917051216509 -0.9894335157925926
P 6.056881278039753 3.0379774209293413 0.6551215244489224 0.11021085122915214 -1.240516909000812 -0.16210265500243695
P 3.258745151617663 2.4727592226300423 9.975502496878239 -0.5881089949062129 -0.0493132444128312 -0.9153294375883267
P 7.978796716148847 3.7563749855808597 10.742424094168818 0.7589860536671703 0.0019928620603126964 -0.9887439459247358
Ni 2.163732406700205 1.553766113613707 11.773103720927597 0.3967117047047168 -1.1829049149142983 0.20887102150622738
Ni 5.243245144000004 1.999142137695421 2.5115562916487604 2.08238401573393 0.33115423051888127 -1.9491998435380555
Ni 3.1580411660722185 5.165519909831771 9.918291960755525 0.9244123737262016 -0.21866898143325564 0.5714950404986158
Ni 6.680520343641175 2.7072458864427253 12.116933789947753 -0.11316453454083736 -0.624935419705943 -0.23059787166035772
Ni 0.03036352567477196 2.5377533607158442 12.436563697865026 -0.045911160709817704 -1.2575175573238664 -0.4586192408427908
Ni 3.8172054366955406 9.099160867768523 1.3106418765633712 -0.7459461897640766 -0.8109873864351258 0.6305918466607721
Ni 8.640028982074899 2.213641257622342 7.925453515884676 -0.03856243365423036 3.1989336431514452 -2.836230691292006
Ni 5.934740305472257 7.788781183466748 11.447920691695181 0.18173585585233215 0.458923659457087 0.6461789024657516
Ni 0.9557554183711172 6.68047418303174 3.4127895677907127 -0.5161412463186595 -1.819601074700595 1.6588425924308787
Ni 8.784945599338087 8.300065325701096 1.2283421260000356 0.5074663442524809 -0.8107230770301457 -1.3094512700786802
Ni 5.474989867612193 1.6054106034506355 5.196337655903392 0.512841235411149 -3.2114500304509015 -0.1561685489061891
Ni 7.776973299573035 7.7703261718142596 6.621612020303408 0.35932555074677475 0.9623063205584974 0.3404328276073298
Ni -0.054775102368873944 4.805605638059753 12.256324982261459 0.6607809686496426 0.292587940209909 1.0034969358641943
Ni 6.966079105733781 7.370122920126556 2.618572278928475 -0.782301331354343 0.9284472059172074 0.9808329186077752
Ni 1.681677162360694 5.861834238929136 7.781711224525539 3.6863770073147806 -0.8231178511500726 -0.843485101952515
Ni 3.985903999940123 2.1723552085428386 7.922548167126778 -0.3480065261895297 0.13758667213894368 -0.13040943766421412
Ni 6.438287929565142 1.8896399399914865 8.768705373726334 -0.10004805176353737 -1.6169325824606537 -0.5865971862473768
Ni 1.8924095765576427 3.3895827830028886 8.158956958716374 0.32405438624930644 -0.268900366784982 -0.3034307964616839
Ni 5.810097427873335 4.477726829236278 2.1562950093078865 0.050024668657559 -0.31024370561845926 2.1349718171329743
Ni 0.6340879811533424 -0.01269139795831707 6.283768059114902 -3.1634403353408422 1.3462962068211717 1.4821239872874796
Ni 6.5079258249602 7.648019021052796 0.2032322383757974 -0.21477504569548816 0.5774849395334635 0.6431678835535698
Ni 4.8626509192006875 6.544097278514202 2.0289563521179055 0.15301920464393004 0.8995197242495799 0.2194536821180801
Ni 8.801886543001075 1.7892129181026575 10.033009384113532 0.08378788115093311 0.21183241812739645 3.3467329941573336
Ni 7.461677872881797 0.4409492216368074 2.5616183957942247 -0.7195574153579027 0.48219857082462764 2.2690170517775634
P 2.279752482456494 1.0761145914143846 5.554531060155637 2.5592997408930636 0.2009149998839443 0.2451989094029842
P 5.858492210805973 6.125318997589476 4.321318989860109 -0.48347615198547067 -0.9325082633604584 -1.6106374934805616
P 8.03778074288609 6.1764557207226085 0.5056460853978421 1.6614895431354224 0.5464841202765749 -1.2235471139156928
P 7.59183232724737 6.453511698557114 8.28536224838356 -0.3054174878744095 0.10569033765097927 -0.07156768493565739
P 9.153030298980264 2.552515523613458 2.641191900764274 -1.6028737903747428 0.9767466643535436 -1.8455571324447249
P 1.093932586656657 5.761084092774255 5.58282566731549 -0.07332966193208662 0.31959403648510765 -0.36467293110161714
P 3.902907224174305 9.103509197177388 12.469100465032042 0.1668810502276868 -0.09051388702085703 0.3351371264260293
P 0.9290838182390316 0.8543202487722074 8.5413099027352 2.46017985737075 -0.7546010372255972 0.2357722167724456
