# total energy = -340869.7451477921 ev
CRYSTAL
PRIMVEC
9.21594444603070 0.00000000000000 0.00000000000000

0.00000000000000 9.21594444603070 0.00000000000000

0.00000000000000 0.00000000000000 13.48846625870287

PRIMCOORD
 96 1
Ni 8.753221057831817 7.345273582368121 7.4715578254397625 -0.3719221564648627 -0.6722023231127068 -0.400721082974426
Ni 7.95301903653511 2.7176898472864286 1.7812061264212968 -0.15673779114609782 0.5399823146023152 0.12274909290547892
Ni 5.002691104488088 0.19530890192484535 11.43125930429099 0.9690449248339117 0.4850021017116938 0.5937931897751838
Ni 1.6784262279748348 5.308983016979405 4.25814693627123 -1.5492814589705834 0.36256539784031105 -0.7261319832516269
Ni 3.6094799241371818 2.2019840299496116 13.039111673157171 1.185028131904888 -0.1311046639590258 -1.5444349295115594
Ni 2.2403776543648015 4.729014419266419 8.777956652630273 -0.4657445390336624 1.5974991563263907 -0.5992207885486583
Ni 6.250327226926768 2.3094235098901494 7.08805380908073 -2.4396933073816243 0.0556543561395106 -0.4727225130133923
Ni 4.048730266642407 7.795638353832711 9.857060799629545 0.20875763585681467 -0.24293325329725904 -1.2584806925680843
Ni 0.18789006667419061 6.401238316652818 12.659329976745642 0.843532667360999 -0.43478460031703836 -0.6509806947297693
Ni 2.094323367343216 2.517233840408179 7.953703781204829 0.8757197936165048 -1.2539771482707758 1.1559340427524094
Ni 7.057938867529718 1.0843848831466323 5.403156144940666 0.22056954089007816 -0.6900133831521987 0.6860698251234183
Ni 2.3314864808094877 7.302530032191056 3.247968837519967 0.2680120506427578 1.944507580268709 -0.8689603634054842
Ni 3.081857890677264 8.381505155968577 6.663666941721165 0.9294229395669155 0.5626900406124761 -0.07962603646375965
Ni 1.8612797810285497 8.779689250179494 0.9368265539972122 2.321780202412208 -1.4374410425578084 0.236660790024986
Ni 5.341045287584408 1.224983331077053 9.128615964703828 1.0877468442532108 -0.9840259716237763 -0.41843161288031167
Ni 0.6900327786217051 4.4216903210010985 10.69786458562226 -0.7119276667267869 0.5258654155849589 0.7185094337093626
Ni 3.846753628936383 0.28633754965315844 2.3222419669710637 -0.6917434784694281 -2.5566088243244613 -0.6014951864051318
Ni 7.362737797026494 0.5097799650807041 10.814458263145994 -1.2466883279188463 -0.07842044619143268 -1.8235106941676467
Ni 6.493849342036458 1.1916492601433657 0.0329184318407623 -4.007077646600505 -0.9179311368772319 -1.003964362418916
Ni 3.2914561144109786 4.06925417484515 1.390431651516623 -0.210141917798851 0.8688757741114778 1.0829095707655674
Ni 3.1464800928854513 4.268558188672055 11.08418775937654 0.6775198786708784 0.6823437824220829 -0.27462544219421736
Ni 4.537322775522794 6.493701886925885 7.340693257995977 -0.07598381172548205 0.5312999563369689 1.4638863812335303
Ni 3.9596213001348533 6.208634294412528 5.0403833955336195 -0.20811794539028672 0.007135582603516743 0.6362958390240849
Ni 9.292621068248677 2.244690716349033 6.900146232112158 -1.6240915621029384 1.5164009061924788 0.84781355412454
P 3.963114143066528 2.6267008281190822 6.739916900992397 0.04966008622928867 0.3503493153900934 -0.8355763886283997
P 6.610329663443942 7.634147359923117 11.207337659754083 -0.8097586562343473 1.541718816131977 -0.8131995635950962
P 3.336973663855679 0.5500020328669867 8.486066496469638 -0.1492052302144785 -0.4890053093338159 -0.19734836557860852
P 3.5017547499199106 5.522037219867151 3.02117366151579 0.41494493988329184 -0.11251481677198041 -1.0395895678216935
P 0.6074228961126132 9.04952288658188 11.83583189116744 -0.2098333854194967 -0.6379973950962238 -0.4119146376974002
P 2.2647538273312384 6.33488351689541 6.4579265123177905 0.045935329079533786 -1.370962342109284 0.4021963819683718
P 2.4212313474813834 6.422416556908725 12.787227931683608 -1.0850618412218795 -1.8618887797252128 1.7222650225515823
P 6.631001026757257 2.7625622806223764 3.966391332898991 0.13597664733934645 0.800234518793996 -0.15795932225802473
Ni 9.109592412251157 7.842169657162594 0.9842545687182611 -0.43544923048423073 0.1317309846891151 1.7537767200066183
Ni 8.318394368643753 6.399846709046796 5.156168834732534 -0.8674470120847513 1.1707592806907 -0.7422234894968507
Ni 6.274390057783238 3.434091286056175 0.22615282467874753 0.6074676019384828 1.644333085960794 -1.990814947975681
Ni 7.734886848277039 0.23799439165212177 8.078201974249668 -0.7483046626939241 1.209127338945937 -1.1091898446183348
Ni 7.423526166359809 3.69901282408763 10.580717029839434 -1.0006846632263797 -0.6540063689299704 1.4859009378314088
Ni 1.1019320413047025 7.702299268840623 5.286979949698735 -0.5724525193158786 1.4781421198215963 0.13226525992603028
Ni 1.9765896774958691 6.665348851576127 10.729144422546788 -0.048117938553149386 0.17558320598737504 -0.8564385767893895
Ni 5.915889820205016 0.7828299660824414 3.0419860287785894 1.999206000252854 -0.31356094291715025 -0.09602350398517656
Ni 7.575764352081008 3.860245771553723 5.93110810921049 0.1890799549222292 -0.9631617265802573 -1.4165222901272703
Ni 1.1154241839220422 -0.016076293430114436 7.855776999085068 0.17917709398622045 0.8767001552519029 -1.2682251735493577
Ni 4.521554294635998 5.017832901154952 13.205761752747906 0.3806649356544992 0.2499721624219114 -0.45640963478598173
Ni 5.0295647983898375 7.340748553662441 3.241763742148208 1.0946996214219598 0.3574391323573392 -0.17517645746725957
Ni 8.66249008510797 4.038380761069133 8.578826820152731 0.3095047705699056 -0.24680559176847172 0.751477661105267
Ni 4.186112349973476 7.312686002931704 12.202232957888999 0.9537864560129445 -0.33034433302307625 -0.329760178384832
Ni 1.8061223537302038 3.5434476824341496 12.999603841062724 -2.0459126602807736 1.0607104089607087 -0.39154533001242886
Ni 2.0324383006250217 0.05349855730441087 10.131604705220266 -0.8364217673478304 0.051814413568130116 -1.083153054234941
Ni 7.014845111465045 6.358365743254003 12.781913096541928 -0.04972847757337887 -0.9172073713373301 0.9495634190705324
Ni 9.098689950013236 1.4869834147302994 9.579319882922736 1.3812459834234794 1.5774514936468962 0.2007170249405253
Ni 5.761587262935808 8.54814786280378 7.123583117973059 -0.7247692985761452 1.028631526148293 -1.7371874481893694
Ni 1.4497878630885075 0.42512322131798436 3.00925007263716 -0.42688051497861323 0.3299524969012963 0.9513289956113874
Ni 0.9812123854682722 3.097792258563452 2.3668618834301567 0.6446107866476833 -0.14285460540610237 0.5584595474708963
Ni 4.733991029248225 2.3586182211547393 1.6879601224677567 2.5329204795685865 -0.6362865830527041 0.5756093197773055
Ni 8.140204083461878 5.67241378481738 1.3039151301718137 0.2641885631316095 -0.9859586698701148 0.8066509638433011
Ni 1.4564141271198376 5.374674268739239 1.1335611625224007 -0.5198420922090143 1.3486017150258969 0.2526610221079842
P 8.555078253000666 3.9662107003885407 13.348644833297751 0.8242478509894579 0.8319717019962769 0.36141791449942917
P 4.331530736830719 5.584567402694098 9.376993039329102 -1.4613250482642575 0.9051054458674734 0.18655770272100772
P 9.054241450120184 0.5523327452084656 5.775397355635319 1.2440750586657154 -2.4958505712994823 -0.25195448295926287
P 5.483708107062837 2.4582425802349603 11.88890927981228 0.36666245072782017 0.1833163129655746 -1.5120084335517379
P 4.432426896239623 8.816599107544553 0.2866895987296491 0.045542721626805435 1.4009519464928388 -0.4073946383398596
P 0.1502189723008039 6.936306833196624 3.0797133404128814 1.0593639222351434 -1.4723825916299997 0.28577477394281753
P 6.474191732608325 8.188670735118018 5.017061526607772 -0.2896244867062109 -0.6458667705419715 -0.9372406358391213
P 0.5479837410410321 6.094522470718607 9.069820082552118 -0.7850601250464028 0.4143597568037832 -0.03122990454855912
Ni 0.9448001891013941 1.3104519995423596 13.461988047227816 -0.8135970561438312 1.1170031700151666 0.422861109406575
Ni 2.7397712500945888 0.08090954076530824 12.245395833536751 0.676051778765784 -0.35513259571134964 1.2061728843033033
Ni 5.229329609437282 4.511131061507439 6.426687225548666 -0.6470510206580598 -0.8615051926790194 -0.4326850374755323
Ni 7.958889593124758 8.713186995311514 12.745144243126354 0.1452866118863627 -0.5021896692345738 0.26636628750921865
Ni 2.3142987444834366 4.028234006272896 6.026309736567991 1.328605217299312 -0.31764719717138196 0.7163941871385726
Ni 4.2714612111614425 3.56001795048468 8.692682440592034 0.03689764435729775 -1.533894692101868 -0.26054993793775777
Ni 3.7742241464237707 6.904272210424852 1.1426278086336978 -0.26625907250739306 -0.16382992210618882 0.3144456595149488
Ni 6.4097814971215845 7.53702052177821 9.038135665667955 0.8646216268208142 -0.8262042033848803 0.6579900361680668
Ni 7.661306748101601 8.119588015815028 2.9621215761094604 -1.7250680392180162 -0.4061931618325908 0.27041834609140525
Ni 9.039505155007394 8.315638801264937 9.607443258886583 0.2057119070519554 -1.616876532411738 1.9898865226241407
Ni 5.615090610582507 5.639264032771907 11.048362618668625 0.04225196669067562 -0.514784732290765 -0.5213973525112763
Ni 3.165197675983687 2.0467506622949183 3.6263063954423314 -1.160520376571511 1.431512078667883 -0.24711720947161955
Ni 6.269063241913824 4.713301234046089 8.767934313083583 0.8821894605012485 0.7775712728685253 -0.6274774694015065
Ni 3.585315717892192 1.9473843496581984 10.404625215199887 -1.1057412239481021 0.4497250236769545 1.0414518178414127
Ni 1.914501860000638 1.5746270460765437 5.6206303147678085 0.09666987931992384 -0.5997432367110317 -0.5221270315884492
Ni 5.958854553047938 4.334839260874179 2.2797933270151436 0.07119873163201286 0.6077046576499534 0.38237214815359305
Ni 6.351232602280082 5.303471882221775 4.3626962960445566 -1.7970820676624726 1.6053340789897772 1.087195856845747
Ni 8.389725778382967 0.9983171782946265 3.588403980864235 1.1857045891466227 0.9850765243754777 -1.2333988098987918
Ni 8.155751381682816 6.06844134803618 10.620278314411467 -0.45799189167143706 0.40620987400313907 -0.9732252814638466
Ni 8.242897352030878 2.1096494828982952 12.269081732266823 0.7129645926317334 0.7507423256011393 -0.33378344061161225
Ni 4.40061345613371 3.9455577689640466 4.1612597126810025 0.28969442071219786 -0.8420761374201303 0.35441860036346057
Ni 4.848840128495008 1.4059752633597962 5.054843212314087 -1.0696696750365255 0.3510615109657696 1.2993470917651428
Ni 8.25261095743981 4.533120304871491 3.578773318955 1.7283063436496557 -0.8178900270922302 -1.0889046120067376
Ni 0.15272202280276392 5.006312970641513 6.746189272758355 2.4398676281759593 1.171197396669383 -0.2878797361009623
P 7.006771944161227 5.752242295303306 6.922199987087088 0.6402568805543618 0.6905610281255525 0.055976258255303606
P 2.710271012035774 1.9777324546028023 1.4439403463598859 -3.091693187404527 -0.8528287479509441 0.34919771828415347
P 7.873116798493896 0.6667063017236526 1.2986482179410694 2.708263801631013 -2.60584519275277 2.5397979234147097
P 0.6054884693807966 3.4317135723982015 4.669760504677495 0.12447147491322433 -0.64599969657541 0.5546185764582512
P 1.360079860194255 2.484231543473279 10.874846660491883 1.5286594118448575 -0.7093563064551848 0.6248600863833174
P 3.171160392017443 9.214617314756078 4.5764075957687895 -0.5556539597013012 -0.877045968627096 -0.7422972801575797
P 7.276015760121324 2.410245941743768 8.773869381284106 0.7518191036050859 -0.33467715607047527 2.146629455976561
P 6.052331877206187 6.277191704884107 1.1939154608739693 -1.2542296306012142 -0.08266070952502538 1.040590498282382
