# total energy = -340893.7027576433 ev
CRYSTAL
PRIMVEC
9.06194300075595 0.00000000000000 0.00000000000000
0.00000000000000 9.06194300075595 0.00000000000000
0.00000000000000 0.00000000000000 13.26306957684887
PRIMCOORD
 96 1
Ni 6.291081563667608 1.9721505964167276 11.568499650678424 0.5784717289267651 0.10228105485911418 -1.0700314292513182
Ni 4.654974989522264 0.413859830691594 5.964933182857818 -0.28241537055228133 -0.8682756786336338 -0.15979688968739578
Ni 2.888530493085593 1.5933251425151294 4.706519319772774 -0.6563612423153922 -0.11879525046405347 1.7946066095387865
Ni 3.55940423730249 4.341214284424931 5.026530952965537 -0.05084793588980275 -0.48704921404870966 0.0342964592890248
Ni 5.031308409173003 4.256041084701911 2.8528200953679104 0.7519957383922662 1.140813642171203 -0.4851468548196742
Ni 7.129873106678796 5.996867469039744 2.7270992328977197 -0.2402654766571088 -0.29100028400781497 -1.8471453028674512
Ni 5.1421903404221645 4.574187770080758 11.455352233746662 0.4018953057881853 -0.09929394720633222 0.17126580955894377
Ni 5.70602441710759 7.767335468048712 12.60840379489963 -1.3580266078842225 -0.08629213563002558 -1.033426119323459
Ni 1.7647680370315475 6.438374380807512 0.4270929856607956 0.3893058991589489 0.19058867825727177 0.41266745670302474
Ni 2.6172612374511 1.5506252683694892 0.40167242391348046 0.4299555543595111 0.17131208941584689 -0.16329821797243488
Ni 0.6702140347861235 0.10838627222120992 4.52672493883602 -0.1641831916805495 -0.8202179038944584 1.540487257717721
Ni 8.514927619421167 2.3918001023187734 1.1580039128551314 0.8979554650862536 -1.308507160997856 1.0072250354480587
Ni 7.002317200805701 0.5451945666832663 4.798021380298704 -0.12641677156505324 1.0470866475296872 -0.60727785452518
Ni 0.7881570318108121 7.413684091052161 2.5982619683225456 -0.4274173613186897 0.666424025868033 -0.31487657640478034
Ni 7.8016711690541936 3.968106916386214 3.8477625045379695 -0.7414524156587812 -0.9235034887586868 -0.5140704798325598
Ni 7.641881932889069 3.6495433816417684 12.65782219338559 -0.7336928263180202 1.3912894837024106 -1.5596265496503334
Ni 7.629784239343986 8.762228036533754 7.192203867361299 1.9906951345683652 1.0125451621093917 -0.09384835071072871
Ni 6.729126813312362 0.5334883490641369 0.22858388059722184 1.6276857072121 1.2432584763016912 0.6881421342714148
Ni 1.4901549245295371 6.512057037148386 9.33677604810933 1.1126657189820772 -0.3703686959348138 -0.283270519463725
Ni 0.1251843954605505 4.749173884204762 1.35959679702986 0.01316739061989345 -0.10585385981203704 1.6522680245371546
Ni 6.296183437424822 1.999843893400827 6.905735015185109 0.6047183213281199 -0.16634857476298445 0.3643991086149402
Ni 3.5176014954871593 4.3957218699482805 0.9149888884597492 -0.11040522662814532 0.34220740300924934 -1.062148426958816
Ni 6.067514374565935 5.664765391856083 4.88522626758188 -0.7374468940438138 -0.17209858987288426 -0.2437074124591222
Ni 5.393106472684182 2.849346652719348 9.359827818026918 -1.336675395901956 0.009086278571984352 -0.6979871453862947
P -0.006343359911279279 5.530376781164266 12.671788459521679 0.09648193167883384 0.7309507447965089 -1.3935697950961548
P 3.9851977403757464 6.0093276402940425 12.615858148989656 1.136324496051598 1.1298278325836606 2.073984735926641
P 2.2008921548174585 8.484434182133374 1.4135778836805737 1.2651372786526534 0.21034297806606356 -0.853366365621969
P 6.3139629690618655 7.852399924458967 5.817593243615716 -0.6824175730828119 -1.497022758776183 -0.6592102817284131
P 4.683791967404933 1.065666341209458 12.789021000236305 -0.5511691844570701 -1.1307935389310395 -0.6820298507260899
P 4.168457408212605 6.0944011586470275 8.1575961874818 -0.5670673437445654 0.14863650219520208 -0.2836806104179502
P 4.888591873111951 0.9480785723398011 3.685674253502142 -0.2472298237900839 -0.6650063195848999 -0.14037246241419696
P 0.13474112026402926 5.653628264240422 3.4857732340351792 0.4823248119898467 -0.8542693370522125 1.420229049554896
Ni 1.3959197820761182 1.0813888118467003 2.591696590814372 -0.421215603383352 0.787660024563095 -1.1644724192407236
Ni 1.8736835267082126 6.563492624086131 4.791389850608598 -0.3657777341300217 0.3500857773160616 0.34399843347140113
Ni 6.023201474614283 5.567104835050572 9.295555083017291 0.17950413830833603 0.6782742403383996 -0.7585186271124484
Ni 8.796382498684627 2.376784463214503 10.07139149749185 -0.20306238524425027 0.11890503656904039 1.0007525403498376
Ni 2.3268259729418133 5.409943562277263 6.94503394222403 -0.38894234517194304 -0.5734987011922058 0.9239878845942733
Ni 0.7819432576805776 8.994893416136748 9.063118970565377 -1.2399214415086581 0.4531265931593357 0.22287427776385485
Ni 1.3710266253957122 1.1241883673623747 11.158392370471487 1.0274935558891078 -0.27393021589940564 1.102941806826094
Ni 3.870763527576268 6.951135348264407 1.70425147728367 0.19359558340439562 -1.5139915254200376 -0.27461978576726254
Ni 5.61633836990483 7.9658554474435626 7.987431026890369 -1.5684379772943762 -0.7886046478645515 0.8775162233952951
Ni 5.453214338814918 2.743231303346376 4.631702108202054 -0.10473311594403253 0.6637642196476827 1.2399386678998388
Ni 0.7116832971089753 7.500153148585629 7.041164843096648 -0.29949289485985836 0.28646228692814535 -0.6977611454184177
Ni 5.233117873778988 4.406704944537524 7.048418928252332 -0.25792972670609127 0.29511739149998206 0.3815272836547945
Ni 8.108037328883523 7.234620102699478 9.090388168629692 -0.02114089574367327 -0.33828749912955286 0.13882800074521254
Ni 4.695101271932471 0.42408804545139533 10.494045037409025 -0.8657194878706833 -0.6108899973564705 0.00768297046655451
Ni 8.066044286270854 7.3056204239921545 4.478142957664078 0.5402273407335857 0.25051620785083956 0.7860119474367109
Ni 7.169645973322519 6.191472689175062 6.9679787812174 0.8990926640144903 -0.9474219472474973 0.63361906352287
Ni 2.2646972935821976 5.15977050931914 2.921363723986375 0.25019713394852394 0.13284170125479058 -1.4456847706238392
Ni 2.372063191051965 5.400220097727545 11.5098770369612 -1.0422316334302308 -1.1826092380507505 -0.8565992707369698
Ni 1.165583321754837 3.2413209855227554 3.7725610665954807 -0.652458050606244 0.15624568200102767 0.5326382155324182
Ni 3.55985733443901 2.388238758825727 2.700639266319228 0.9750481936051981 0.6232446622670814 -1.0354565194899263
Ni 1.3032342318295975 3.410117792761897 8.267573736846469 -0.3800967218558551 0.731162860807315 -0.2043101416084223
Ni 3.6290090194146845 2.5916250014668014 7.108262185655342 -0.050360197620106815 0.6584065548801951 -0.9893957205761219
Ni 4.008740667589323 6.918747964945962 5.999694795171628 1.049385985086825 0.2239752241375175 -0.02607998491650347
Ni 0.8273762137537058 7.338261541707051 11.59523781889874 -0.03496417478001076 0.36873116033139075 -0.5437852332881732
P 0.1594267584559091 5.5762030255518935 7.858673507411222 -0.2799375984357501 -0.6007796483953459 0.6116163339995339
P 8.625356453533808 1.577394247195088 7.996569996133976 -0.6249009669235819 -0.4155676610689552 0.407325475664821
P 1.7638165330448556 3.3988266121198203 10.500040418719456 1.2224464246523463 -0.4228577669724653 -0.3263763495142637
P 4.0618708378176525 6.116503236966471 3.809365240800723 0.1340758307722078 0.2971817302281785 -0.17617430260415465
P 6.923351431853004 3.871878146532107 10.360459314843121 1.0175649839214862 0.696700051143755 1.2978100862953261
P 6.32452919428551 7.95579669101282 10.193689664192771 -0.43147816165162467 -0.3998163117719695 0.10362111382677638
P 2.355815127736359 8.458589521466276 5.904864283080823 -0.047091811281480184 0.6265639564483015 -0.9970930892203796
P 6.973337107953885 4.002080139682479 1.4468814294090628 -0.6629723198740066 0.2449276580194685 1.5442490387529986
Ni 5.33854451550445 2.8612812312952833 0.4502426245598728 -0.3754484244505663 0.9199723356769768 0.08244010887378705
Ni 1.4182393470210908 1.203290065456027 7.049838934678186 1.1061428302618952 -0.12277197572361437 -0.922463991750579
Ni 6.825835866131181 0.9716668092670295 9.232050800751201 0.45833976192915904 -0.9604903503956814 -0.05263922346227063
Ni 2.905177281881336 1.7128702910145523 9.14440912782842 -0.22877830195311563 -0.23038164188449356 1.2916106423528337
Ni 6.468496278443358 2.0711704446317976 2.504505296445292 0.4723129362797994 -0.45339938720474815 0.3462638324668101
Ni 4.270966104378878 6.9576599470302956 10.581567998882036 -0.2607509982049703 -0.059608455691252185 -0.8202844954663356
Ni 8.224863894563825 7.477978574724343 13.367051516403173 -0.9512469774205425 -1.3225142739102256 0.8143393336264942
Ni 7.723783771286414 3.5741842658957705 8.378718464434812 -0.2532698593365767 1.3282604323653835 -1.8855434430296754
Ni 3.20713027560096 8.34896720025664 12.584609851872424 -0.23754550662278445 -0.06531990425373267 -0.18581311124549935
Ni -0.035626121650290506 4.954363453449186 10.529152815935138 0.2294470458853661 -0.8224156828767256 -0.6376356408814309
Ni 8.6440149936157 2.155111220143483 5.8049273662614365 -0.01124112013145806 1.1171430380271405 0.3559527776197999
Ni 3.798467348473145 2.6504823195007425 11.595821408010575 -1.451738433017087 0.07059040862405261 -0.4989513648029342
Ni 0.9490028904983017 3.466310899633101 12.5884693332813 1.295779943239175 -0.5884838617471284 0.005288759202765086
Ni 2.874439172139823 8.476450610587893 8.023493934180264 1.7624505936315324 -0.6691141711056864 0.44835462569198914
Ni 5.64153963263807 7.959131485937606 3.5906307857571718 -0.5905600275498668 -0.8344150213304469 -0.06861657272713344
Ni 3.0086556059197624 8.530840390855747 3.5304694541643262 0.7865585639688002 -0.6845788424001888 0.3894575942454647
Ni 3.6433268889287147 4.448235828070942 9.502458265632033 -1.136413199110662 0.009420264872635389 -0.5734012563823931
Ni 7.225222868088054 6.300850337930977 11.320772416063233 -0.0372308593270004 -0.5752113130079383 0.5661399468342895
Ni 0.5234323112162131 9.256321401966028 0.1966432510553846 0.40943095204359814 0.40774173726663326 0.20731319010080423
Ni 4.672083937397258 0.0667113037983781 1.5253723525626866 -0.22955168978403043 1.0640577281663868 0.2411720476317782
Ni 6.151337344822125 5.617960457653572 0.24650568473513187 -0.5200259260850463 -0.022869448399005777 0.9372324083090051
Ni 8.054753105628777 8.799218886759244 11.168459282650689 0.05884560938329866 0.41294436451349525 -0.005961102679441346
Ni 0.0924454087641651 4.803445859217121 5.707907488806966 -0.011021547921484244 0.16985453103371392 0.4928635067376415
Ni 8.049306878047807 9.0503253198186 2.3387967992886702 0.03022511743312859 0.2022108358772324 0.280809202407426
P 8.523119615649447 1.7964757746452134 3.672928631051836 -0.5798213009761239 -0.9924651035300649 -1.5259237580812492
P 1.8465158224024765 3.19054692040433 1.6993707149290773 -0.9045981672137517 0.14019222808259083 -1.5703393080821473
P 4.816005711841454 0.9848156881688384 8.166058229603449 -0.955055295423039 0.3209353810043505 0.5304633193682864
P 8.424389749601751 1.584344757269304 12.209636629825518 0.13705753910835106 0.42323803313001956 0.8022327801709473
P 6.461119857060814 7.691622936536229 1.4492157858564134 -0.2253206824218184 -0.13640705000854572 0.18446816718183068
P 1.7557242181866093 3.2234689583438696 5.904240821420971 0.9046426472984421 0.017395569768628105 0.8966022934924687
P 7.003549625017035 3.798168304363042 5.946470380738903 -0.012739816164171606 1.26148348395015 -0.1908666145090068
P 2.3756064106595507 8.310771111648009 10.350247411580236 1.0100679042134928 0.5274145052396335 0.3931381284208455
