# total energy = -340874.8678453654 ev
CRYSTAL
PRIMVEC
9.25039450345355 0.00000000000000 0.00000000000000

0.00000000000000 9.25039450345355 0.00000000000000

0.00000000000000 0.00000000000000 13.53888740000601

PRIMCOORD
 96 1
Ni 6.162131712911715 1.3409556695615812 4.891031321521388 -2.1532402764248597 0.9056250658163693 -0.2777411050050636
Ni 4.382041321523536 4.436063624680498 6.1380714371392395 0.9178984838670837 0.41774230012277086 -0.31672468535711257
Ni 8.91912850318643 4.9706901676525295 7.658609637923028 0.9563236206125014 0.39131290228664867 0.7322715204904614
Ni 5.670963522719036 8.436479926214222 2.026555124029133 0.3618765993034026 0.6079735950406239 -2.3839121958562624
Ni 0.12215700797424438 5.919725128283598 2.589122483214453 -2.3132683082864545 -0.7063170054082287 -1.148969438509118
Ni 3.536314765285783 8.253109358494964 2.768987151465135 -1.9888925341419876 1.014993366539568 0.5369725812417139
Ni 5.966236111207092 0.47847294895079373 13.35834651234921 -0.3839433492954549 0.9064583603509422 0.2649069293548728
Ni 6.522813840033827 2.2299555706911613 9.167668099285963 -1.018164308068382 0.7206228805079395 -0.5296701340430297
Ni 6.851563605769323 6.375519810381719 2.235730591900218 0.1897258160363442 -1.1127029999779159 -0.4467433153408113
Ni 1.612371490953438 8.781427132502433 10.510901215942964 1.2437138186715548 0.2646385061848346 -0.7339190833962135
Ni 2.020730150690445 2.3865462466913434 10.503672032737969 0.7030033676539635 -0.33231585492715027 0.3821610605840515
Ni 2.592719036547916 9.018357483659845 6.586031960240163 -0.4019672966767012 -0.4105936048931315 -0.08724781467507554
Ni 8.333856051004746 3.001734474285633 2.100774738267074 -0.7528357177950583 -0.1207300055929211 -0.5914097771446718
Ni 2.0684066833053394 7.1224984066536186 1.0694066424907072 0.5682348816901053 -0.2323243674331612 0.11584079582141985
Ni 3.106587694539772 2.1685329520332446 6.240276269483475 -0.34480293165056747 0.6607292894761009 -1.772629076826431
Ni 7.969122251145862 2.5044610238046663 7.449393468316688 2.239006878568718 1.6944675407233398 -0.009927543526357097
Ni 5.4872506904078575 8.28066628334164 6.55219864280924 0.41186475829607133 -0.21443488874725006 0.10432713875486549
Ni 0.6187690552573134 9.053333224796228 8.06208223935053 0.08831070872195113 0.9120440819688357 0.3886811210907564
Ni 1.1805538310784076 3.341529210906303 8.470645332803253 -0.0009713627743338111 -0.1642646956507623 0.38621826137256066
Ni 7.675024462743582 6.322718559282413 6.3879717662515105 -0.9567568514951781 1.224479395921975 -0.5913632401774525
Ni 7.6198181091064665 3.1655682090823736 5.261062822239517 -1.6538693075860034 1.4000399762015308 -0.6288743497490331
Ni 6.0102864892265195 8.721660334437853 11.004826948699185 -1.128997109152249 0.30564554472481553 0.8764499869143099
Ni 8.429495878460198 1.1106856023550273 0.2177755595226308 0.4619423916787528 -0.3901008842564185 -0.23074005366517683
Ni 2.284532897510695 5.424459013382265 3.037367918462163 2.8708271983199527 0.4936176112948467 0.9607070943921777
P 2.8119441328692965 4.428136036700102 9.858760437934098 -0.5019520993024711 -0.5692574094173487 -0.2898237472012105
P 1.3800385858009931 7.166789294926827 7.188201182789399 0.11997178727065791 -0.03928774185602911 0.5344791253958988
P 0.5069752641027173 6.601053675667662 11.402666984991024 -0.9007726228200745 1.0798905814335855 0.9028377328792193
P 3.885147137211993 0.05676689516837899 9.866180179263242 -0.266398940519367 0.7750467066744589 0.3013168354424746
P 5.389945791964691 6.245079999283032 7.265725037898517 -0.3704188324464588 0.455286576925132 -1.1329301256580682
P 1.3840532569602608 7.464855502516494 3.2280629484484913 0.7584695190420679 1.1679989443367433 1.922572727868831
P 2.7859505246721965 5.225658787843517 0.48274570611315687 -0.31242554376112647 -2.270665900234896 -0.17636739245156724
P 4.091569687716723 0.34514608976729716 5.144993498804245 -0.41407976366951915 -0.35971147333128367 -0.8088091478368845
Ni 2.7777269240717612 2.5850412092156767 3.180068202267055 -0.9610102274548932 0.31428676533958133 0.5068919598062496
Ni 1.9202801181593732 0.4876872667889188 4.240582440643928 0.37102407013062555 -0.5650207456281817 -0.4771463531127009
Ni 3.8689496966592802 4.0639572605037895 11.945983348440052 0.3857186960283228 1.8471722994506445 0.06703945804800068
Ni 1.7674358518815487 3.403099835874239 12.750084980063814 -0.8927232701530368 0.15638632134395 0.43868187848891543
Ni 0.6887297879244554 3.6241380094933526 6.089967536304164 1.144638672344248 -0.09869462305943648 0.2117653123348869
Ni 6.006225566095371 4.309434976064803 10.436924887077117 1.4574946187745736 -0.4605845920992777 0.8429580258044513
Ni 1.4891007354963 6.401975938297628 9.558942205649581 1.1881599926656505 -0.2636797418159911 -1.492781981221958
Ni 7.560634085887589 6.9428187462904605 10.703113310606986 0.06390605462534156 -1.662082696634731 -0.1914479409337735
Ni 8.923420686176984 7.01907899752779 -0.00023958521434337929 0.7505392084513978 -0.5810225203730768 -0.2642433276289449
Ni 3.8153714124323748 3.1971583058770703 0.7580494682613274 0.5489294964932739 0.6071467282639543 -0.04705658716817057
Ni 4.573311726040063 2.2778263615879557 10.71467537853779 0.4303355634067492 -1.4783429229784928 -1.7381269292845034
Ni 8.320248720877368 3.2857400824234877 12.515631884520346 0.9438401434335099 -0.11795887060568716 0.4274495001082058
Ni 3.616941202668675 7.254464532824377 5.149434613144255 -0.3711197151682254 -0.7268521492471031 -0.134402103763375
Ni 4.853607926033065 5.979029406629365 0.7391000353816976 -0.8006836905162728 -0.6481172571390451 0.14577512148700703
Ni 2.5730341973153794 6.548677942709661 12.282843859964592 -0.9718949926881971 -1.367427589483148 0.03977985100109923
Ni 8.129736848699688 7.353240243973358 4.117622498437831 0.6182238120137225 -0.15944156323050604 0.17936144208288465
Ni 4.613458437632737 5.337292547175405 9.083050116729744 -1.228578762802329 0.8335560157642612 -0.3375241386009671
Ni 2.57777039923599 1.33753302364239 8.327526006133118 -0.7741923290939634 -0.4744415525870281 1.8366006945823852
Ni 0.989801448646947 6.149449422221956 5.276321347763047 -0.09050257416694737 -0.28044050621409766 -0.4331951443427313
Ni 3.851096435513229 8.479929028599198 12.481756940314728 2.1859724765505577 -1.032434701944467 -0.34416349829435566
Ni 0.5263104384278343 8.727238322246698 1.6934308467931354 -0.7022472062142293 1.7179234577534348 0.8132532996511672
Ni 6.530778429591729 3.9567081881062163 1.0142863175212904 -2.2232115634076743 0.6053788377302541 -1.865652360532703
Ni 1.849736610646531 1.7153561315435861 1.007669510424 -0.5932522296700493 -0.5986116942097497 0.04414404150706591
Ni 4.628767840325335 1.3362842204016039 2.238993205996701 -0.2355557298862653 -0.31510720435834766 -0.15102325725982377
P 8.344956524256178 4.9853982947106745 0.7127752630659295 1.1889135830022233 -0.6868974632310363 0.3776138075330013
P 3.187944913078383 9.305341718786833 0.7210719417819365 1.2049644658174992 0.03130909452592672 2.1456043571461563
P 6.246301051340689 2.68325264630771 2.633205237614197 0.1389185035764898 -1.5649929561685691 1.6480773834945746
P 7.577867570610435 0.37460767081603186 9.67326412958719 -0.21146655014754548 -2.0573841512554827 -0.012493504481320418
P 0.6509687530414011 1.152386380202902 11.928206865567322 -0.3894095146163487 3.1680012152386476 -0.2640098714619002
P 0.5322621421694763 1.7250690456385882 2.8089127786322186 1.4045003259657296 -1.5487132451719392 0.8342008484371118
P 4.608324468753951 6.458338591231768 3.005091442404753 1.1591378944016877 -1.5126434960325754 0.4928305966171771
P 8.125352161765374 4.523146837337973 9.57540513252089 -0.630865669147449 -0.3752949295918375 0.4292423303425705
Ni 6.470697118118361 7.429602249548826 13.373644814568557 0.08832664956155112 0.23757481719882312 -1.088691210444351
Ni 7.702905151393425 0.42901294030016895 3.1951639208495632 -0.02398427872973934 0.31961923329608827 -1.759758648621666
Ni 3.601548546426691 7.42990751256324 8.195521953345416 -0.5851062035241471 0.40645310036219684 -1.9900122495687274
Ni 8.924410478375234 1.3947374624647628 4.945741854019939 1.2287967923504064 -0.7930236028678536 0.7400107981162481
Ni 5.996355395295974 7.593833751303742 9.013338219671322 0.16771768719636923 0.031057126416120708 -1.4358736980706885
Ni 1.5258988043247925 8.862895355773558 12.937218608215309 -0.21506480902176509 -1.315976729902024 1.1123980671429874
Ni 7.454541312787039 9.627255443078322 7.581397521104389 -0.7453484082790776 -2.196437894858256 -0.852554668353951
Ni 6.599666116511234 4.566623690906076 7.837811052896938 -0.46176909932568216 -0.3807569811476733 0.12462908353701116
Ni 2.3624304685526103 5.166928033949072 7.344006500307043 0.21168817924004835 0.3682832741606948 0.13529607633255408
Ni 4.207264370179759 3.1079382521186965 8.201181344624771 0.11431458898488056 0.5511748408840249 0.7309797982622314
Ni 0.6856373810844943 4.434324550537775 10.853367466459478 -0.5363483173941538 -0.05433975109314512 -0.1551611906875973
Ni 8.964140922220981 1.9881040097256146 10.048927270401546 0.46112838041788967 0.49942316223303024 -0.3079273987804567
Ni 3.7555121104240348 7.250551616003248 10.41413931564968 1.175974506343052 -0.5499234849754271 0.7366403389821184
Ni 8.724296696835069 8.633846340624661 11.651444316226026 -1.2263912682327074 0.583358367595105 -0.19495492564576747
Ni 4.679737513338155 4.053763325901225 3.136336962853606 -0.1571334839226197 1.133213718336758 0.05915259910075619
Ni 1.2696628801042673 3.9426938406262853 1.6099090359704955 -0.21853862650297845 0.06315477828161382 -1.9511011743258269
Ni 7.037774044562075 1.6357472375420756 11.349039673673925 -0.5179528456061014 0.2955861036062845 2.26774409860241
Ni 5.691416144684796 8.161567455748166 4.1951463535469475 -0.3170776978211572 0.034136536672392824 0.7171313224149133
Ni 8.616908868521852 7.202949086543363 8.517923173420533 -0.661025480560281 -0.02641602809968354 0.20359948869464292
Ni 7.094774974708171 5.28325174322969 12.394337013301962 -0.044688344046310134 0.24516522795157128 0.49871456620177984
Ni 4.812526924608394 0.7595776334122744 8.029426497123696 0.7741447636854797 0.006070888784428254 -0.1254117273393066
Ni 6.14715532441666 5.630631803238837 4.5491746719942645 -0.5214132933508762 0.0021602408761124087 0.19554088005622455
Ni 0.49621613040376805 3.778628845970139 3.865000703300084 1.3635238835533676 -0.6634634005778123 -0.758993509866338
Ni 3.185327051469921 1.401767762190669 12.37142933666876 -0.035110727660204046 0.7072814262040271 0.7811967854362546
P 5.876757046406185 2.7487546888855277 6.712133336376415 -0.5578355407336522 -0.6763970779203448 0.44740923105958424
P 8.26169372447607 5.026645803234117 4.565596897130319 -0.5226769905546482 2.8814702798560954 0.1164660881102446
P 7.7029791545484345 8.256550505202908 1.3698779526181837 0.0004993082339217207 1.2950047556360473 0.4278325944792373
P 7.367633857622714 8.952568678856364 5.32418103818659 1.680238027387519 -0.8982670827894014 1.2980003479292612
P 5.148778760182983 6.352208816553714 11.997092702407949 -0.40254862310146805 -0.1459520133845035 -0.9215314526339806
P 5.465373507708162 2.5244141244741125 12.704376931372172 -0.2929154987526568 0.32359981521039105 0.3988873721997969
P 2.656185992362971 4.178921161811107 4.830349659453004 -0.1936827438015632 -0.3535991897859588 0.4694911505602882
P 0.7765299061460842 1.6979468893275924 6.960856090284598 0.8343430304419308 -1.1101141562048171 0.10090782866067137
