# total energy = -340895.57965835556 ev
CRYSTAL
PRIMVEC
9.05050995381390 0.00000000000000 0.00000000000000
0.00000000000000 9.05050995381390 0.00000000000000
0.00000000000000 0.00000000000000 13.24633615697793
PRIMCOORD
 96 1
Ni 6.710916856787037 1.6550576870054439 11.302661355856356 -1.6238228818225842 0.7111339671808979 0.49960108257179126
Ni 4.841045318330148 0.42708903488805317 5.975752991628014 -1.0200797799235402 -0.4047371461123545 0.19377298952252436
Ni 2.53902098472032 1.4544350350094812 4.746612298484166 1.2845280244744395 0.5884653498043673 0.6748515878100958
Ni 3.303580905894269 4.279615040382498 4.870333673277779 0.5264279729566482 -0.027459381762533354 -0.5600744573665
Ni 4.897131327912815 4.567774223713552 2.7005309533190816 0.7384861339416056 0.28508340430274776 -0.5157661223674278
Ni 7.205454816382985 6.142752999505918 2.743037577912587 0.15298963695757523 0.4920705785227009 -0.30936361700635107
Ni 5.176258102406769 4.61210362099222 11.705641642587832 -0.08622502983751601 0.1436825006240364 -0.6448283019751282
Ni 5.6302135758047696 8.045143019878335 12.22952045008858 0.09350922220375509 -0.34786382996407833 0.24364390621103846
Ni 1.8721251154112346 6.666261641153524 0.38424573132787415 0.02978854411634225 -0.6804699624381377 0.11994479068746439
Ni 2.5178518421652356 1.6572207588612218 0.3749056051556437 0.9153595194953138 -0.7585278830838291 0.00604800596629281
Ni 0.5122670033544583 0.21393866714829077 4.602519131053855 -0.06481545381348837 -0.9862600031606176 0.16330875949539617
Ni 8.440985169485742 2.513905819867665 1.280850781210746 1.5741653666964566 -0.9801945136928281 0.2703322141355022
Ni 6.946012900827598 0.49035662404210084 4.665333289664076 0.15455055368679188 0.9090716296040731 -0.21226359212754412
Ni 0.8878577321062626 7.257205631744238 2.7271693189806374 -0.6176789952538458 0.7836015382230054 -0.1292902364581064
Ni 7.412838199241986 3.8385565435304554 3.7121535026662693 0.8639742230448024 0.15232577812133122 -0.0799242844304688
Ni 7.526250138257703 3.6712397678075632 12.709011937047578 0.2637553322489329 0.5941420884741703 -1.8911471623696976
Ni 8.167569266711437 8.868594608690561 6.850276607562234 -0.7180798023711117 0.5638773760523579 0.39887785911810014
Ni 6.680289931431583 0.7044591054188 0.39289711370000124 0.7390301793705337 -0.385785030489884 -0.2602961700557388
Ni 1.8387377845494535 6.547446547753289 9.163100009533212 1.3129921933524031 -0.5623676242760508 0.11162675774007227
Ni -0.23362714629080064 5.0086969629177425 1.3856194833132074 1.231483338043634 -0.6754488550744625 0.5409868446074296
Ni 6.406086634299735 1.9750746650324766 6.982673801104588 0.8791689285073697 0.27298353571542017 0.7363732013636608
Ni 3.2601022565421416 4.363169347380591 0.3439944937906863 0.41798989735720266 0.40964152539250737 0.12082565063052095
Ni 5.945089864233133 5.736511814073032 4.707390103917698 -0.2632074301652629 -0.06222583870944122 1.2328282821073027
Ni 5.407163760383626 2.680923928765283 9.50321273964631 -0.06221709695869285 -0.11034146326974544 -0.49301263072099605
P 0.38946697046426926 5.455755947804852 12.593662283871517 -0.1947014148740647 0.14733398133369463 -1.0012001694102177
P 3.985554924624804 6.350018725736781 12.514793425826296 -0.7458117210687414 -0.25487628459174816 0.8830968028068663
P 2.2950554410200823 8.534187319991197 1.527104293802786 0.18246347804697607 0.6424960542975257 -0.39356827397972866
P 6.377468922132493 7.806806893309034 5.889347774025025 -0.0028762931065305303 -0.6754048892104044 -0.6598453442092507
P 4.6318065809505 1.0892922148363813 12.670332773072518 -0.056500763300205925 -0.14310271686116646 -0.6195291610887073
P 4.145061110341267 6.080639350358615 8.286761766372699 -1.372672125711539 0.6504268791088282 -0.16742046767092456
P 4.640205454097622 1.1016190092613598 3.887601256444522 0.2849589629097415 0.3336399730552125 -1.011991860709083
P 0.16261956110720688 5.568670108778445 3.8673471204359617 -0.6227186145602823 -0.9753112174585977 -1.1918595530044247
Ni 1.4408954722636895 1.2287786727495753 2.5997652917262886 -0.46303793873577676 -0.6548764302397495 -1.1723158265445421
Ni 1.8778902901900243 6.320559316152857 4.950884116054396 0.4593700029658863 0.6647481808275069 -0.19491353088487076
Ni 5.981237600601243 5.717026066351315 9.323486809858743 1.150172971898916 -0.6690727763447897 -0.2415060339324292
Ni 8.70584834044536 2.4070011974389964 10.169199032714786 -0.12842274625148853 -0.8614882233981549 0.16545640196601827
Ni 2.514466951478788 5.195191769027221 7.085412473846166 -0.6215886147208973 -0.6817596277838387 0.43164296936426305
Ni 0.7308485820592937 -0.09387912864274463 9.05022748090496 -0.843352947250025 0.3786921281988446 -0.33879991998959713
Ni 1.467332011555439 1.0575611272783965 11.361104118205736 -0.4461121095147155 0.7661298638008032 -0.21404768061116042
Ni 4.01901465956544 6.911476155214001 1.5445753980303767 -0.28374205978350486 0.4782069331667313 0.7633921531546659
Ni 5.672886729779641 7.903656399286785 7.941284799067468 -0.496689308241635 -0.011575106432109097 0.6288332120984526
Ni 5.376455380439461 2.9698976579834495 5.009803840273231 -0.3463329951418487 -0.3810868536832663 -1.0260727642821814
Ni 0.859891656648712 7.299616320933262 7.016756211123373 -0.5961670893239991 -0.1419071538911685 0.6348699052108356
Ni 5.243412885544318 4.652486995973317 7.041447812114728 -0.2688080641814919 -0.2897484138785849 0.154082870021754
Ni 8.40941699110518 6.97351740028245 9.410210605408691 0.043714410168815034 0.10311897737937724 -0.4954369238917725
Ni 4.697404676392677 0.4213184298033495 10.478978073991794 -0.6399167236061237 -0.23932162468660073 -0.4161898680339865
Ni 8.355349245220582 7.249956173348931 5.0348665121687155 -0.29219610408812907 -0.5731060937394775 -0.9671651913126956
Ni 7.448153288703268 6.282320912007823 7.145073434822274 -0.5659975077191542 -0.6017993479091119 -0.13085398140080046
Ni 2.285416648022577 5.245485452301527 2.5646366427680563 -0.18946099241073175 -0.5914732833927555 -0.029657160744800536
Ni 2.4690605435271595 5.081372557067946 11.256100102846997 -0.2815237119759474 0.7702791100824863 0.8184924365629195
Ni 1.0958990870318543 3.33157413288139 3.6450874145253174 -0.7902367841513358 1.055500325514679 0.7063663705889254
Ni 3.506212771078444 2.6998394943660213 2.7361501399115524 -0.07891204111587055 -0.34711281073066674 -0.3368240272101489
Ni 1.0056293017200066 3.2484270988268538 8.233697722031224 0.20722217304889473 0.8482709533769327 -0.8265065651166474
Ni 3.736973620897592 2.786208509929583 6.886465071224699 0.32226052757367724 -0.9523723492742372 0.9511932413644714
Ni 4.084694209596328 6.9306270340710165 6.147002213883692 0.18043950563841182 0.3325703941401176 -0.5923004072797412
Ni 1.0662134147015092 7.1814438137328604 11.309152381525662 -1.0910440269472437 0.007402206001342091 0.7602800898882455
P 0.2967336363693971 5.449483944474081 8.053030539218545 0.10302873165841611 -0.16390576964944675 1.2655291147744334
P 8.518484685389629 1.6499531994462016 8.071389498463091 -0.29712850839273985 0.010756981406187926 -0.6116646707389659
P 1.800426976325566 3.1385810606947206 10.329903505936292 0.3611872865458618 0.008231386770856792 -0.5072195183489975
P 3.8610923130739185 6.2325431077953555 3.821819435652252 0.3798835774037844 -0.4953793311809598 0.08820143683759647
P 6.858720733258641 4.026988158749291 10.508159632923112 0.9679429500189846 -0.6063450582982655 0.2924737832295479
P 6.520114007985716 7.685213293382758 10.119100840453386 -1.0589445753095377 0.33997054325893067 0.9073281645504051
P 2.256029642517507 8.429979749499857 5.982892938854054 1.2759482532252284 0.42891348624824194 -1.2894971955542567
P 6.76519276439834 4.078892832778111 1.4354923178791728 -0.31922688295367607 0.8785788603318546 1.4955379467005403
Ni 5.3209214519580605 2.9428909365707203 0.3186078136423272 -1.242316681213712 -0.01846129202898111 -0.23206108646944554
Ni 1.294720687566311 1.140137979211954 6.832301389935619 0.14219845987934218 0.067268029119039 1.1505313836795992
Ni 6.992107147528343 0.5679928026448241 9.130103660697245 -0.2845905238267293 -0.059450075736516964 0.06264235742156954
Ni 2.735978180224273 1.5492300752497352 9.058811889504147 0.11160104670845941 0.36775336979915374 0.5675558533452095
Ni 6.34786470439086 2.026508712548742 2.342216742832947 -0.6376544099345083 -0.17983529639550963 1.9604311934775014
Ni 4.279931808227487 6.882731735908765 10.44635189100897 -0.9589142641578131 0.7495940709293091 -0.5787465798547066
Ni 8.000397299146252 7.0608005173415505 0.39628833974334887 0.1239711382380381 0.8221014940704165 0.5683356689340276
Ni 7.488346602977373 3.9547198375426436 8.382824783043894 0.3893079560414779 -0.34709686989106675 -0.8311960001725168
Ni 2.898407680624487 8.494184066424086 12.381853201692534 1.6565455688665858 -0.17542431181200757 0.6436095990766787
Ni 0.07335438238946525 4.718211798553489 10.234357273377922 0.5866295821472092 0.648160965892787 0.08110467789181516
Ni 8.570063541063602 2.3483267420372806 5.526715565286205 -0.18406296132361202 0.5511247043723798 0.8735456687833214
Ni 3.5804541034338766 2.8718172826651718 11.532697259835974 0.384801326420376 -1.4114289347647628 0.15592146589238953
Ni 1.023657917354777 3.3283702523920784 12.391801522127142 -0.8188822158021705 -0.07043511399311095 0.6600122088044181
Ni 3.1953368080067914 8.412394608848071 8.126547830785434 -0.1389534705794833 -0.8903951362404923 -0.4802090511984246
Ni 5.473648805791771 7.900787387662175 3.6755134185619496 -0.595433296481768 0.20172181205595582 0.5144052374641592
Ni 3.0310791046155017 8.324115935704722 3.7552167336159687 -0.2721337861206152 0.09191693801597073 -0.15331976660348434
Ni 3.625779056796794 4.139178278934339 9.301683226562696 -0.3556455307920262 0.5611751466298464 -0.629429965142187
Ni 7.570660990125082 6.033793911339753 11.59557748716815 -1.058633214716706 -0.010238647008872689 -0.7403882360603249
Ni 0.3858223301449309 -0.14784912902088887 0.2401073113482784 1.235320452401537 0.34680762078542204 0.1774876220989395
Ni 4.556913611885377 0.3425545576724674 1.6296574310922993 -0.8325609988408436 0.2230298295051127 0.2730079611954524
Ni 5.849606985243762 5.958122598426943 0.36774755690989064 0.6548226941836787 -0.759695421029369 0.7521291786463369
Ni 8.095364299073786 8.64846810795317 11.32075604021308 0.14815930544846745 -0.9081334340605199 -0.07042740068362709
Ni 0.06997673211090283 4.813459364286583 6.030195428620685 0.36627781369489176 -0.9447081478607601 -0.8448161620591127
Ni 8.143377253864177 8.83563265179205 2.3325345073881287 -0.3105532664390781 0.3570658081783205 0.6188023102250118
P 8.414946852627693 1.7298239489325717 3.4433587902248526 -0.22627713279781675 -0.04180253785808285 -0.3763542240942873
P 1.6077597224937417 3.3413034309774634 1.4031313148351539 0.22081045325629065 0.006681268674917525 0.9181957033925283
P 4.708256237710995 0.9522312935648128 8.241499261527794 1.0540044576954428 1.1748733028590732 -0.7687750147331341
P 8.52441276934584 1.416169479334878 12.306508612185555 0.5175049594354055 1.5349403597575628 1.3504210276228226
P 6.251920249398791 7.904317086506332 1.6862059217286496 0.36019741182876674 -0.5099968239838185 -1.5223059588230041
P 1.8334070342437907 3.1271412162357097 6.044383007872224 -1.0772300038822866 0.6396063914545566 -0.4719432116452066
P 6.9935280775758635 4.135974398445027 5.947551602914187 0.5238684397595881 -0.420275865177902 0.2655080532739814
P 2.4312656143651106 8.515135996742606 10.250266259604228 0.9712774137088563 -0.05508254279644063 -0.6211209310558593
