# total energy = -340873.0646268221 ev
CRYSTAL
PRIMVEC
9.17825076129401 0.00000000000000 0.00000000000000

0.00000000000000 9.17825076129401 0.00000000000000

0.00000000000000 0.00000000000000 13.43329774096136

PRIMCOORD
 96 1
Ni 6.341014697440674 8.15863873108843 11.38528393171147 0.4636406053167822 2.3361953493962733 -1.407946375532801
Ni 4.431140067122645 8.86924642644236 6.917248215046009 -0.04660870099747457 -1.806819863775527 -0.05100425896200893
Ni 0.9276825000349103 6.654562094062877 0.5982402090426366 -1.221402042548232 1.9714329439046436 -0.9698684491764715
Ni 4.6487747450895585 5.912096690914451 2.2355694415948038 -1.557218454429473 1.107660295347686 -1.519892721395821
Ni 6.539989991960103 -0.21965940004685175 0.2551168177223654 1.124392263390386 1.7069471612475893 0.02783579126534561
Ni 0.8824630950329119 4.304975834525935 10.477394329071785 -1.0482292457745626 0.13172455693121185 -0.6908011691608167
Ni 8.533074642118214 5.182829612113039 4.620718668689032 -0.4634858249064728 0.5561468401773196 -1.0401593242822345
Ni 4.051894752784215 4.076694385875755 4.46984933898185 0.2086229100511633 -0.1186201583387699 0.7722434328977088
Ni 2.874609727980824 0.24787334235750844 0.27270418150105125 0.9222531612913537 -0.3795259369540496 -0.967598165085056
Ni 2.009642214220708 6.8679931332600175 9.891313466409487 -0.3664595906883947 -0.8592824739960879 -0.017204536803744563
Ni 6.461497592922778 4.8701816840485606 8.97517536996545 -0.446488776127844 -0.11674556702387635 -0.9519771707183476
Ni 3.9275019225511865 5.601770860248994 11.434570219549462 0.5774764548930312 -0.1290367256864036 0.3125808383920681
Ni 6.230637055857083 0.3676054569414312 8.934674503591268 -0.07888041654698673 0.7631278437496858 -0.16966426939977874
Ni 6.382454498850112 7.5403917714118425 2.3052745835181976 -0.5952790302920908 0.2474949045260125 -0.42429295675709505
Ni 1.6174280317999883 4.41784996026974 0.41717351707250877 -0.03481762189981746 -0.7714469051383424 -1.2402310023292769
Ni 7.822439412012519 6.01515926677859 1.001214972453927 0.28114653114218674 0.7792818278017289 1.0599683885883615
Ni 3.936964698908469 0.095351927544301 9.375124981982598 0.4942020230434069 0.7327137502342026 0.3598773094851867
Ni 4.969178294901762 3.1794010735411 11.827950957620049 0.11497459116638263 0.6132548980442213 -0.023784246903791297
Ni 5.372479804034022 3.700450359479935 2.1601820447317457 -0.6516808061205873 -0.47470457644042763 0.40608286150697165
Ni 1.62399048097114 9.246444990899437 9.70497937642632 -2.1754330104718145 0.2593219790679276 -0.5650354009162011
Ni 1.4838294162261698 8.748690104955541 6.106186402645343 1.087359636117121 1.111625450643021 0.013903497454969604
Ni 8.227438897503749 1.3801702540737442 9.474827400306097 1.0870755292177987 0.1382263626054716 1.1131542285827216
Ni 6.169950462962462 5.340071401204181 3.7378957862330315 1.0318839716473196 1.1421236192318782 1.7413618912820332
Ni 5.420610550122858 6.221706618033964 6.986187890870279 -0.41451787964820225 0.41748287581379706 -0.19336135590640247
P 0.36190943462588354 4.543665419344067 7.706548395300103 0.07428328409460755 -0.7177211334801122 -0.3752316804540699
P 7.6912822110953805 1.0023383903260232 6.902565767578749 0.337841926951702 0.8615383599098001 0.4836579289789735
P 6.908661961619979 7.6718793893501855 8.669043999819177 0.9033177578394314 -3.439128414471619 0.15081139835933383
P 8.618524155102017 7.787350960010684 2.2163465135611538 0.20781789765136466 -0.6674707219649924 -0.6139472961255555
P 3.3004713770609024 5.487024371385029 6.3499065866113185 0.23920746770623963 -0.6660985242078141 0.16822548007072316
P 5.065155261311176 4.782208152152775 13.490523132767203 -1.2954888943613174 -0.310391286939917 0.09466184775095955
P 4.6527489275946055 8.042524682886702 0.9490513030562736 -1.1770194026677987 0.8103088723108626 0.5448162456558489
P 5.145116180442744 7.626841713709849 5.086746177996793 2.268143648033674 0.3759878418938041 0.9054078075992406
Ni 3.6370378261603755 3.0508504957912437 0.7428784244249322 -0.8436473385619923 0.29754014200886175 -1.0276411372105656
Ni 7.884181503724877 1.1955038522226014 4.378180643398924 0.9808622291838138 0.3965420118960719 4.959317584061936
Ni 5.833402370364167 2.42541696590345 0.34019002243201957 1.5959696070557416 -1.5003345967582353 -0.0035941451091615517
Ni -0.0799811112828642 2.937691844279179 12.654488218338864 -0.6967818122242838 1.5763412913018529 0.04679613441793231
Ni 2.754897805548197 4.332180169271799 2.566713380246282 0.355369137202188 -0.2336166038820235 -0.23644867401417988
Ni 2.978333137887373 0.4683716345081969 4.247890787162447 0.08516393556285333 1.2184342181691596 0.2971845584416559
Ni 2.568762883602811 1.154293507077888 11.401511078752861 0.9161177378175771 -1.0872776179262758 0.76023329581071
Ni 7.016065850012725 8.111875544337359 6.408327987260568 -1.4576493991848831 1.2114937822955845 0.33315840543310365
Ni 1.601246776011541 8.113628590199863 11.932099320528868 -0.5503263768408005 -0.8026367004775854 0.35744735988745535
Ni 1.9893766369201453 8.407305074296831 2.1538949430782646 1.395047665193262 0.11993707737798054 -0.056765586925818366
Ni 8.808422159788902 6.020436760867279 11.86979643770552 -0.01423414132151097 -0.28322012584176387 -0.11346381094881104
Ni 4.471827251983784 1.062501822937069 1.8631711021957846 0.22645376758499708 -1.4854455954615449 -1.1579184201722896
Ni 1.8410377509003555 5.559275560021818 4.599144272854475 0.6287671347472074 1.0896420043933943 0.1994589841637081
Ni 3.8948089939530863 8.181309010043318 11.571643720796287 0.15237540041234401 -0.9451488349426045 0.6711463710443667
Ni 9.01025189024152 8.448818301710983 7.8111666846390815 -0.28291416456557084 0.0475900910741374 0.5639964181287254
Ni 0.39993676246632365 5.103648844281538 2.363762985396747 -0.04985343318701737 0.8362546456423469 0.6463658216655771
Ni 0.07753418967583066 0.8754848711100776 11.797202900321762 0.5715577754157511 -0.7554816400583376 -0.4661551442085197
Ni 8.602957842103034 8.310795769353254 10.269917221031744 -0.5725725898335106 -1.3277742367575842 0.3432109045730992
Ni 2.0684931569975236 1.6599233320271647 2.2834725670690323 0.14066402551268678 0.9999066474097748 -0.06755110757709655
Ni 8.534965361739552 5.9645412147801276 8.969399496869778 0.5649364134444915 0.8020072944237027 2.552983311756732
Ni 2.6695951445738175 4.7779678003806465 8.583527485606073 -0.1751286349484597 0.6732850146539243 -0.25344109480711835
Ni 1.9226599333885372 3.4918011888396756 6.3558843812199495 -0.11894668844025322 1.9580614076937441 0.2487668292599006
Ni 6.447032669994478 5.981126313594492 10.981559305227055 0.2786505041932104 -1.027225904050018 0.07706598904606728
Ni 1.5444334048654886 6.550627584392781 7.252005630954386 -0.6491683241113788 -1.1731226387165539 -0.8773742985007922
P 7.463322001215817 4.197727976393201 2.2974565496664683 -0.004330251944237703 1.2569935664995964 0.4500482113443281
P 4.824529065618759 0.9094792756417011 11.54062674075574 0.6989600508225253 0.4816807506479446 -0.46018247156485265
P 1.8118509140272625 5.773128798746054 11.87023974720897 0.18521301576765523 -0.04042185546047232 0.8943484644612856
P 0.389993963603235 7.224311177627069 5.204287444165117 0.22162523584810218 -1.3164361860369456 -0.08100029110346696
P 4.389149570677866 2.0545697508539758 3.618702434958684 0.06216130402009295 1.2058867205214523 1.470231863835584
P 1.8131083343579586 2.1469396647819035 -0.05893079355693995 0.07446557530874272 0.030055681734799854 0.30515060736626803
P 6.525414930024734 4.601947310584363 6.009465997938219 0.9349492687017833 -0.8453488946341312 -0.5014695032390977
P 7.8643289477008205 4.025929481867869 10.909597231483819 -0.5492614259113959 0.32474601299969236 -0.39705314720453555
Ni 8.348995648304768 6.237952121576535 6.766097113045744 -0.8903144036012279 -0.5813109981477731 -1.210269165859864
Ni 6.565055794318725 2.965694686826289 4.086436181050944 -0.11475501895640881 1.576435393677556 0.2555583982604373
Ni 4.4232467716160855 3.6520718006251953 7.181225715887018 0.8992168482971804 0.4793325621307422 -0.3778423786040396
Ni 7.710859419601766 3.0723643151719138 8.039815263312821 0.010935158855265038 0.5196623720980406 -1.093806163073413
Ni 0.6551499518198738 1.6383269083911938 7.638912031059474 0.27048030967759223 -0.00021648688618027234 -0.24822689759603056
Ni 4.485796549380277 6.878153456662066 9.51346141051047 1.1711721998584022 -0.1271958158229229 -1.2827364797916554
Ni 6.9468710188220815 1.5398718143227441 11.71797256993708 -0.07720971371278317 0.41034780743091265 -0.10495191682305796
Ni 1.068467685819934 3.458814556222727 3.857734368523787 -0.24783943234962477 -2.013630146097984 0.9411086034349598
Ni 8.740172688408927 3.2391331283744615 5.723686480648045 -1.259499620750902 -0.4916972543436822 1.3994928454488091
Ni 2.959756358695191 1.4877026379747376 6.51964915300471 0.40597101851945566 -0.04372495169177631 0.29157775377783973
Ni 9.00987558196737 2.8889277988997 1.8349351320837142 0.7155081849891936 -1.210247054372677 -0.26536484282789785
Ni 2.71964414503576 3.2875116872292014 11.56842031918942 -0.7018168035450301 2.682764114698012 0.7333290152206984
Ni 5.933527906039819 6.859292151701624 -0.2542852682189999 -0.8787534382365059 -2.7232294218019097 0.4106180303731638
Ni 5.4228225085148125 1.5604219173915665 5.589125066587438 -0.22683840461792545 -0.036551830982104794 1.1264825702605115
Ni 3.1241755397469486 2.5634211417599997 9.196287687080543 0.9868199894291456 -0.6759443066536422 -0.5052968474049878
Ni 3.263271927423592 6.305770215178826 0.13491753018346134 0.6800436735339965 0.503403744147333 0.5263125304247065
Ni 7.1073894433735045 4.483557056236555 13.008362094574059 0.011116935848767951 -1.2848524976933935 -1.0427828779480106
Ni 7.707683744897964 7.489544263148655 4.2099010901494225 -0.529642623239204 0.14921191508269788 0.04745150861374408
Ni 5.693727752900415 2.604383674138809 9.648478983625353 0.803761558110648 -0.9483352030903861 -0.6190717618363144
Ni 5.866398181231705 0.28762618130868484 3.6713608120630856 -0.7223601749140205 -0.9642418470183135 0.4502109621744375
Ni 0.500245863153756 0.3561115337287977 0.8438758939065413 -0.44987517610157357 -0.3706142362867166 -1.0540463666769717
Ni 7.871240170394355 0.6508692157451534 2.426497245997778 -0.9447292309066826 -0.9601334812768948 -3.1966098801142753
Ni 3.5541398668403197 7.521585535954935 3.831512106590948 -0.7124663128390761 -1.2226415713822878 -1.1156268584929303
Ni 0.5506500619134935 -0.18129706605991233 3.6857881041639713 0.058453259040886434 0.484158779874792 2.059252314812473
P 8.72201810874384 8.05315309706879 12.61387996643279 -1.5775972751961411 0.32029903297193224 -0.1181316487381256
P 1.1503743940763753 2.216997251527916 9.801283088556703 -1.1818029400993713 -0.13671481105695166 0.5438137725332635
P 0.9942890645594501 1.7203529339052923 5.310464200454111 0.689784040750212 -1.2170226825336137 -1.0421329030688375
P 2.3215925952404213 6.407703866220515 2.2004819074180277 1.0110444091941493 -1.869003793503439 1.153992345645006
P 2.450914146039756 8.16363169940886 8.164905640590616 1.2514656947028318 0.5149030030361842 -1.2937690834567332
P 4.810165103446939 1.6155556686798278 7.80860136359945 -0.19535216108418613 0.14651817030061864 0.19165979983426348
P 7.882070506089401 1.5386511069944042 13.907895817877495 -1.0102568802958471 1.2990897243386983 -1.300843216694695
P 4.5543305465285115 4.366910669500663 9.842133646278326 -1.1997880638228822 0.4826708824753558 -0.6687922689898934
