# total energy = -340866.1363097089 ev
CRYSTAL
PRIMVEC
9.29806009031540 0.00000000000000 0.00000000000000
0.00000000000000 9.29806009031540 0.00000000000000
0.00000000000000 0.00000000000000 13.60865080449604
PRIMCOORD
 96 1
Ni 0.4355490251999528 7.503887756960902 6.7068738593284465 0.28180164822768244 -0.0839449755540877 -0.9402220870649486
Ni 1.8365435157541037 7.306359770039744 1.0182714635133896 -0.4110054956195696 0.47922277602575536 -2.861746061954291
Ni 6.5954486975478455 6.092470141131915 6.060789791054821 -0.9485164658632569 1.746971267049011 -0.5821638330663716
Ni 2.2909861989009492 6.953647161497699 3.012070278853328 2.685669718380581 1.3558694523319037 3.9314974980713457
Ni 2.1794094787421328 6.990774315130545 8.588406038456586 -0.8869717123812402 -0.6947902357155519 -1.039758746409706
Ni 8.373293560438398 1.4295116406147417 3.4556853711147615 -0.9255536864194962 -0.8365796330819334 -0.056245195645974105
Ni 6.8045992594855464 5.167201593094904 8.29007685312595 0.5678610432904542 1.4214575226453583 1.1510898272862304
Ni 6.458227927872528 6.623222002807378 0.6205925069413405 2.502265987907523 -3.6478513404357567 -0.9728375591071247
Ni 7.466100441067115 6.4556430671888485 11.30296443145444 -1.2825842704845072 -1.5789517323415065 -1.0394949512253582
Ni 1.4158341943352732 2.9143374402482167 10.299693528160402 -0.6658835799835306 1.7924168009763195 1.3774451216201502
Ni 0.736737363984659 6.030201033223282 12.943786573347959 -0.5801465455260266 -1.2557681787329276 1.8379556659483829
Ni -0.1559870442000292 3.0979183371495225 8.0607987806776 1.814668156175352 1.148405595585848 1.4671869063616731
Ni 9.08858401919653 2.777841919253931 5.766148216325433 -1.8482879011123265 -0.5502854963005361 -0.7268938011183159
Ni 6.954028381958242 7.728761338380983 3.133854409294673 0.5611957154551367 0.16643470671888755 -0.09405506740489608
Ni 3.743798777908857 4.780904391785055 4.618312935557625 -0.11240425933604513 0.16318097566828027 -1.00505990947594
Ni 4.8725274751554695 7.087306774187947 4.278872377878471 -0.7280327998187655 -1.384366531330332 -0.549141355393764
Ni 8.513099190797396 7.986643032848047 12.491720474340493 0.43615525541231986 0.5788363113550353 0.7288159578416932
Ni 0.5935007494807785 0.6525136767727765 13.252294344975082 0.5987135098949367 -3.3056238828218487 0.9002332053768368
Ni 8.577720707889377 6.085143269841486 4.867937022926936 -0.219203513780487 -2.547047920108904 0.2560474220817138
Ni -0.13169214319144826 8.669566944700108 8.94251614541862 0.34620906796947476 -2.2204044329761823 0.7000034044853751
Ni 5.435989911957492 4.083438314072294 6.154131155915682 0.13838577100147134 -0.3320083509890605 -1.3104650560551752
Ni 8.784379389743531 1.9832204124628812 1.136965848612337 -1.3226235457945803 -0.03940549838081601 0.9017712392879179
Ni 1.3902087409387986 0.022639846326225156 1.9401443600335673 -0.19184774747535346 1.5147345742336493 1.1141086220761909
Ni 1.236623385640188 5.056982389698019 2.6175963635678405 0.16929274499297298 0.5651498150068783 -0.23619182080836745
P 2.2184055424376394 2.319456858661474 12.996656272389211 1.7950665798943408 -0.18301806499886544 0.15926441422269344
P 8.261093870258696 5.851269166328593 2.365061053608386 0.02545649239989164 -0.017246188674957395 -0.39887477379430664
P 6.47554091561717 2.6564929380212052 0.2282617944889038 -0.07347930013607346 -0.4063579695452292 -0.24936229675205443
P 3.5576795106239385 8.458194146419244 9.054706537538308 1.848350893139778 1.608026795330592 0.11404025227757134
P 5.873156799599748 2.559123653562611 10.25259420516336 -0.6742221817562131 -0.21082120325406273 0.2642232730242869
P 3.6522593770785616 4.948232279783226 7.344275399161712 1.024099185495578 -0.5484985796034424 -0.062375219803111934
P 4.238734512413339 5.383892881703338 12.379653746418981 0.2720625665630476 0.22275986367317763 -0.4203892508273147
P 6.876947464448526 3.1828654134304344 4.255805750597639 1.6374885522351348 0.32477429513446654 -0.3384389371057526
Ni 8.891260589595664 3.8310052827729852 3.5244231393746017 -2.5265541710309263 0.20439550223337702 -0.3689756722420291
Ni 0.2077986240117769 7.763712745970732 3.857779976387096 0.36256308384746594 1.4390731788445925 -1.487129668032187
Ni 6.95037424437304 0.7018454639789944 5.150697536571411 -1.2469266691818979 1.3203722878665582 0.009893347854311993
Ni 6.343898981949795 4.036473812945446 11.989806545796078 -0.10023908472842091 -0.2047516000212151 1.323085315922347
Ni 1.079300210216257 3.8477324927367946 0.7412766768831202 -0.2030094205191278 -0.4282318868001851 -0.3221466277036323
Ni 1.4557414679120768 4.495546929978882 6.7379563441466885 0.38050167060375756 1.343035533792029 1.5027174951681153
Ni 1.0306248660469732 0.4681973033244238 4.897467661528969 0.5692306699444712 0.6348755616377905 0.16767037889820155
Ni 6.660228281660052 -0.15250399091907152 8.3257321238587 -1.1032099728858162 0.9899634201541337 -0.4382399058554904
Ni 3.6519804352781646 7.953244401280507 13.018348646400087 0.26562966645351027 -0.35248307390364453 -0.4179937540119446
Ni 5.118470460565541 8.567464947694779 5.9693257045106325 -0.09582218660764788 1.0496551795878115 1.0945304428339473
Ni 0.6530576132835507 6.632454976400519 10.824116200384855 -1.3146780656952584 0.4527154737638462 -1.5116358807036678
Ni 4.254401743535641 1.5468624560417767 -0.29820459132645916 0.9834276759181451 -0.5503973392880521 0.245590488414448
Ni 7.525161718271183 8.890637619574777 10.697542639230692 -0.8785570059549838 0.12993326935874397 -0.9748162801000502
Ni 3.2320242567204067 2.3883089930594767 5.931411935000667 0.290010666401036 0.25443122663452955 1.0131498855729262
Ni 2.8787351684575406 6.527080062270531 10.856355363868746 1.8442412418467788 -1.346013128363114 0.5818622426655528
Ni 4.846985704299114 4.748937661459554 10.371914349701202 -0.8500576129637101 0.36948217956480234 -0.45962685617169874
Ni 1.5312417152195423 0.9734139027855402 8.889007669654456 0.20649377952330245 0.5147050280927652 -0.5065284058192437
Ni 8.548403924667648 0.33629595378267774 6.880574637659688 0.9697884878681556 0.531322324934472 -1.313115863414461
Ni 4.532915833172073 6.484085832769333 1.837984715056155 -0.49860220899363167 1.881050440255328 0.8231031958620534
Ni 2.099901767568963 8.70992982321756 10.61827202858786 -0.6187048654151991 1.187173203272349 0.20401420763455833
Ni 5.412372839523876 3.5827656765396454 8.354541233003706 -2.9427401824101707 -1.6277880371179192 1.5709892829613201
Ni 5.046503476063104 4.3406598462784185 0.5119679208367262 1.4031556390123772 -0.8654315243166192 0.3600128066217865
Ni 3.151828489106257 6.707239273086966 6.089939209196312 -0.2564793674128099 0.6246981068841564 0.18204747355548004
Ni 9.192666502984679 6.054413181497744 8.669540910132072 -1.0218672108412659 -0.8268266674602277 -0.9527266472898624
P 8.186337467752288 4.817771199737531 6.809033504305858 1.6014177746545064 -0.8934899731157322 -0.6824751657936247
P 7.760644386166364 8.097215562525435 5.268779179515487 0.1587221685659783 -0.8053001062423615 0.6008192433840298
P 3.731469550331308 4.491325610732874 2.321635394122575 0.45288696634470393 -1.1353721594406576 2.5718127857584094
P 9.140922799011028 4.45018169517431 11.64896384066693 -0.15308579621580734 1.4861696181117632 0.6397706849465628
P 1.502380536938462 5.934868023907587 4.87302678097818 -0.008891903172991137 -0.4746518688256213 -0.409372845112153
P 1.3575725502923448 8.115653615531677 12.572406249717341 1.141977323462001 -1.0122641405338633 0.06349724922269709
P 7.026618336481565 7.196382316203204 8.907365759344588 0.8833330871873883 -0.5057534753264322 1.2145842482954503
P 3.064436023041864 8.77503483943023 4.7633003747619975 0.4499543660789412 -1.3879375365110418 0.539195814145278
Ni 2.876838364214841 2.9703024634678763 8.675092781765974 0.37535586473676 2.2461817990506026 -1.772788999443063
Ni 6.187570698947279 5.3384160701786065 3.1047319555272206 0.8201040040244133 -1.1545932124537988 0.5888376455421214
Ni 8.708125999574992 7.736097507731425 1.1191768001950164 -0.04436361371703973 -0.07854334492254215 1.5699302455691866
Ni 5.680184862085075 8.534679988088113 0.7444064038835749 -3.9363874791737956 2.057605009017037 1.130390904175982
Ni 3.2686772092925778 1.2736017703128224 3.609830469626169 -3.4917200725254056 0.2369143007966888 -0.5789553534314029
Ni 7.061197821670784 2.468783702474023 7.312894446617045 -0.09286644641343363 -1.1077381997734728 -0.924049333959828
Ni 6.982991838899467 0.5680491698065512 13.030065131822765 0.7467964535795139 1.337451354836032 -0.7862744570694782
Ni 5.11067868627445 7.2668895052835625 10.2037933371839 0.9512909432846004 -0.49800648439116163 0.3912272845513778
Ni 1.6060910983260817 3.568883672939886 4.710267029864511 0.9125840136327057 -0.4445319095117892 -2.2738448121835098
Ni 2.4051291836234188 4.345122915084771 12.058040359203202 -0.7656536954953329 -0.759965386861304 -0.6890839293593939
Ni 4.959780470319664 2.441028993334518 4.310948825312129 0.7865367095919292 1.1657692836752762 0.25706917847800886
Ni 0.0911284265777106 1.2472975585353812 10.80698359500447 -1.5409500562867526 -2.3502556841440816 -0.8923010950139535
Ni 5.049506749447379 0.015034033235399178 3.588846607788301 1.1800563897219096 -1.3212027541876536 -0.5124859089542593
Ni 7.797752943679185 3.7676204076627644 10.190797438703402 0.05109527601391845 -0.561314243310872 -1.255783091131263
Ni 4.979306396347457 6.977003888250945 7.818387198460554 -0.47031467490284806 -0.38206567265676783 0.14965028817169712
Ni 9.505127809729432 2.5511738122512955 12.597445925332982 -1.9427805702752734 3.9837160890564296 -1.5186413654872233
Ni 2.94700152507471 5.308448422755951 0.6393969035121063 -1.8024453888569152 0.4599258754693563 -2.0323603755176354
Ni 4.377535952290907 1.2830857915263219 8.537441511912045 0.7659167193487325 -1.3225404991624707 -0.14513003170384037
Ni 5.405250525553739 1.7604667887258174 2.0793065646396482 0.3350116565917586 0.41579854613283873 -1.589399667147708
Ni 2.9129799234862843 2.398797204754406 1.6195928112712998 -0.2679063783028289 0.6577686641858801 -0.3297905174021352
Ni 3.8553197097075937 2.275402650318768 11.000457627759857 -0.8573718872369364 0.5936144981054745 -0.06739966960089683
Ni 5.1577733602414835 0.20849876793077346 10.902067416311812 -0.23916787271755582 1.0942311664259734 0.2606327274595512
Ni 7.851216788755283 4.359414033325113 0.3214822845695922 0.7198536064420828 0.42006632027025714 0.32212708731960654
Ni 2.7070278941931356 9.2679250007318 7.032080016933338 0.5577774338022071 -0.9345522903736808 -0.9740711744039096
P 7.211500961784723 0.17324331377859148 1.679715926928878 2.387821558212998 1.4204396229038054 1.5800287674557691
P 3.5888094155482477 8.771436490205108 1.5699486092486372 -0.361845488955151 -0.09571162917171258 0.362605249939311
P 1.4136584482921766 1.7267148308777756 6.790825113381941 -0.8955813084271221 0.3396031326171829 0.6295364088130643
P 5.247248591748841 1.6988299488980847 6.353076167182857 0.14257744048531573 -1.0317124790664618 1.4727615722359733
P 1.732321561065756 4.931095955178836 9.30343150250434 -0.10593202134814014 -0.23500628514069852 0.6399925711493817
P 8.282860628749678 1.316261269653543 8.824869651683164 -0.21174860016433855 -0.11314499415681159 1.458882757371352
P 5.829883628298154 7.8318582278077296 12.316590584185217 1.0223279525277684 0.46524291680689556 -1.0268510372091024
P 0.9809546294562735 2.157103432770383 2.9187149669024475 1.2940411061711972 0.2549261639930771 -0.32799151652018355
