# total energy = -340849.91886425467 ev
CRYSTAL
PRIMVEC
9.44443152549907 0.00000000000000 0.00000000000000
0.00000000000000 9.44443152549907 0.00000000000000
0.00000000000000 0.00000000000000 13.82288019532945
PRIMCOORD
 96 1
Ni 1.6064411294211665 4.558449301717992 5.585577503689174 -0.8505733762578641 -1.2328205687978189 -0.2517012292978762
Ni 0.6115156054926407 8.357188534587944 7.588636588981382 1.3471158745089895 -1.3712716458195868 0.42225278639861474
Ni 4.2075508942344015 3.1118268419269426 0.04492810502880426 1.8672150770341327 0.3961406626925952 1.3855433252472524
Ni 2.5153071047500264 7.641480072039792 5.827117894536784 -0.2825228426644231 0.40233984952477164 -1.6658290510510407
Ni 9.164215205187958 7.709291090119466 12.099153512014421 1.4397879455234301 -0.058869006422066356 0.24654796723171085
Ni 2.266096891091483 6.053635028217355 11.476584143908905 -0.5543961760348001 -0.6593732896688387 0.1029330866208163
Ni 8.343682997560935 5.407229803923889 10.200414783602804 -0.26703760254463044 -0.8380176510800407 0.03533647051776495
Ni 8.523741083868591 8.62531594451579 4.892802009678774 -2.41577176356902 -0.9235402555338934 0.07511015087127709
Ni 8.840620649134497 2.934063752470729 11.20738384656409 -0.8901922762010669 0.6883755904384596 -0.12213485636024772
Ni 1.8572380075695967 3.041947493351524 0.4821599496251968 0.6947336714460036 -1.936769588194503 0.7925119533387577
Ni 1.4504096768175057 1.4825679660321698 10.628675362729298 0.9873792043667253 0.6016893046938089 0.9054245197697891
Ni 8.953944382552045 0.43991122980937347 6.634940730711187 -0.8995166389257861 3.8796892551508018 -0.516162329364582
Ni 3.648364994727255 5.678794986913155 6.122830599953085 -1.2466387056278336 -0.8374952029176673 0.24731004220871602
Ni 7.156187404490219 2.0944160155131675 3.490885710776573 -0.6974189315876506 0.7041300250592389 0.493456403126634
Ni 8.820390676888444 3.3373409769835503 4.7030832144026355 0.6755319017065721 -0.8911482123564329 -0.7580064633627204
Ni 3.141709023153138 2.2527896871257087 7.802241295932353 -0.6497527358599391 -0.42025966722798586 1.9870868483918165
Ni 7.473973635178917 0.5320416589691527 1.725082077766133 -0.009879463897241049 -1.1923912571381787 -1.4087873833768576
Ni 7.167388500234299 5.822567567446145 4.362252570884634 0.6688485761491255 -0.06916010393542928 -0.5131577382103033
Ni 0.1447585791802767 5.417307012320966 12.26798594705613 -0.8437360416210566 -1.60755936877587 0.8760039005158268
Ni 5.614676741545063 1.2645810428710356 8.209505014976015 -0.6230492584268237 2.2521459870538374 -0.8289941074251916
Ni 4.278828018669958 0.6446948377510949 10.203566390390158 -2.865321952231007 1.4268594103872199 -0.410410542348048
Ni 4.991448152121723 3.5503317958878386 2.6558865229971205 1.3662711072812017 -0.9086651381942739 -0.05784467892261006
Ni 6.763601276421157 4.836578364591016 0.7963129075206846 1.8338480715379126 -1.4809790750497591 2.969334387958931
Ni 4.500243270461025 0.21388331767985025 4.891612955754507 0.03548379472890663 -2.253619743385886 0.14718125780591426
P 4.842263912346443 5.154940705600446 1.1821122671228868 -1.56567429850631 -0.3162341188739392 0.6273453146990163
P 7.8688736489623965 4.196179798723548 2.7878535641708355 -2.935573232348086 -0.22119277629637388 0.6952854301844154
P 1.801544195088283 0.4739735164119014 8.803944143896251 -0.0752117094461479 1.0764118788563657 -1.8809496530114056
P 8.130342734691611 8.903775562490873 8.296064174001364 -1.6739470521724849 -0.05450584435736419 1.8324727884569407
P 1.3482870391440365 6.1704626457167375 1.4702703717924006 1.4818025993923192 -1.4552492743838228 1.0140032347121568
P 4.750331816247899 6.43332950730609 8.391096876957228 1.9424077603168868 -0.697923896248527 -3.978872130700567
P 2.7326140288440666 8.318296365722752 3.5293132136125864 1.6008621592613528 -0.08777591926440367 0.5266339183198672
P 9.086789755854092 1.0420985703218897 3.0149911970001306 -1.6505307301310734 0.5026982334398762 -0.9623371737964329
Ni 3.548055687899371 0.23806295117394216 0.7641593405217642 -5.153302432484951 1.158645013925669 1.4667829860550352
Ni 0.5659330013617583 3.403338664217639 7.784106098590209 1.5771948975513999 0.5613193855171946 -0.006434699881750208
Ni 5.418525343982843 9.382022684150831 0.24388355429963893 3.9173551451326927 -0.05126136927813752 -1.9377856881638433
Ni 7.927164680102751 6.7297241006757815 7.555572578787074 0.9437532401466586 1.912483719063945 0.05862269473921517
Ni 7.065124196088518 4.245687508580602 12.652870141247202 1.319381641818515 0.44191401227296795 -3.3334594169768783
Ni 0.5994333442907847 7.917021360685262 3.527059772259688 0.7351755815111338 -2.9617884572908735 -1.9898456420838766
Ni 0.4351909029519611 7.009647605531415 9.60120621678142 0.4388963084925667 0.6448550414480057 0.5222460736648167
Ni 3.6181239251045376 8.107874432183038 11.904471667991643 3.3960752920358868 0.49049912027052306 2.6738135903729434
Ni 2.773243973102946 4.25227972175882 2.30131612055122 -0.7936792341739816 -0.3901160537650701 -0.2879643253949686
Ni 1.5526645365317988 6.0766699966151725 7.516633187764443 -0.6344950383699202 -2.0689656854454945 0.9745694541965668
Ni 0.1007021951777613 5.351432102696213 3.214164812638325 0.40966775064475247 1.6864084178642893 0.562387678880709
Ni 4.72346240866619 3.0645480179009192 9.854054425448918 -1.041570088586832 -0.7728558696707271 -0.25910189263732153
Ni 5.750912665751092 5.6102945253349 6.550068347149489 2.9132113197131186 2.8213074943232703 -1.9623713479230076
Ni 9.10766194944129 1.5678039602061327 9.156041049735595 0.3707674740351292 -1.1882160427145665 -0.9652751733788344
Ni 9.16219409684965 7.476646409289856 1.0305187528751645 -0.2454503632921579 -1.6545807318307313 -0.9509014211556654
Ni 1.021623042857164 0.4329601282346326 4.3509730863592075 2.66321370336991 1.9030259160851548 2.412512376091458
Ni 7.851977561031402 2.695903523652466 7.541237820675468 -1.625948155695703 -0.10016915072243394 -0.7682219704431414
Ni 7.014719265240158 1.392194201129051 10.264842806323685 0.07160239482833475 -0.33437993654503056 0.56578127794329
Ni 8.441158974942594 4.744004047151328 6.387939569577551 0.011397186093348112 0.8483722548414874 0.15412400767233456
Ni 7.4659364239831225 7.761773795895057 10.516543516565461 1.5906127136192025 -1.5139473024456636 0.27739374896797386
Ni 5.3404576733078315 6.163492655279022 12.784657738222657 0.47728544979372634 -0.327658558660797 -0.6587307709888333
Ni 0.13574670265498084 3.3809931393184036 1.8655774405729886 -0.47955187723039994 -0.04133562552399333 0.804716980045382
Ni 2.3384412362851177 8.702193616823386 10.353696962200479 -1.9632187835249675 -1.0180617210522467 -0.09209948634042203
Ni 7.292007773710801 8.976412685060618 12.77299103200625 -0.12992941270400205 -0.8254395573047139 0.2431656810230393
P 6.3805445797229 8.474875595352682 5.373893794102744 -0.527337372144795 -2.522945627744061 -1.3866725537556892
P 7.221155648692179 3.300724916106824 9.632336007407106 0.38765653648098397 1.3509324200416024 0.3521827690544064
P 9.091559193755238 3.3162232281776793 13.60996599485287 1.4471770388986496 2.140844730973984 -1.4551078637099522
P 5.567407361950527 0.2420352790575509 11.772421515820842 -0.20060338218079649 0.08094681215771221 1.072873269575488
P 3.7561354024302016 4.193950912892517 11.815120735018613 0.6713741707844567 -0.512391292357924 -0.24700048138809721
P 1.8250324961974955 2.142922615632555 5.729403917481641 -0.014510020690716947 0.3737988046622852 0.9698764195962716
P 5.437329207074295 1.2170472191948525 2.1234019201912075 -0.7246523133823068 0.824618089844683 0.3456961328887982
P 1.378905886026251 5.084523024430245 9.534995085395716 -2.0993247573533265 0.12094520692752073 1.4928097491361
Ni 2.308171833367938 6.027974507866036 3.705996804549788 0.8543546976771673 1.7627413853990737 0.5412185010022614
Ni 3.57254509874625 1.9025901675721861 3.9380417639799465 -2.2579343116008403 -0.07371455607533112 -4.6361139758486996
Ni 3.90954130308036 6.717956339042457 10.06948474100641 -0.07537420316594116 0.22666176983074512 2.7075742317631564
Ni 6.612792594430038 1.0053597318358272 5.901347348255308 0.28090896121008396 1.704722642792445 0.4923222895221908
Ni 6.852728376367936 4.913654369959848 8.345978938855527 0.7348935314943408 -0.056234139902380575 0.5496206090230277
Ni 2.9185748848313606 4.455429443053219 8.398643922158826 1.50680220676045 0.19538198588085703 -0.1831515052529362
Ni 5.762085428200709 5.010204793055739 10.383913476301329 -0.1255189423411322 0.9346759604357388 1.2829691646277517
Ni 9.311151670269235 -0.0026822185424271953 13.961800345496863 -1.126197692030241 0.8226239422327897 -0.28466508581840655
Ni 6.013958971538705 9.010544860456152 9.636178946579337 0.1506072527683277 -2.6976106927925416 -2.276660941476066
Ni 1.4975090566452678 3.2998654728414687 12.170686580543288 0.5982275713974536 1.0395633425694484 -1.2663390122702383
Ni 2.72630514861047 7.702840543413558 8.293050455913729 2.4716397783812334 1.0417001864067932 0.29638931623387016
Ni 4.0048545056514 2.696838522369721 5.779857959373736 1.4549235156132878 1.8618499560674773 1.4220393632907573
Ni 8.875631156658361 0.6152508781459153 11.431992260641053 0.7644897570942188 -0.883562172479059 0.9477464204664517
Ni 4.998408698127952 3.879885788209862 7.513081137082024 -0.3515124824602591 -2.3362984506330413 1.0325262332170089
Ni 4.948995432585773 6.76326127688761 4.283254623708111 -0.4212420857459132 0.5208332524776901 0.46141711530290214
Ni 5.190602878896943 8.759030205514678 7.105305529851745 -0.3950718551084486 -1.6464282779269255 0.6631409842413869
Ni 3.468410797165961 1.7675064640076223 12.280398763360047 -1.383444533736695 -1.411947269162078 -0.7466313887565592
Ni 5.765277646043457 2.501886567606403 11.934398238045832 -0.9477137674563034 -0.13561849266897935 0.012023763933753486
Ni 7.545269648477448 2.105994888516744 13.395863566362511 -0.9443607918236704 -2.9446142595044322 0.22928943726157927
Ni 6.462748911389402 7.050900882268464 1.1108020871771245 1.6332508600047035 0.6798834938070485 -1.1968894021188483
Ni 4.1274715596525695 7.092541380696497 0.898481822908442 -1.602286550412705 1.7999228795453777 0.27203351309732504
Ni 2.9145043348602826 0.20202488950424607 6.898418647017776 -0.4233416485874193 0.4781192585489314 -0.7785991999124076
Ni 5.4492291907484445 8.46598838532302 2.442792759789618 -0.9273352037999513 1.1420997079724782 2.167413225491132
Ni 3.131688481344986 5.160947364026445 13.759737678266669 -2.2849213817126452 0.6884642934975239 -0.8497907324555688
P 1.4550468926778288 1.016787493935605 13.360117337625777 3.100444965455228 1.7724583555765216 -1.394585895065495
P 6.43065673319515 3.212731147938534 5.737366517668686 0.7469368358121201 0.5304399223295186 0.27382145823568327
P 1.8641607758498755 7.754397694903382 12.916624779396372 -0.9903529422830687 -0.36317063552447776 0.537252574375978
P 0.5172318459537298 6.714121899858564 5.940078961785216 -2.464129328936801 0.25665368820714507 -2.6319804563872413
P 7.662890598221773 6.344070185318486 13.079928444245349 -0.17873923511785347 0.9057353661419886 -0.3905734530174628
P 3.7999764533948044 4.434330583110323 4.2754440788680155 -0.2285574441915612 0.6005806450106624 0.40782169857494927
P 1.6552027291907145 2.101886560819717 2.730847920155919 1.3985163404681527 0.27059883753332753 -0.8205781154473545
P 7.966491292816367 7.326971059077229 2.705095788819172 -1.220730213292188 -0.178974233946795 2.4847696308949723
