# total energy = -381166.89835553383 ev
CRYSTAL
PRIMVEC
9.21170420761580 0.00000000000000 0.00000000000000

0.00000000000000 9.21170420761580 0.00000000000000

0.00000000000000 0.00000000000000 13.48226024117622

PRIMCOORD
 96 1
Ni 0.9823545501018003 6.149604702502395 12.87981850944433 -1.096517391356989 0.2965865198463408 0.44254341832685073
Ni 1.749717137892073 5.169838641256567 8.982380582208942 0.004017862910141467 0.6393359114019893 -2.580001492216789
Ni 2.801002869877294 0.30792608160422674 9.627156575164255 0.08079151752677052 0.5998501946025411 -1.313283499340577
Ni 6.83478967789363 7.8592785626118635 0.5119137421814318 1.6442736934777682 0.7661910560560418 -0.4392634620239983
Ni 1.4549702413634322 0.4615736215404431 2.042077281884833 0.8649535562389361 0.38161033028690405 -0.9044184471027779
Ni 8.075993113592668 8.048486965108918 11.725373666600113 0.4838559039223925 -0.6526089743618115 -0.4118308197343424
Ni 3.2583824025347328 8.921793361911783 7.133504055384076 -1.7770012377521978 -0.2757441291796929 -1.1714840746718664
Ni 0.9247813993906708 0.010947189168816972 7.587829908127797 -0.643636338549556 1.6430017687438803 0.4644314766491937
Ni 6.551216578455006 5.809738879224456 1.1425147648464595 -0.538504187394892 -1.8304084497287443 -0.12997877788469875
Ni 5.5711188958610816 7.551662915436271 6.380749387977437 -0.40084115349205807 -0.03042566347970889 0.3362321592624209
Ni 7.281271764584466 1.008322343998548 0.6678273613296383 0.9717039597233135 0.6750207663981085 -0.693237289406135
Ni 1.811288168188583 1.0550072604471885 5.37911197765426 -0.822526754533293 -0.46624821814295836 -0.29927795063557494
Ni 4.150130630973386 5.822220738298629 9.976265422349961 0.021039080058486346 -1.7596858864022018 1.1293215823712033
Ni 8.446156231700831 5.836544938195558 8.86366935129465 0.19156029814192171 -1.1721823862904717 -1.1043196610102273
Ni 7.413717646332405 3.454987803435154 13.051906038675513 -1.2231359945202032 -0.3460206061077525 -0.0944582163805857
Ni 1.7857441126810691 6.9824993533581035 1.8176239782780412 -1.932714187178207 -0.7366025437656475 -1.4356394705726951
Ni 0.22982925412759403 3.363626122034677 9.9268262063713 -0.9870321054399516 1.3920916678887314 0.40186856631530793
Ni 3.4471394315302133 5.91729473645696 12.490990636460824 -1.9969370017130192 -2.2134393145122586 -2.4086487793709934
Ni 6.228687182319202 0.6682501785484608 5.266494289011233 1.1010854703436457 -1.9536023434811258 1.003372237360872
Ni 3.9674256915806603 1.2203665609936656 11.499788244557738 0.023329161644243694 1.7338596693677173 -0.5410107558668296
Ni 0.41395371712425383 3.6312537616523475 12.7522631214104 0.6757051940596427 -0.06848184692148206 -1.1379592034415433
Ni 1.4850372435908124 3.3662790928194464 6.416504617495076 -0.8512794011859534 -0.5418566488068925 1.0047827445551536
Ni 1.949104473434856 7.217646524270583 10.483953755854401 0.2879962070741685 -0.7666721094575184 -0.8095051454626445
Ni 4.309290454651289 8.451591137127961 4.622891867160016 -0.11527155358151116 -0.008151168352224672 -0.21172803133904824
P 5.85406559941997 7.419170975167763 12.073916915153232 0.429131515796319 1.4521472384197314 -0.5636264363838164
Ni 6.124484385384115 5.118796588762108 6.201947447617719 -0.1612171670736901 0.9247723281687815 -0.21400654296057983
P 3.853228195682121 1.08880500284065 1.0833654915614623 -1.0998999346759766 0.1640240403948659 0.5066232795258953
Ni 7.455990156510545 0.96615116256566 7.840675526154083 0.15128936643701688 0.43058573174434234 0.1573124327026452
P 7.847782355877865 3.978221808802011 1.590434798549457 -0.5033582356213783 0.7504121959552302 0.34060020642312955
P 3.7787699913304316 3.8145206149960145 11.214908004305366 0.3723780130553587 -0.40429491636861337 -1.0062780981537571
P 9.234917608147416 6.25046365084418 10.758074725701876 -0.38963937123896764 0.01705566993070611 1.431076019571729
Ni 6.043034497610066 2.744691722629753 6.281964915402076 -0.4408261785254279 -0.12155687236959065 0.9905159502234943
Ni 0.5766453081593801 4.399205898505903 4.379429290944026 0.3475375569729111 0.5960760722720895 -0.16224869366199798
Ni 3.501912224190753 6.095578057875072 5.174585432386398 -0.2742361771755986 2.1982386955124205 0.40539432008037923
Ni 7.453678018777986 3.6706430084428736 4.71554226596601 0.8485494038493 -1.7426862665204117 0.654799297144911
Ni 5.7604102036951605 5.377903402074532 12.313846802841589 0.12296120891628501 -2.5670457033870693 0.22828362170488428
Ni 1.3294239259967153 8.008784520378525 5.849305911904379 1.0193804398636703 -1.2900324992324363 -0.7868521839498192
Ni 4.707190013846046 4.61634418787594 4.256228275444678 2.2568757884293387 -2.0696426569078614 -0.0003165027991542936
Ni 8.56666374491731 0.9406071070581462 10.155876150330869 -0.3231434443992628 1.1150190497056023 0.20867947432071157
Ni 6.3543900966558535 8.193497611268054 8.860770428010044 1.5318583783981294 0.23730819380099777 -0.4806232559177078
Ni 5.211014958645166 0.4887536756985644 7.450620654182622 1.0978762193777285 0.28563901969590166 -1.896337448321386
Ni 2.1910590936874197 2.5535857090852585 10.023373156017424 2.2419204526710876 -0.7938967495014263 0.08601059983386476
Ni 5.755058203605054 2.8948517113884917 10.993987389226211 0.5015479218855169 0.9703926971110578 0.3571275146541914
Ni 5.265391648028815 1.152430243154533 9.438795649445668 0.1704003762348549 -0.040451680257143234 1.5175571312841092
Ni 1.9955775206888795 8.243213178370128 3.6462237020076524 1.560965323066415 1.712275001218406 2.358316349665029
Ni 0.26962013121748113 2.079643532431242 8.027000665263525 0.9193629842277522 1.44632960329669 0.9928296859583352
Ni 8.978961197641906 6.336160134214681 5.46986108073117 -3.6460783076957335 -1.1474630291669208 1.138938279525361
Ni 3.7741180807529724 6.03268975389029 7.633466532648289 0.06784935554380574 -1.1194984256331946 -1.107006463813771
Ni 1.3722675618299092 0.0750339358588006 11.327444629952193 -0.7068327687023827 1.1482060779805323 1.4349686697579158
Ni 0.761150214535939 4.329989153794954 1.8087531072164706 1.4823451021593503 0.7908029410674511 0.6563730693899341
Ni 1.7904512934832113 4.7235500003521205 11.099324146937704 0.3638884875271088 -0.17777764253553255 1.7687667656575472
Ni 4.3408589646492155 3.2821209640359457 8.90097491061464 -1.038913367690275 0.2493142171229384 -0.21711166424846481
Ni 6.328118316523351 4.50046095012458 8.570483838613296 -1.1783183239848805 0.7996210535797131 0.5729795954639422
Ni 0.29822155132035877 8.861254042476016 0.07497405978206104 0.2075435609440555 -0.2283980357955615 0.18370429243261266
Ni 3.743056214481304 8.072078139344312 2.226743393083383 0.18244445188358258 -0.16273514638011327 0.3816391266423105
Ni 1.6817900317570542 5.668974828661774 6.371918127243555 0.3534390100590106 -0.4064451299423968 1.5485358390538104
P 7.281769196606611 6.745390089469389 7.337342486354638 -0.06849907331266267 -0.4498353240025737 -0.16341031807026696
Ni 8.082017568083081 3.9823762873573263 7.168747114152989 1.137806479913763 -0.6031985422494837 -0.6348537072609195
P 0.7251996968910872 6.705125730788053 3.7825292877792656 -0.5532520351280278 -1.573875860480496 -1.9148488768620118
Ni 5.51941360067043 0.1563474904119655 2.0718725388408568 1.6189542408763733 0.6330084265220646 1.1388480338044
P 2.6845577181749922 1.9592373479600147 7.828851382753635 -0.006803138964762477 0.050278693649894055 -0.038674276641746295
P 7.873501433763541 1.3646955410483814 3.077434135116505 -0.23113831754486 -0.077099413387164 -0.40865782132299944
P 2.3055237290052584 4.241096209096971 0.21307408551503837 -0.49663377241335116 0.27302441625568463 -0.3322677752980342
Ni 5.7047622991438125 3.6850040551562575 2.2890043800180155 1.2858732256484242 0.2839999414305818 -1.0319341081589648
Ni 5.2524123569324965 9.237404768258138 -0.39506419666853515 -1.9805999551158922 0.5139894900829793 2.518412258650082
Ni 5.359618169408677 2.3629771275629086 13.594027722157266 -0.8532696921431047 0.4963640636917323 -0.31071318905571005
Ni 3.780713660898439 3.8520675209637845 6.360471663711771 1.2906351658134416 0.6921882793163304 2.459835329547138
Ni 9.11850930326157 8.09894868024421 9.300076597196245 -0.42590760954238266 -0.845826605601498 0.5202141308364525
Ni 0.7340899125312969 2.2223144057454776 3.5339836932332918 -0.2990365240487301 -0.23827492858964128 0.035230541067519966
Ni 2.3227035571774595 2.003674608604893 12.944897356667369 -0.2997381781014451 0.06006251250953527 0.87936150413415
Ni 3.6135765014580024 1.3152471133656067 3.500979078564027 -0.7320234090353973 -1.0616249503551782 -1.9000354659982632
Ni 6.509699428014196 6.467684845551242 10.361709836412475 -0.10162979442836047 0.459689333978518 -1.0747062090191684
Ni -0.27647824493019085 -0.14002342955193475 4.2199203436802115 1.1666501436183327 0.8313903755715101 0.19250235034021687
Ni 8.231606431186766 8.407503921239407 6.238416584204177 -1.509249382749362 0.5449067484871261 1.4294713940887704
Ni 4.394415812366736 4.574698073577538 0.7365586492337901 -0.614766192482425 0.5561257571313971 -0.6026326424436846
Ni 7.637433092439683 4.559388221340435 10.797483317071041 0.26302231073765026 -0.25672696464724176 1.3659204088100025
Ni 6.898378071391058 7.715695730590364 4.11641671508736 -0.5624252169868637 0.2951341036705304 0.28806459841825877
Ni 8.680382232201932 6.179607222800978 1.9219907435463537 0.31514679934703144 1.052487249719968 0.29784481773347415
Ni 6.472567048731546 0.5914715459305101 11.477191934366633 1.569003362879543 0.9543592977972789 -1.7390430133408694
Ni 3.691350919290653 8.215080634006641 11.648308549984224 0.22180649862097285 -1.1497345988099168 -0.3945152112740302
Ni 5.874819568788317 2.094759938881956 3.6863867319437365 0.17018466067962304 -0.399655360714073 0.3454400510139341
Ni 2.848019407674031 5.225449698991461 2.8703863464327015 -0.3422781083461847 -0.16958662208430794 0.43077445071638065
Ni 3.9154256218583683 1.4722237631685433 5.681828840582143 2.2812922696004905 0.9894425146536573 1.4104565435491645
Ni 2.7867063050927063 3.2935158420246924 4.548361811516239 -0.8082180512201048 -0.1795218789201489 -2.6109706869047935
Ni 8.909412831582863 1.8442844923241455 5.862126761689938 -1.7350796578177474 -0.05567158253069122 -0.8882665199332638
Ni 8.210557687286776 8.515317706187096 2.1678391511278123 0.42079805622995914 0.2815720487153796 -0.31429319309748455
Ni 0.189921388395462 2.2611417385850627 1.1913450871831994 -1.1189677499407051 -1.5548468688735029 -0.4443223646041445
Ni 7.085062466960937 5.412180153081909 3.5578337163542813 -0.6797469682291841 1.2989123182205695 -0.6976104787731664
P 4.917916957152893 5.881387513821442 2.586720208782528 0.03205728554586092 1.3015883223908358 -0.46596693945711365
Ni 4.085777666034514 7.797514086528964 8.945978691062514 0.7802333930817209 0.7895952939125951 0.9539422648645185
P 7.4821974547142505 2.8870954565246882 9.381819417161111 -0.9785914308717663 -1.4504762784752117 -0.8950562891615875
Ni 2.9574544525457456 2.9825563462557976 1.8743579427444055 -0.3822045122274772 -0.8923291200384116 0.23126378737913073
P 2.4338335556061095 7.659863591956739 13.4177074148858 -0.2657332819109101 1.5310101714652213 -0.7730538446141461
P 1.8460347161057638 7.427756283401807 8.178056031662123 0.9511976122398457 -1.7483164682229955 0.006622647522840207
P 9.001032440698525 1.4838212986477934 12.275732455900407 0.056362437950128734 -0.2623448250546514 0.8134954975689602
Ni 4.595148056710132 7.0473129035026645 0.3666903056572679 1.052773156391503 0.7581041652828493 1.7350009820610117
