# total energy = -340894.0619091341 ev
CRYSTAL
PRIMVEC
9.05430534495006 0.00000000000000 0.00000000000000
0.00000000000000 9.05430534495006 0.00000000000000
0.00000000000000 0.00000000000000 13.25189109554954
PRIMCOORD
 96 1
Ni 6.179988793840364 2.0783885764052497 11.453860759777875 0.8008294720655177 -1.0581087096718034 0.6746345867032832
Ni 4.827719270497866 0.2724322703362912 5.9800081676098 -0.2379633108864934 -0.13038141263975608 0.4430789791153466
Ni 2.859738890674081 1.264207351786706 4.803942665263904 -0.7559033009767885 2.6220613975013167 1.3560016070343937
Ni 3.3561230600348875 4.372450700667684 4.643939512410914 0.36665833696276207 -0.4102480486282547 0.26777190960749364
Ni 4.950178747188396 4.788849138635948 2.428647126363977 0.7169274339342233 -0.9330389390529479 0.16677717765997083
Ni 7.4584023503536825 6.378631193774821 2.5629423907018163 -0.2799561103785114 -1.7116342823106134 -0.4155581479872585
Ni 5.167473015661299 4.413729277690392 11.569987655470447 -0.012752157459345782 0.3495815839861334 0.5321399357397609
Ni 5.631850216437926 7.817604742905749 12.209576525402992 -0.03981327534219595 1.0807246472991066 0.538966471743291
Ni 1.9461051786641304 6.493946823729023 0.5064208665816161 0.19342974725049267 -0.13774633764525954 -1.010562584461724
Ni 2.728578226767315 1.5786180969311527 0.32262118902340947 0.40528787640950203 -0.36157526601289985 0.4833653374392192
Ni 0.5800550029354594 9.115421675282121 4.581549917580321 -0.4065479740688482 -0.2178356868986829 0.2500883762848015
Ni 8.512178596945224 2.3367622271883146 1.3717426173549434 0.33994688910984683 0.5498049571196918 -0.2421657790036152
Ni 6.963720390354637 0.6988293774438785 4.909799262663681 -0.11521833174607253 -0.3056828257206542 -0.5739244758757148
Ni 0.8634773888212491 7.469557254256287 2.473292999459233 -0.6242797883998151 0.5765192331860846 0.28267608041283576
Ni 7.6525085434251485 4.063907145238243 3.7390739894750564 0.8725838190906843 -0.3303620736348891 0.002310907521363762
Ni 7.628668558055377 3.8601852801338508 12.701393703263413 0.0757693817218308 -0.34361328221784043 -0.22493630249920618
Ni 7.796716461003712 8.675074600282697 7.197009088814514 -0.5873494910323692 1.0133722859963774 -0.3863882112915217
Ni 6.89627487154741 0.8174235712804941 0.33489248874678657 0.2550734882042188 -0.636760180255013 -0.8321123413391992
Ni 1.7393772842613082 6.494933742986641 9.483079883381787 0.9836631889677188 -0.4006421501073746 -0.9128426666107312
Ni 0.3192991644764405 4.843863096519249 1.2355052045697759 -0.9775635038278842 -0.12429715411888916 1.7635168301125177
Ni 6.250340744589748 1.970207738882259 7.22980740366581 1.0751175855249742 0.46398513314039447 -1.2226030048348686
Ni 3.4223462476514888 4.314005161145513 0.4038247244540206 0.46314026864159596 -0.28230224201318477 0.4148469808528468
Ni 5.981482208482643 5.625792886315488 4.759018825001594 -0.7121696075342638 0.7928947905994731 -0.28820703753339394
Ni 5.4354080126465965 2.8257037577439736 9.357570916728273 -1.0538198524884625 -0.6422034627577713 -1.047290278900061
P 0.28532288452958565 5.371720030462405 12.38524362610623 -0.10105335309960015 1.6046200836418882 -0.6413619406930825
P 4.119065972003397 6.167611558747133 12.615230219490394 -0.4601500756650205 -0.29096763099766665 -0.26029539872479046
P 2.5712415667709134 8.548305274357071 1.4263934976031039 -0.31799558164973624 0.4211631528788617 0.33687082128768436
P 6.2926062408700725 7.579123400461988 5.858647883560321 -0.3005956410057339 1.2412028793242431 -0.02297820606272817
P 4.630453124941003 0.968629561283021 12.458288327197039 0.051178579756344114 0.27069268279871445 1.357311841205385
P 3.6140892670877434 6.2523870175459075 8.382284630324152 1.1146338984520416 -1.2645130148050931 -1.5576216034051624
P 4.812571418039214 0.9408781161032447 3.737218762356839 -0.2518930335937081 0.10668046947839048 1.0156664813471927
P 0.2641856092368654 5.626028298248498 3.5021563255247856 0.37487121179085764 -0.05907289490275632 0.47778604357922877
Ni 1.3782734876349345 1.1579731898636019 2.533708755774591 0.2227236111186035 -0.2930509958892566 -0.4546497146720815
Ni 1.7877182192743017 6.455755764750786 4.860038612608538 0.7531823025011997 1.1921308043879404 -0.1865106515331562
Ni 6.0495253114275105 5.3792532123187105 9.36381295467507 -0.1417184349191301 1.4114127368148466 0.2752872441479323
Ni 8.499792307546876 2.231252409674471 10.175265211731729 0.7188346782592653 0.39661683099806533 0.2043170835869578
Ni 2.521614920431483 5.071904825164549 6.7778119651349735 -0.038914931897642654 0.6595553237726577 0.4597968060906597
Ni 0.44708347800554316 8.904827592594874 9.210434836875276 0.6774787410202977 1.5408353850857595 -0.31907595919810855
Ni 1.406088312950521 1.0950457693091338 11.285362857865286 0.8214941995037207 0.04072164608907826 0.07659573427786809
Ni 4.191781096387992 6.929304976609669 1.5070845593641635 0.31362676315807925 1.131268164574613 -0.09795311690772163
Ni 5.592201414336053 7.68278613973222 8.107917454984625 -1.060354825393503 0.33681579968003283 -0.14443094875428675
Ni 5.085884672263268 2.7285691724621994 5.091893109138081 0.10130043611339974 -0.00988486321387975 -0.40807572356728433
Ni 0.6245261279419811 7.398607719369265 7.10747921439946 1.1025823666041463 0.2021504149529422 -0.7393212282483912
Ni 5.1082850231196355 4.82385308221344 7.280959700417244 -0.3225814012482058 -0.19973254954006894 -0.7531653332203351
Ni 8.42077538680172 6.94649910202448 9.38481713168259 -0.8391918738937999 0.08774763712962952 -0.7669122504927823
Ni 4.414154830030832 0.22518781167281507 10.43146401842599 0.7801467469051854 0.14973436324507117 -0.9415135521828624
Ni 8.047384898133272 7.241877697815617 4.67282908374374 0.6114016468855664 0.2885060568310515 0.6228003756408113
Ni 7.247645290174351 6.156918424405431 7.148997730507735 0.4517132577515769 -0.5197611024594339 -0.26533167559711723
Ni 2.4267258028184147 5.384894044405822 2.6455674520356 -1.1165953930537866 -0.5401545785141213 -0.7836637589195085
Ni 2.40393611684207 5.058259987355113 11.60464119743996 -0.16748680213248573 0.904294519930404 -1.3774896017048406
Ni 1.1694359401401422 3.2877177848853902 3.7413402820455284 -0.7953581645383012 0.5683886336591502 0.4361999926073262
Ni 3.6952339495351025 2.6699425468377127 2.813270385959025 -0.07081743703319417 0.04970250943144989 -0.3043180841626436
Ni 1.4298830267947142 3.5803438719213405 8.166861886718674 -1.1549675650740818 -0.7694031352354362 0.032128762213744666
Ni 3.7119753596941254 2.8082017859552275 7.202508673741822 -0.5857870316412557 -0.02443962109960307 -0.33245572293912423
Ni 4.080902075940508 6.998570410745162 5.94445372228127 -0.22311416168880283 -0.525059888964528 0.02925529732069155
Ni 0.8689126881822343 7.419043286015514 11.539560663128967 -0.6176689679515168 -1.1001896980022536 -0.3808834794232086
P 0.24900697214082074 5.5270828519435735 7.957521825289957 0.17502167705695018 -0.9240747878811246 -0.20969711695194854
P 8.403653695827837 1.7451539309251571 7.973940902186859 -0.05401090699881666 -0.7541909462713721 -0.28602802760420415
P 1.6452396739728472 3.1373167226076535 10.290954784487212 0.3692878041658092 0.4388597988276764 0.5426814587010331
P 4.03480660859622 6.283742076161753 3.7195538130760086 -0.1984017465437873 0.380648480594267 0.8534913212356076
P 6.985468831242671 3.7906391625397684 10.400309059953203 0.7422497147490958 1.3089370494464232 0.7754951070657871
P 6.583412412577757 7.760381534574203 10.033881331918769 -1.4780593302998029 -0.4841850051270371 0.799748580296513
P 2.2879142510888393 8.473417116744695 5.974867133165076 -0.024424194480635354 -0.7499550538131535 -1.6292288833295037
P 6.939183223490953 4.053295499642584 1.6593218347193741 -0.4697482608764168 0.9093634498128791 -1.2057018582041559
Ni 5.306311730306222 2.770653582640209 0.5567809116354221 -0.16333112809289937 0.33353892870097396 -0.6513830723745103
Ni 1.153717666459199 1.0053809857478535 6.911298680025975 -0.006273491713537582 1.0780918376619497 0.5017224997901681
Ni 6.878800062674012 0.6933460902657799 9.264542458816491 -0.985461418518722 -0.003733498900503247 -0.20485007327229235
Ni 2.676208125977812 1.4990579178790502 9.225873332528142 -0.0721163583502758 -0.17400763397013902 -0.7871504319165283
Ni 6.258435293363229 2.2372916311866766 2.6966400709020157 0.6961894300559236 -0.3423331299538363 0.4072450001358728
Ni 4.275053540537552 6.810512493491018 10.348149924472896 -0.10461664497082628 -0.11554948983324614 0.6004441194327981
Ni 8.319140811877418 7.149768251873085 0.24547941486772423 0.2552840615531281 -0.7915051093407982 -0.1125577541947739
Ni 7.522778459726672 3.976261471717776 8.137614670333775 1.0011096665789403 -1.207143732857005 -0.755506322648686
Ni 3.029661034781377 8.274421598910724 12.462700490079945 1.5066690236166957 0.09831230001935327 -0.24917177800780316
Ni -0.0185667580703586 4.814753505572111 10.026976518837497 0.32061707843298326 -1.7450357405891945 1.439566059320611
Ni 8.427710984520385 2.559154069441386 5.790122186152785 0.7547851282119452 -0.014344698757446263 0.0790537089000574
Ni 3.4751600093916633 2.6102475132095675 11.372216279688125 0.5841093868285167 0.15257774623113723 0.6622529252094788
Ni 1.187281975523287 3.406211475935221 12.742063830982342 -0.5150184455681259 -1.5623596323107802 -0.39783244857272126
Ni 3.1000401484461073 8.389393165270528 7.953903724965704 -0.030076507670406268 -0.06086006871016616 0.9337853303006692
Ni 5.589186330732508 7.9058751634792035 3.509935784480239 -0.06163268521013257 0.09493592734795264 0.3917846997167446
Ni 2.980478049392618 8.45435780447604 3.6718340033939563 0.8184042477244874 -2.2862156750440366 -1.2258073707047792
Ni 3.7115407530485696 4.27290767022512 9.548848544881578 -1.4246446621240885 1.0401732082393054 -0.9237958231881251
Ni 7.3071320747848345 6.227062126137152 11.410023436129455 0.4730521284386692 -1.208599491466925 0.37598732767317183
Ni 0.7990016820919876 8.8197080702017 0.11818765553691839 -0.28703127205773793 1.8247239977494574 1.0830882624352764
Ni 4.826143821407725 0.5185128910637012 1.5972636274560181 -0.6955602811123569 -1.10598907829285 -0.5674504381155968
Ni 6.128596558003363 5.756464617746004 0.3510779645717027 0.019485105307805152 -0.5753612083222415 0.09406175227311542
Ni 7.949915303562215 8.92765349579168 11.322428466717634 0.24162687578100964 0.053160900293695544 0.4488071398483755
Ni 0.06310941208729468 5.116153214265223 5.772125849304719 -0.5434571605247931 -1.0602823202843545 -0.008652019248043163
Ni 7.725169341979049 8.865441365341358 2.549531153964366 1.009114796271604 0.6322648634878207 0.4586223261665844
P 8.357177947668687 1.7297978294488439 3.478621470237415 0.7072971099333109 -0.2263349826189457 1.322861115726683
P 1.8998195709124126 3.2652902711136753 1.6717923291552979 0.14479347430002806 -0.4523640039616984 -0.7291003218513313
P 4.560943224567383 1.0445861268990544 8.127331696013819 0.3153046650811344 -0.4939623962287751 0.5161157923973627
P 8.805311725067657 1.5917649479592229 12.436196728145118 -1.8076981526154223 0.19133661216688982 1.5602045336409904
P 6.523156012032435 7.765080718929279 1.1916841786705652 -1.9099470686850204 0.8401102719430111 -0.2895851488278432
P 1.7919465797633574 3.016170120158908 5.866983276849882 0.4402060284429257 0.18091181728914005 0.6019317597219181
P 6.73467363384149 3.9667363427360063 5.8028833237829245 0.397397932138464 -0.39681660571369726 1.628595106400247
P 2.3915588817488387 8.394807639729747 10.29055730049263 -0.41451119477998294 0.7467355184345913 -0.4496391488313675
