# total energy = -340885.7528038171 ev
CRYSTAL
PRIMVEC
9.10683229959482 0.00000000000000 0.00000000000000
0.00000000000000 9.10683229959482 0.00000000000000
0.00000000000000 0.00000000000000 13.32876960317806
PRIMCOORD
 96 1
Ni 6.796073781870862 1.718477469392874 11.418090790835402 -0.10141510731439309 1.1283695028705794 0.14380334247261686
Ni 4.803061745847441 0.44549348673698336 5.893889047396136 0.13172250004868283 0.1518346974175256 -0.611243009820515
Ni 2.9977142031085577 1.8024971042277915 4.976096113035914 0.4020089485479141 0.6826965377758114 -1.418769177179918
Ni 3.5085073201967547 4.327858129402519 4.4061978329295535 -0.4840993873917663 -0.2168213867015556 0.7650214612279728
Ni 3.808796008582467 2.5422541990982888 2.1086779131140663 1.6582836346036152 0.8797073175093431 2.3977791836463416
Ni 5.667564229615477 4.853149323518376 2.604828154540973 -0.9569705101678809 -0.025842672094716784 -0.597892556655538
Ni 5.59074809913287 2.7405281520167617 0.46393209010250014 -0.18793709956703764 1.5549021475914706 -0.7413344020236781
Ni 6.3277367169830105 8.388503585346752 12.419094673321961 -1.2079063220546424 -0.33511347227694543 -0.03891133235321685
Ni 2.0097412869655136 6.963293436633355 0.08736275297364511 0.09356475803203887 -1.9510860048171752 0.4076594619654721
Ni 0.8683865477456104 0.272676772840571 0.3275199383405539 0.516544138184033 -0.14207016183159404 -0.9797579403760416
Ni 7.927333597481995 9.166117782104171 6.828608850959441 0.6906253057045848 -0.020413787769661615 0.8623032631002827
Ni 8.952489709921482 2.6559985345728303 1.3257717361049044 0.9056888291747691 -0.2696696408508388 -0.9272138477307386
Ni 7.302796144919258 0.9493781608395125 4.745628597240255 -0.5891718889530886 0.5782511282755267 -1.0232298955167476
Ni 1.208722531187311 7.307458843058806 2.4292611772888106 -1.2712379922337527 2.103804904611867 -0.22458483269705837
Ni 7.624422141392787 4.232391206361717 3.94338315115073 1.2288212178304387 -0.7898040674892914 -0.6188876708499664
Ni 8.160140658496502 4.210616770323316 12.172712057392172 -0.13182303018228908 -1.0200656388561529 0.8391427658234194
Ni 8.72108510108176 7.494576926405116 9.387638745844571 -1.0234885484947729 1.3362120831122923 0.20020203297731973
Ni 7.582658208447532 0.9150909372156816 0.3214047004485479 -0.8666944501894428 -0.13944506550392113 0.39650370245896877
Ni 2.028310118032975 6.713538560701465 8.987842432924857 1.5965889858072957 1.143476790825663 0.6246942502294145
Ni 0.25211536686503694 4.928808886298399 0.9731551893015207 -0.2025695047682318 1.60503968767781 0.6525472678859408
Ni 6.03659128823032 2.5021112823031104 6.802750911316013 1.21411605040978 -0.18990707880921487 -0.5159478993609308
Ni 3.74353644829339 4.544190930779441 0.3507250577338829 0.8221950822254872 1.0003511911463612 -0.35849225621220193
Ni 6.307355626287092 5.955230848428114 4.877490064899989 -0.4264251726087495 1.0062732130577507 -2.5228800646134486
Ni 5.375362408315546 2.9152154092683755 9.726016760340954 -1.2114703852568167 0.34370481349038223 -0.5318848823061614
P 0.4016195007469353 5.944421038483496 11.98760203056885 0.3200527212890811 0.3621046561538086 1.073585465151164
P 4.420711391572129 6.3025016846691635 12.317915945060212 -1.052338897067562 0.8428724080691807 0.39014536434110875
P 2.709355465040832 8.552608703461344 1.283658100799182 0.05900244667613709 1.8113398631330677 0.6521646877355414
P 6.3219447716377895 7.970818721732671 5.86191313781101 1.1446867519733641 0.8489921478136733 -1.2105067357919668
P 4.893456163295023 1.3933089151531628 12.426972083264754 -0.88269673915497 -1.1248195807357917 -0.6917403931456344
P 4.140767366553121 6.322964736855816 8.071663229248871 0.4597225012092986 0.30036141350774076 -0.08822817631047386
P 5.150678641716034 1.1381901149943305 3.5178755185876804 -0.19257177012557156 -0.8410710931943837 0.21103614747834623
P 0.13703050567537478 5.671716945146013 3.3883863807430874 1.601659201241351 0.020654443025557977 1.1015050743795676
Ni 0.7619112858159668 0.37175273352337185 4.494208081679999 -0.3394210985133639 -0.7695628007417521 0.4294207649019637
Ni 2.07820645222553 6.473801200303761 4.656645738799763 0.37091762645974835 0.11906855873009817 -0.6316529409354348
Ni 5.8458668992917024 5.3936762480785 9.1705400598709 0.10136625635432864 0.3090787387760806 -0.5686938236043948
Ni 8.767748509806465 2.554566636373035 9.979369745716077 0.669143481681725 0.861908084544393 1.6113520030490829
Ni 2.601648959383714 5.378313021981979 6.866275620051214 -0.6964105449277942 1.0595636969507751 -0.25382881716384026
Ni 1.0525676776739428 0.4084896950369269 9.064070262040639 -0.5734285100759028 -0.5767408622785873 -0.20006036519313286
Ni 1.6937615265203432 1.5310497537482344 11.306582182691445 -0.7580051778111397 -0.5887335158640893 0.23517597794934336
Ni 4.341800689659647 7.025593276423695 1.3587748963738986 -0.32909991909301384 0.5144497175488495 0.4477344756094869
Ni 5.659905383647977 8.194309493300384 8.03778125966256 0.7578048888748756 0.4378961493628265 0.8617656454292578
Ni 5.433500425743046 3.075696008126052 4.208932006347112 -0.29560718665220703 0.23067654741709304 2.29567527779504
Ni 0.9557893707813924 7.635896750095584 6.444073767614446 -0.6424366618145001 0.4469220070105206 1.3839901218275197
Ni 5.121627846666891 4.731782569405548 6.36527416905607 -1.963305429701503 -0.11756472049106205 1.361800730214674
Ni 1.3382854343735646 7.853850567622582 11.402362380763497 0.9616612307753308 0.3282000329865638 -1.1304032454711566
Ni 5.049073713702467 0.5747485789913682 10.317013749528774 -0.9438640546929099 -0.8695002950693542 -0.03142350861660395
Ni 8.417463312072856 7.370960784713248 4.695925327892541 0.22297763611093857 0.42940790938615725 -0.11502292790581481
Ni 6.945999562088426 6.386311862361093 7.061289327004925 2.114531547000752 -1.127645480220361 1.585758985071327
Ni 2.318708786536753 5.387028260496722 2.4287821579096307 -0.40124893045343796 -1.8064907625708821 -0.998355500872571
Ni 2.4685890325927984 5.45532950277527 11.216412704001765 -0.06356101258109699 1.2467456635193432 1.7365153618230091
Ni 1.0853340603030384 3.7801459141546916 4.139622637732532 0.13381692068386633 -0.35432115555364785 -1.165629415663302
Ni 1.8526848570540688 1.2287302417587735 2.559856795258316 -0.012737759281642579 0.25224527472680425 -0.6292857262548388
Ni 1.2169186802607368 3.656848511593457 8.100693078583715 -1.329586864486291 -0.0054553666876164105 1.3863133706440576
Ni 3.4770341077547995 3.1875643361460098 7.3272907917668055 1.8732759385162316 -0.7139326129719576 -0.2706564302441404
Ni 4.268308552967929 7.052877346005899 5.930716166549498 0.019483048425276123 -0.05997458078141929 -0.5478195512585469
Ni 8.523521481082986 7.2055533895792125 0.18265391415098406 0.6096427552129307 0.6618410344830409 -0.38889297999124633
P 0.2983644147199177 6.1207475255497945 7.986425100251704 -0.8719621263462854 -0.8741478211436944 -2.558685761458148
P 8.671471078690624 1.936212722944581 8.006431900139937 0.6064566441754653 -1.7342247660166197 -2.4082785405157683
P 1.7944011303097076 3.502269140068647 10.149417982592134 0.9806794237490465 -0.48636710038002046 1.8990291362209362
P 4.002680468330505 6.122732814992025 3.391744980496731 1.3700490862663954 1.265780054442975 0.9598234062356438
P 7.06946088763113 4.009756477030562 10.306297739956884 0.4597348425044727 0.41817810210860884 -0.6678327332901015
P 6.751532265072945 8.0608488658881 10.29195630044485 -0.25746178593073726 0.8249109384947534 -1.5027619752528056
P 2.62044546125877 8.575339356891643 5.517231373993933 0.027377106461372206 0.8843111348299415 1.0688955158746625
P 7.154974042963872 4.1492640410925725 0.9971562458382025 0.6829631611736368 0.553784253482414 0.37418729834995557
Ni 2.817043757033343 1.876371727876269 0.17462806284163948 0.01108608261083252 -2.1933800818685385 -0.5395434272926837
Ni 1.5113972096366204 1.1412591174807134 6.609923754798446 -0.9853539464065804 0.36618756797393065 1.9796332203272489
Ni 6.9723638416079465 1.1701368827160832 9.047076002278505 -0.1553923328617969 -1.0645238691695278 -0.7103883472641249
Ni 2.967133460232376 1.8333965862346067 9.215497758905101 0.5893061005381077 -0.29312761476346294 0.3046258452110496
Ni 6.6966271731132965 2.471785530731435 2.4358062576655564 1.7402827992852417 -1.0038676889400517 0.009893090743995865
Ni 4.522899156853141 7.259174418184024 10.147818822839584 -0.23980087831586444 -0.5452391921258802 0.6176733388268911
Ni 7.314962872877143 6.138879228666674 11.112288826172964 0.13051716688667198 0.9270115019119454 0.30654517372094947
Ni 7.921277553999964 4.059525315570864 8.049137479545406 -0.47436699059535076 0.46114869213286386 0.45258280484072383
Ni 3.6529052532059088 8.582670356896209 12.535574701220568 0.4063389433818357 0.04921837070617975 -0.599142369902239
Ni 0.307116991247106 5.226666050458995 9.917550746671377 -0.5859137870271071 -1.5758229569045377 0.7223997699027043
Ni 8.617995759402673 2.755253899852016 5.834721957918305 0.9457247620507325 -0.7820375361699952 0.5417093245957509
Ni 3.6614110345776636 3.088263436705305 11.639455117060175 0.2054288285938978 0.16744386470969227 -1.0975905698165098
Ni 1.4791134891196267 3.7251224333750934 12.573787880250569 -1.0801065540991333 -0.22723409739444736 -0.9024381834479556
Ni 3.362916392155802 8.58200555813803 7.722235895118281 -1.3270833813381466 0.4791315018635296 0.7966349743681957
Ni 6.556163391659386 8.1625266485601 3.4820346693728195 -2.208352901128287 1.5011781757054534 0.24505467051563604
Ni 3.469184018308918 8.62722098052643 3.597701457146695 0.7295515504561371 -0.49014199404142034 -1.286874670329745
Ni 3.479465631979916 4.650148924634228 9.424013255432435 1.2666796834391088 -0.721767278525028 -1.5738735464876508
Ni 5.587934087950995 4.562559411536218 11.940125381719417 0.24421160578905035 -1.2496240135084027 -0.8975749418183833
Ni 8.687435355719197 9.197991695167495 2.3365864090323556 -0.9009579993580031 -0.4127134794496118 0.47460456052745353
Ni 5.22407060325241 0.5657492073087468 1.2768507436520866 -0.7178581732786088 -1.2800514767603246 0.46333850069533106
Ni 6.2190375666047775 6.0093436459773315 0.3610349025850222 0.7108226065880662 0.5625491441592375 -0.3415872529267472
Ni 8.547845830166452 9.053202168369276 11.287521582679576 -0.7765037508359595 0.8939566283395056 0.20389439422724237
Ni 0.16034490705634954 5.362694804580951 5.855341647620583 -0.44099587133407275 -0.7529557883126904 0.793602358189459
Ni 7.544181841963949 6.433585428850153 2.4636094166890774 0.3388158608291971 -1.354812728932615 -0.9513971298451616
P 8.907702308651361 2.0455857789132956 3.334697961579227 -0.6223476043741089 -0.250511065644517 1.8795841401224467
P 2.1193784410710386 3.562173882963086 1.2666328778072158 -1.6410351319358125 -0.2098272147719096 1.3161199403481076
P 4.749477144571844 1.4536416791658802 8.003619710324521 -0.2002431706279003 -1.4996601963990301 0.7791525013127162
P 8.709064082440737 2.055175273329204 12.272464655715144 2.5378001762583904 -0.8704973688753007 0.4122023441411482
P 6.861415303650673 8.121081454745477 1.288249765646761 -0.43191602051999156 -0.04964208850715967 -0.3586868887215113
P 1.7699492855739876 3.4912407661487377 6.177097871796057 0.5077152270384934 -1.1059998769261277 -4.026086069382208
P 7.114867553497909 4.241980700777625 6.039092024380946 -0.15442431252157277 1.1364720773730557 -0.17253670585156736
P 2.9959839049708346 8.870473578193401 10.169224432169681 -1.9618383582376728 -0.005985528159473562 -0.026273074763916045
