# total energy = -381163.89003636537 ev
CRYSTAL
PRIMVEC
9.27277481285208 0.00000000000000 0.00000000000000
0.00000000000000 9.27277481285208 0.00000000000000
0.00000000000000 0.00000000000000 13.57164324505920
PRIMCOORD
 96 1
Ni 8.342650639194197 7.530216469146192 12.875594705810814 -1.9232612692954232 1.5413622041235067 0.29444144847888004
Ni 5.531089662608278 2.638632998075103 11.181459664729338 1.2259621511150884 2.2059203804273944 -2.1349553620727426
Ni 3.1673851665905093 3.164019149313474 5.597583803908252 3.41488445432259 0.8283798708799605 -1.6224131459592508
Ni 4.118011500494308 0.8618413690989639 10.523343941309832 -4.030684487386168 0.23494406444419536 -1.9851515790423166
Ni 8.583510966386996 6.057059998663325 1.1482495664427148 -0.23923600695132993 1.494307416727549 1.9414088867387276
Ni 2.8240977682072734 2.060772213859482 1.3231628460527418 0.8828990849737632 2.2404556952001027 0.49241073547093905
Ni 3.21902524982965 4.285004903089692 2.689845606392835 -0.8513112828651532 -0.5455263843489959 -0.5602058407380417
Ni 6.427025170341409 4.2997764334542 5.752911128442374 0.6628440218262583 -0.2278483339396786 0.13092905761311
Ni 2.0815246840137647 5.245339832280146 4.6742092280636225 -1.3586860958450921 0.1946772465043486 -0.6291175761080906
Ni 0.40127655057440387 2.821696119516496 1.4206929648354605 -0.3492036318214244 0.0503123751013069 -1.7055932183228562
Ni 6.184291742625303 8.542339845973673 5.75764766184488 1.1000300324959378 -0.3140785059835171 -0.23145533456464654
Ni 2.7445373598409906 7.978369678510115 4.998585729381333 -0.7965123327474024 0.6205318913216087 -0.0490173104389672
Ni 2.468319942077023 5.2529156893471916 10.156814332720295 -0.863028057081449 0.6282871097869954 -1.2534526432258735
Ni 5.962663150508457 3.07560324094838 2.7298817391623293 0.9786132852486371 1.2199681383151828 -0.2721178452810152
Ni 7.846010090046208 0.04945634475775876 7.339300234669204 0.9766034539074602 0.4012671852858831 -1.8931963315892424
Ni 0.6053285979292103 4.235516103619895 3.149734439629528 -0.2794727429841896 0.7392379245059656 0.6997329244328078
Ni 8.941838805605908 4.474299329242291 7.8225323513582605 -2.695720931968996 0.5153231212927383 -0.07007618799179545
Ni 8.256515833446597 0.194859018350805 11.332457530677656 -0.6729677405238217 -0.2762190119335824 0.0741578142603368
Ni 5.00686260822839 3.0129192828416116 13.383594404171939 -0.8712738420300091 0.9076747492565465 1.6458387239720431
Ni 1.105286945924922 9.192982640127168 11.668749547700573 2.07959668279678 -0.15756902879814152 -0.01573823667086322
Ni 3.032920658231596 9.057896855852109 8.502322258753914 0.43569194262265615 0.6302048956349985 1.0539882597455268
Ni 3.6675957340626266 0.19118236311569645 0.1986330377220261 -0.3166426671662676 -0.41728644353227484 -0.39624659214284014
Ni 3.7818177748849893 3.2657785807134263 9.535585707725154 0.24061926045210172 -0.48781823100425026 0.7487173247513105
Ni 4.9851828605873205 1.1153386338816877 1.9187856305277575 1.290911302292964 0.5414817819659772 -2.208158525729294
P 0.48744659286650116 4.516202998870173 9.737437325603818 -0.30435485093785003 1.2321677657051682 -0.0027919609228403528
Ni 2.591833303316987 7.457990825700391 12.580968048101674 1.050259903051346 0.29016544681134543 -0.049903312588346314
P 0.0014456256019001763 5.177027299828583 5.904166777532017 0.7202012195894888 1.219572445538661 -2.1484120017982806
Ni 0.3189046368681842 2.199084923788559 7.880876650826868 1.7229777323478905 -1.9554368255867032 2.0184141977501886
P 2.518532017986513 7.667453537190597 10.248165074331066 -1.9628593433030193 1.2686717741684732 -0.26324496827141763
P 7.591787694268817 8.264814966953336 9.14901114170375 0.28741976574540823 0.10678125672231285 1.0751522954176518
P 4.254599474297962 7.523586435115669 0.8938231696182308 0.4774854816196745 0.5954209551865939 0.6666875639420647
Ni 1.5502688662840345 5.673704940076044 1.5500175740851154 0.8791367897178536 -3.1774019397272566 -1.9073443409548507
Ni 4.093392283220126 0.6838569464527 5.458162070104979 -0.035617234982977364 0.6074922845288312 0.384057506275816
Ni 6.3514335096185714 1.472201374671478 4.956758096507366 -0.7582617739066361 0.7577622085623982 0.1688595141102963
Ni 6.262535416960349 6.39096334888028 1.619667240672624 -0.9374234412738889 -0.8877795529945162 1.866148583442831
Ni 7.222378889082806 1.4527563657735647 8.940428416548507 0.367740000062715 0.8459857568871817 1.9737417945434783
Ni 5.377717966293789 8.010221660181232 8.982202267328239 -1.2866502130237647 0.033971471849438266 -0.44406114052295775
Ni 7.996924501020714 7.044610522090963 7.098403743654423 1.7381207586369165 -0.6734433946086595 -1.9358725303015307
Ni 0.18309557615343125 8.461101065356308 4.813549361448057 -0.8573289498141428 0.5270080138298344 0.36355347278519323
Ni 1.1662925317806068 3.1802650508819736 6.057160144631898 -3.7890738095550742 1.134963354038013 -1.0952230980255977
Ni 2.2926935860796576 2.017700174598249 12.418284631264875 0.7032458226820727 -0.5026964336676633 -0.6357291678873375
Ni 1.9316488238244602 4.292942398376584 7.951014992649914 2.052594443176323 0.748812198457962 0.2667784353459728
Ni 5.7929713704265255 8.296611311975246 12.830631947754025 -1.2944524826770027 0.6429082021342799 0.46062727241175505
Ni 1.716984085633382 1.0581348857218278 5.323124504259232 0.8338141545216544 -0.396448166630685 -0.16206306001375315
Ni 6.127477451009893 0.21335171326978844 10.713889264792108 1.3039367680183542 0.24727944608109673 -0.9226671089003207
Ni 6.676982089679582 8.511544960637494 1.381308708139177 0.7431431730976427 2.5639768346537584 -0.7507742072803393
Ni 1.3075168930181928 7.127898585954128 3.1876257795720853 -0.24429773774495345 -0.000287449333431763 2.9213617167343946
Ni 3.108039407436172 2.0428757583645027 7.549674459928921 -0.12772006375750905 -0.9523350682783985 -0.2263300975229392
Ni 1.1613594155509024 9.22967501027931 7.223859751229203 -0.4904117027630393 -0.5823278694480616 -0.975250282313675
Ni 8.420671766932415 6.220316472986959 3.976368937110181 -0.002298309115873461 -0.8374761767542738 0.6687153930053709
Ni 6.561990408543186 7.275660253473559 10.967882623030262 1.1338405532874796 -1.0863319661835549 -0.3243618901873962
Ni 3.9885728361137787 2.1914812483969093 3.5299979550758627 -1.1383464115776332 0.1931217290917706 1.3896113246690391
Ni 8.127772627181159 3.161051861355757 4.383803537474334 0.47570036469479354 0.6288951756846395 -0.09439213902934065
Ni 4.119161324577923 6.6161526865463856 11.013918241139265 2.19554572206129 -0.27834402869638514 0.523826273667743
Ni 7.738955904196706 2.485613667205592 6.775412594901971 -2.6058516205106734 1.3804129459992225 0.6182837187173803
Ni 4.716958574759453 8.879442303520044 3.376570622112166 0.6305861902338171 -1.0146192710296011 1.666155581152524
P 5.0382787694807165 1.0536932265601202 12.338483130752026 0.13255168081819754 -0.693840984428405 3.0441388346643317
Ni 5.669550736935241 6.271047824289049 6.850517434944243 1.6517725729579746 0.9556101394852445 -0.8309111219422465
P 5.674057305521023 5.202675795113097 10.470889708437294 0.6788815349050953 -0.934664390471513 0.34007493004727885
Ni 0.7927591963333687 6.732470374488886 8.944649383668358 -1.1743202585690806 -0.18760517014891562 1.1177490470422558
P 5.032835650633279 3.0503812933077867 6.9184303107990015 0.23533075835965278 -0.33817051393571435 0.40377941018477553
P 2.269418921161316 3.8218483439895636 0.171946918929797 0.14664595412773454 0.5945683773783116 0.5291816244423854
P 6.598274776601142 4.447612283172575 0.7750685964404554 0.18954018238809936 -2.4721252026580847 1.1446137326435837
Ni -0.17072013081477844 8.778804877879104 2.2171853803306316 -0.11441614755975135 -0.18829988222309507 0.580884966353948
Ni 4.623489004091374 4.764073543863076 4.383749755380101 1.0636985450547551 0.0062526657779311675 -0.45154305072229983
Ni 4.758843698837601 4.957976539125005 8.35577625201966 -1.159768843117467 -0.3270818602217206 0.1655942130954632
Ni 1.783340062587825 7.793025454451226 1.227066298264595 1.3985286817633271 1.3037295371035547 -2.1643975785932597
Ni 7.6914885696481035 1.1816389741869235 3.1129688145559293 0.28191426254614677 0.12355179131243237 -0.8720444016474465
Ni 4.033851795793564 5.4781699364373715 0.7377002410004457 -0.40646287055420965 -1.3255620595976139 -0.49336435763346
Ni 3.3508562901260888 4.102943241334027 11.790650373391015 1.8423530236851302 -0.11670417226297965 1.3082464511373018
Ni 1.6088449851243387 6.889356452478297 6.774964719875852 -2.601320051188907 -0.49058679488832285 -2.797597038080208
Ni 5.4657536908893 0.748987989847098 7.650769960648334 -0.8670127527608099 1.0157379580150765 -0.8927060437618561
Ni 6.753185753543697 3.863455284821674 9.011137034025925 0.2974208428221781 -1.1784340236271382 -0.044347158656807495
Ni 1.3949313416975577 1.9473198133511522 3.29495073044773 -1.103375809039719 1.4450777331674596 0.39892568163690006
Ni 2.6071426546238325 0.25230571321220313 2.7875073985786774 -0.13300059543015805 -2.076217224801586 -0.06626581310676975
Ni 8.596418669003063 4.431626019300375 13.277057639160065 -0.3097551960178149 -0.5561249858004487 0.679404754398417
Ni 8.589334269004015 2.1585999887154594 12.625604404483118 1.3605501456370246 -0.9097185191594526 0.19113812300283856
Ni 6.918565693312072 1.9111374458167425 0.6577809762467763 0.38585573582681937 -0.3765018054157451 0.9027711413073419
Ni 6.2595495834528965 5.902464296066277 12.924425138264992 -0.18096555334521092 -0.33276605509069146 -2.07323037425912
Ni 3.0467927294339225 6.759361421605695 8.281905618312301 2.3968633567002913 -0.876372082488523 1.936109328902685
Ni 8.598208314552561 5.868071574081364 11.278741273145599 0.7424649160836955 0.41756926488001633 -1.0890869032208728
Ni 3.786324343470772 6.765833818463465 3.390236837712425 0.04440912224299448 -1.0220926965885109 -1.5633513068000882
Ni 6.926113732054514 6.230803981362515 8.82829924101382 0.41921554223418767 -1.4666978825403967 1.2079885973558036
Ni 9.088283739094102 2.4931338876234306 10.20325609836851 0.5411313406050938 -2.2220257706296893 -1.2039082566388426
Ni 3.561385370726099 5.706651109181569 6.208158010580213 0.2822549337150171 -0.027821907308274663 1.007025003622111
Ni 0.9445063024910082 3.8123993863992083 11.644375131682903 0.7153816867136582 1.0042109312120837 1.8790431800173124
Ni 1.284882049565734 0.6680663381302123 0.49317438590238144 -0.9331718650863864 -0.3172301642386214 0.017710787016201754
Ni 4.319916900467204 8.044883292637312 6.7457990610839556 -2.2114413102456236 0.08530534623672405 0.7437103584550223
P 8.786213824998526 1.3619480814925613 5.456235187487436 0.9668337761152059 -1.5382709667926928 -1.5590578216310569
Ni 7.69528113456906 3.822998168073178 11.30791991382231 -2.3582099059941517 0.02397322298614581 -0.7206390784578557
P 8.512407328700204 0.21493086682978588 0.2517567649400255 -1.489790502693802 0.9071415024608956 -0.25872625446545766
Ni 0.29037230859976315 9.150151693012498 9.316091708382894 -0.05857667199262816 0.5795683044250535 0.6621261698236274
P 0.8042555826145479 6.464923001226373 12.832110955345447 0.1961111507373977 -1.512782849823917 1.121835044186171
P 2.2191233902780154 1.8054834489722869 9.503488924797526 -1.3181950777095812 -1.062830540627505 0.3911442379192683
P 6.26461251853075 6.50863486195349 4.742162904127798 -0.3631377254040133 -1.1677755154720275 0.04658838928250041
Ni 6.923118625772194 8.13292829000769 3.5811224720323502 1.2917566810123948 0.0075770410163095315 0.11311028426413423
