# total energy = -340898.26518969395 ev
CRYSTAL
PRIMVEC
8.99378932932285 0.00000000000000 0.00000000000000

0.00000000000000 8.99378932932285 0.00000000000000

0.00000000000000 0.00000000000000 13.16331978962487

PRIMCOORD
 96 1
Ni 6.3184159091354575 1.9900378081288717 11.290126965859564 0.5734202825457866 0.00941280867346766 -0.08263448427278026
Ni 4.730787223198272 0.3494276078113588 5.936947026963414 -0.901033589790945 0.12819314673918566 -0.09570211609001583
Ni 2.6293703262907795 1.514329301768438 4.830978037878007 0.9569118890158036 -0.8019808120611414 -0.47385225574246137
Ni 3.422010979733725 4.358804090778717 4.927912201391178 0.5271167714935567 -0.6694602415911954 -0.8352557720641873
Ni 4.948508878653122 4.406740988646131 2.7031796583223935 1.1155337845584918 -0.011727829959889479 -0.9512055826596458
Ni 7.1752452380155 6.036703441611818 2.614709550078083 0.17801984045332567 0.03701103000671045 -0.1731663690157663
Ni 5.139788793070412 4.548528079617946 11.353692371686492 0.8385691527081365 0.16572431091542425 0.020055375988978365
Ni 5.701127168960985 7.896502184446502 12.324066493849186 -1.1640553863079628 -0.5850123582587603 0.08498910054788589
Ni 1.7139104838652068 6.492014033457561 0.40751759460982745 1.265688266060117 0.16205149004952737 -0.27262692370694985
Ni 2.7164931648726998 1.6454227770621384 0.3297294101173232 0.2169676824714328 -0.6208597069746727 0.621212205218085
Ni 0.5332993378433972 0.02611796461669217 4.724302700991442 0.3912118579324101 -0.7548049257062871 0.43265572689949355
Ni 8.594051501838386 2.3558781823414017 1.3794233591190161 -0.3227950599209086 -0.08135150379529861 0.32965913403059355
Ni 6.982454366967494 0.806478497919269 4.9713782865137714 -0.7614499418266305 -0.8847286819833343 -1.264410684899274
Ni 0.740637663356797 7.441695244810997 2.475243756168102 -0.001845023628538758 -0.2703720662345021 0.507636294171442
Ni 7.485225185838817 3.739006083342517 3.739212041121347 0.10416644480728511 -0.2424501430132534 -0.0495425868148179
Ni 7.430569927238391 3.9330650787055914 12.463386588369776 0.9948225480186479 -0.3151234023082637 -0.4512504591825454
Ni 8.012162317012157 8.779422496574831 7.0042022492814136 -0.6958659852782337 -0.15234043340935052 -0.03814745760399881
Ni 6.83136769768519 0.6406483095611576 0.3624272311092124 0.2869708511334477 0.36449269677001095 0.24689403771721996
Ni 1.9459772335224066 6.327211835235707 9.138608365959575 -0.8948179478985364 0.35887329370070453 -0.29359272732533953
Ni 0.07850229137630772 4.870856500381593 1.4867840227630857 -0.07081589437129739 -0.7823920912959363 -0.3264018034355604
Ni 6.3327430157588696 2.013916319167893 7.057961726450772 0.45845211913730727 -0.16936370744022444 -0.015392680405986391
Ni 3.3207588978967 4.207618489812258 0.5008245628303284 0.21665323655480753 0.5880614294977292 -0.06928454532843552
Ni 5.980240431328212 5.50588998717753 4.6854045615399285 -0.07494945692369673 0.92454529975964 0.5498018717958982
Ni 5.212818363555101 2.8074833329261 9.136963401865776 0.43814143260441313 0.44426400056238324 0.7847613628590614
P 0.23721569412794916 5.488819774766207 12.387790190370758 -0.34576940932889483 -0.3151861372253991 0.3098978922432663
P 4.071290629047858 6.050014250025283 12.556438132969369 -0.33562974979173166 0.3642718390084565 0.23749125634608131
P 2.325380242253522 8.463461678754925 1.348187028915768 0.9820377375491538 0.524473934554071 -0.01031140922833708
P 6.28378082589204 7.807220836392128 5.696584405900416 1.127870965967606 -0.8741095117065913 0.9012297649621511
P 4.777725810434675 0.9149292088469276 12.45202653289204 -0.772016147378251 1.4313156463863608 0.5269092834684409
P 4.065993287050877 6.158200543542566 8.052292605620863 -0.2552696633754249 0.1916693129159602 0.6627997988518842
P 4.669413603864833 0.9244536318941305 3.7423841506669078 -0.2212603963095157 0.29507779651129823 -0.028601722897092674
P 0.24651707119633173 5.62070470353314 3.579554290475507 0.11332420004715323 -0.5960727298379798 0.38207852817257426
Ni 1.4968004060942186 1.1780335259601207 2.6376266250229152 -0.217036073815523 -0.16221064133521096 -0.433914281896943
Ni 2.013970281904704 6.404540437086368 4.760422658876117 -0.28663712194311275 -0.07579560697407592 0.18791473096953445
Ni 5.859795602765283 5.456010430784908 9.220497718449744 0.40779598754333646 0.8156187145595502 -0.396766212091736
Ni 8.600113315940193 2.337467895299264 10.199282832523432 0.5556688720996366 -0.12909071885279058 -0.33896138526812597
Ni 2.575308657795278 5.162929813373011 6.966068581934728 -1.5396141110841484 -0.2755677515028287 -0.2519359710165016
Ni 0.5572983656612972 9.077701524299556 9.258486585785985 -0.9152060246365851 -0.21950433285035748 -0.7465671111775272
Ni 1.641906205379932 1.1398099207187498 11.346926343869296 -0.7955319711120041 0.43893178971619246 0.0646835562213144
Ni 3.9834662748873897 6.860768395457905 1.584903567728212 0.42673961852537473 0.20228154121416775 -0.7333033041890855
Ni 5.524678013377347 7.843996441529061 7.878642317319841 0.33232022580252446 0.30303870322958776 0.4457169309588259
Ni 5.2626619447898495 2.673628764265553 4.958070176237146 -0.3854934673913942 0.5660219331991865 -0.6790430001836242
Ni 0.8057679885512529 7.31800365824992 6.708593477649905 0.21933592559329324 -0.2073550990823332 0.4762660073902765
Ni 5.102446579196959 4.560363906558568 6.9774682100861245 -0.22176973184576645 -0.2669396435141854 0.00044942883259277433
Ni 7.940382883263597 7.153570205396276 9.110162808628422 0.7655004577469203 0.3725572189457003 0.15515270604716505
Ni 4.59147342433031 0.3952797452799607 10.356018500970938 -0.49102568219795434 -0.798342958198238 -0.5742191242979982
Ni 8.09041727917808 7.0275222459944375 4.7606726862233435 -0.03710976036810383 0.4651950942880956 0.38641957875008937
Ni 7.207802755891681 6.08883144537158 7.122422014329819 -0.15047021296983118 0.27901482951116463 -1.8022253024263089
Ni 2.348674156977087 5.31305414718218 2.539165316057984 -0.33209731115844093 -0.7807764100693845 0.4599914385999691
Ni 2.419554211778792 5.166653242212994 11.358602081357377 -0.5331344384425464 -0.28210015330470767 0.5131284276342647
Ni 0.9176453332664322 3.4234050171013517 3.7836908269381 0.8055556738965933 0.056267307133161165 -0.15663006192363993
Ni 3.623399913513674 2.5599562591724494 2.7356274519670567 -0.20309298137186957 -0.24744759622784482 -0.31674782528556417
Ni 1.0682643254963715 3.3566441178762463 8.176277389718614 0.12216596670849929 0.6100944980383687 -0.18628696555812432
Ni 3.70169085083747 2.624738524714472 7.041441933954924 -0.7419653507394577 0.31500770266600586 -0.552126406164017
Ni 4.232882044429438 6.891131428703756 5.922440943929577 -0.22247755654606843 -0.06475194756540462 -0.4182467505630152
Ni 0.7463622103535342 7.285545072057895 11.291206220595793 -0.07294116824441632 0.5447738224536876 -0.08805102730266126
P 0.21820462194931145 5.639609648996048 7.970863735151486 0.05078622941393189 -0.585041925945115 0.31011155091596915
P 8.512801607779434 1.72018814891426 7.888922218682402 -0.8917503647168061 -0.7117510319396064 1.7555374114514668
P 1.8340405297967346 3.1797632603981176 10.387360058510968 -0.02075420182821587 0.0680766410632634 -0.3968595431364907
P 4.105404072502098 6.099947769154717 3.6931404551897122 -1.408138179828633 0.09388820280972864 0.38830342603636353
P 7.0189781459993075 3.8693260927419213 10.1588314656307 -1.0816271045087178 0.15846300136732064 1.1313373272496516
P 6.058837157493938 7.589382261674187 10.120394707578924 0.7605575119193482 0.33288715404958796 0.037366099353284034
P 2.5015505903636344 8.44104016160981 5.813290516181265 -0.6495316209880685 0.14628368569230937 -0.6383100412406362
P 6.909595678482706 3.9610267701633375 1.4900487683401724 -0.36599036436146 -0.17278044643125728 0.8282564579282187
Ni 5.3468438142155525 2.8712582940476445 0.298210674924762 -0.2317795506732847 -0.16840185774758737 0.47413970507589304
Ni 1.4451130980184164 1.077527928648986 7.022341823260548 0.008740208086475269 0.041463152240793104 -0.5498957170612853
Ni 6.8379421577867046 0.5919235557362983 9.141662656863097 -0.33236650565942755 0.48751998303754107 -0.6296053143777866
Ni 2.6705259068989005 1.4974389651464863 9.082362106002162 0.3677541411301021 0.2035879187304171 0.4711554256365886
Ni 6.267178290533082 1.8968801368135488 2.559265536141264 0.48168306464078975 0.3537187460829586 0.04049436056962058
Ni 4.015978823816226 6.673922419248615 10.269917356872645 0.37802672670070375 1.1094451551622508 0.6106681111536515
Ni 8.206913834164311 7.082078572910709 0.4584512231281646 -0.406595539477332 0.47383554357191304 0.12205618060351237
Ni 7.539457736334223 3.9161207793468282 8.056886633281401 1.2110659507295465 -0.5455934901415056 -0.1142575104947
Ni 3.0466911514213346 8.300665095584558 12.203779955980904 0.7254262154338539 -0.5330110254908046 1.085030216652996
Ni 0.14905137472556967 4.84642936818499 10.274339603154335 -0.42426673150485 -0.48300461166569075 -0.6984509723965906
Ni 8.515526725988407 2.3599523689706587 5.83877531801937 0.8034561110550873 1.3209988657069638 -0.3980394223772048
Ni 3.6403262252935 2.8801441580425795 11.599741765830458 -0.30644567202860773 -1.2702928547116639 -0.8140521414033788
Ni 0.924057905157514 3.3430634957787237 12.593993499653225 0.3780899758384714 0.04553629386890222 -0.2826596253526035
Ni 3.0210948265938193 8.230090829624784 7.905245047188887 0.5122084869231567 0.059717213354974576 0.7023410514796161
Ni 5.486526358451725 7.820144911858446 3.557097697551465 -0.01439432104845908 0.5862606288435646 0.4125101051895541
Ni 2.8197238803928073 8.270383006443923 3.58670165496617 1.5555089279375338 0.46277440066174497 -0.5433882549600707
Ni 3.3969452884848543 4.301999316495305 9.111966063416867 -0.029306205163285012 -0.5295930009481912 0.6091413900964799
Ni 7.370545376325236 6.332689053022059 11.41915366833339 -0.2041599891838032 -1.1241986593223412 -0.3467888517323447
Ni 0.5786073510491515 9.105942023230828 0.331689156842522 -0.7409327957098852 0.050274579884835996 -0.394856653773849
Ni 4.592687585908565 0.3789659105629435 1.445951319196886 -0.4813513923329839 -0.6330408224218969 0.495275972833876
Ni 6.089856737370995 5.676924881501096 0.3516121992732715 -1.0087520136155466 0.4297982028460405 0.3261084405648577
Ni 7.783090499247987 8.788767043832664 11.140143834545054 0.5741257932532434 0.2450793531059844 0.9060451840729234
Ni 0.31753652973479934 4.851465890287383 5.804445124238938 -0.6224226805864184 -0.17159953874927866 0.1980266225925557
Ni 7.803902128078231 8.752477103327033 2.5869870934202 -0.05142951942488562 0.46432888963305835 0.3133616824221507
P 8.559758182594774 1.5965954940373375 3.6654710618896944 -0.8948462300333105 0.6111069984632831 -0.9227416708919979
P 1.7926601044518997 3.2038846037527904 1.701530532661737 -0.46859409266731555 0.23967566559190978 -0.7714402202701229
P 4.64441986293171 1.0161812906839527 8.117161211541784 0.24671431760624607 -0.8816790965237332 0.26564200774868446
P 8.37492681522644 1.6280108006510101 12.313587829739367 0.5553276867101339 0.06388137203499321 0.24559383084855765
P 6.208071106145721 7.731043439593442 1.4606282842306257 0.5247133042583866 -0.5253725351089402 -0.8423070224840139
P 1.8275110386425617 3.1117792058052887 5.901629315099334 -0.5770637928356448 1.1104268023492294 0.9684602559750353
P 6.85369028314615 3.988592734884468 5.903143869245839 0.8589970815451852 -0.43318794525387977 0.03245606364617636
P 2.3121413841558045 8.329049495147327 10.175496058136991 0.7615319600174756 0.28849860063188376 -0.5671555325829973
