# total energy = -381173.0669963889 ev
CRYSTAL
PRIMVEC
9.19286132277921 0.00000000000000 0.00000000000000
0.00000000000000 9.19286132277921 0.00000000000000
0.00000000000000 0.00000000000000 13.45468177454472
PRIMCOORD
 96 1
Ni 5.691980623154433 8.955244096178356 10.584879143243816 -2.4011666120613357 0.9450629600970176 1.4543303621139791
Ni 0.47327055598827755 3.7432319476619345 12.971833125071084 2.951279844450066 2.105790567583328 0.08776512063112626
Ni 5.616203868515734 7.428778691471164 1.384635184691148 -2.0079037851371675 -0.9195288203816551 0.21970924977231196
Ni 2.5121331724029305 3.553702728884055 11.522266004065546 1.6799883732705583 1.0260249417633815 2.0809303140065385
Ni 2.041991866357515 1.7717401336305367 13.529623765958508 0.19668476385268063 -1.0326529886028604 -0.8180088120582815
Ni 4.134737519244237 1.9654245256580454 12.262946779392614 0.10427854490511719 -1.7231178574701809 -0.020784283735202913
Ni 3.5000256125022315 6.195436858086254 7.069735870544647 0.2747257152175075 -0.6429380269309508 -0.2927463201646442
Ni 6.4564038010297695 6.908205349037552 10.106820025871173 0.22083590717758741 -0.9110254108963342 -0.3894110572782455
Ni 2.5765935149392103 2.614311824326883 2.9720584518281847 -1.5291474072248699 -1.7924576815165838 0.8544896805931348
Ni 2.448169244369924 5.147156512949755 3.0953034644133095 -1.148065952858242 1.2347846345027251 -0.8369473008339974
Ni 2.2437751690773315 8.657634408604263 8.01950183822025 -0.3721836376563655 -0.3640833771467343 -0.23582158195314223
Ni 5.4921921713088855 6.147064022600529 3.4698279828391643 0.4918985717212109 0.04026141862320808 -0.6997776616278143
Ni 1.265976490544607 6.477878324726968 7.885115997181087 -0.726812040037787 -0.31341670402980215 0.4981329826666969
Ni 6.593083260931284 1.7905763061714435 11.605860367844695 -0.17930770602681378 0.5361734823791863 -0.1785793125012215
Ni 5.981785571593715 3.5666646631362156 4.833379340432914 1.0736309736771188 1.4487446404960855 0.03890619014689429
Ni 0.636524738965074 0.2819091999788689 9.590214322319287 1.5428714416791816 0.8577593524833421 1.2902525856630425
Ni 3.7751035973443763 0.6849904223486342 1.621423983466855 -0.012160289511617767 0.1592387031910806 0.7440425449834605
Ni 2.6075918428103373 3.325922014770541 7.575792765901955 0.001986434302409482 0.9460566914688547 -1.053820623819411
Ni 4.876307244246615 5.2973035144678775 8.589831541745935 3.173105112124116 1.3815951392327819 0.5578792494873941
Ni 6.615789628025496 0.7295206418645701 7.557696618685374 -0.9308943819061194 -1.5447167224180365 1.5096296489069163
Ni 9.231011545608382 1.9438856519326455 1.1437316612549677 -1.5319077435788262 -0.04178762545974739 -0.1113015131901696
Ni 3.5050908790078634 0.10510014320433352 4.128595768695394 0.6329235801177422 0.8042212713558858 -0.9225151567034887
Ni 7.069668762658093 8.362911279438098 5.448204330602082 -0.2902369234792292 0.18321578283196832 0.36174830125565444
Ni 4.069385469174298 3.239757327007769 9.562712958837892 1.1583513939446501 -0.5810479742943735 1.4267064297491234
P 7.285544721554195 6.222767234349854 4.776479206924277 1.1940552751041629 -0.7239894829873272 -1.3090272951673843
Ni 8.542438665261118 0.07398230813797455 2.257238114263353 -0.0816986027220722 -0.6368763941179032 0.5195021923710925
P 2.2901531536887885 1.4248015530088562 11.243108227435378 -0.891966080272038 -0.9618815743162531 -0.06582898267966728
Ni 2.448132472925237 7.610742185504698 5.879736539012282 -2.0445869994908143 1.3782611897635424 -1.6314096930309068
P 7.074605329107321 1.0503119674554542 0.5587733577466838 0.4135778843324361 -0.3080168731704695 -0.5341541379563123
P 5.312526892568289 1.9720341928405305 3.348655041162151 -0.05078262986950609 -0.7092943428689977 -0.48005375656748295
P 1.7909715992018285 5.468419432318751 0.5478016779382053 -0.30858380141753305 1.4808476916782174 -0.53400552819359
Ni 7.658048649094501 9.071671682918515 9.590940558351855 -0.4038768549945883 0.4291762529913254 -0.2620177807325358
Ni 8.136619808834407 6.3551168566394765 6.685240774891916 -0.0385799171557271 -1.273994471932967 0.1500549798092835
Ni 4.938377442878242 6.947780616381918 12.147909153261622 0.8791339615043762 0.1747159728910733 0.3559725751141418
Ni 0.055793313023558624 4.190124507804005 7.265313072687418 1.218482812018908 -1.2508887391534393 1.421230751346533
Ni 3.9105604067100486 5.037743079283639 4.685700622139406 -0.6465727954700605 -0.11724487525779809 2.4015288804967607
Ni 6.169742811111226 -0.3210303399813496 3.1035512994565995 -1.2551976509414384 1.9391861680557958 0.47184011040843893
Ni 3.109145155479607 7.97717882467165 0.37168116646543375 -0.2638646041332875 0.035814181485131866 -1.0245013060300034
Ni 3.010671226607868 8.486086426278316 11.350114050760617 1.8334541785336036 2.1567328629591502 1.3144078427530073
Ni 8.737961629522976 8.226434062482362 7.768342758860871 0.7693650829086491 1.1583693916667792 -0.933837266584527
Ni 0.8667167405639363 8.828676783565761 0.2321712246091391 -0.8068995895189974 0.45482634945926187 -0.3641329994377471
Ni 7.848350068210807 2.1368805793722734 6.5354504563872595 1.2377982245180683 1.3149256629296902 -0.4908917277232513
Ni 8.497255752601989 2.3826333370765496 9.13885035450328 -1.3855356119377686 0.6396009921379178 0.7116451024893614
Ni 6.28514999026132 7.426048411703157 7.830759528358672 0.9638160723348047 0.37818690642765196 -0.5738460572292956
Ni 0.9756107775738492 0.9574640696208233 4.199528804782701 0.30455488276379805 -0.34773218948222046 -1.0611359265339015
Ni 6.6290273481128095 4.304474507919349 7.776872814742133 2.123512924563756 -1.823921299342504 -1.047119043429519
Ni 3.6031695148492178 0.7376701132933225 9.411441670398467 -0.057058178465572706 1.2323503140296197 0.7107477874860727
Ni 7.639810012529757 1.6359248026791666 3.986460345688449 0.6042161848807207 0.410416455885319 -0.33117917021954574
Ni 4.003766826130377 5.837117515333953 0.8497237366879645 -0.24461244077189487 -0.5393235979723937 -0.010662364809852604
Ni 5.068263378373835 3.9637319157274247 12.435462769999944 0.44993354014333475 1.3761521138403399 0.6170778713347372
Ni 6.5541974581748 4.492486904603891 10.316887935078968 -0.7064087937910867 -1.383824799894249 0.2015264082156981
Ni 5.185224151061955 -0.030580971973929033 13.175469708603124 0.9331757217411284 0.6574215652591066 -0.11763388316610063
Ni 7.605033418717044 7.135811398788802 2.8463111424321106 0.8145771606689132 -0.691299448953474 -0.22766784249775632
Ni 7.474035147019668 7.914226111367536 0.5275783026464821 2.0998011827691125 0.32947015794823903 -0.8272542419159495
Ni 3.8855558243229003 2.628330937613795 5.265247088275884 -0.8930246034435394 0.46615848664262943 -1.5625264969059476
Ni 5.7450877821436075 1.350504849018808 5.412145332655911 0.058221088425422306 -2.1322297356114635 0.3264992482453732
P 0.13912751883155 3.1399596261272986 3.5147930246885237 0.4619660458278366 -1.6530699516131595 0.10944851914183086
Ni 0.9505142665749836 7.026517472317919 2.317932141577569 0.008712697282649512 -0.0028428687654338133 -1.4680379415080589
P 8.9080847183673 0.3377374458748801 5.876480427585251 0.08665620383766366 0.1245277820724565 0.6554418158249163
Ni 8.485323418801062 3.9705897901615472 5.208980342901979 -1.65806946171028 0.17126915199305343 0.2731876813064263
P 8.711716010877641 7.264584998082616 10.363737513468534 -0.10331386699900272 -0.1961666865656815 0.33803681657132745
P 4.188129656929736 7.28166533413972 4.7153273751237075 -0.0043590482996441055 0.20450117457330588 0.8066836168534494
P 6.061892163844306 5.150254507164634 0.6465486347867454 1.0783376351241687 -0.1988331776542511 0.41978735557725766
Ni 7.421599066896031 6.088422761185964 12.08519637363409 -1.2178958291671864 -1.0146020446384205 0.7001558709028393
Ni 1.0084292919569813 3.913446965117976 1.784413412041905 -1.3672794939410582 0.43354121482824043 0.18509474502223608
Ni 9.158498256685652 1.7725307196913067 11.968652037557051 0.7142354889243571 -1.089737392320678 -0.8999876650249339
Ni 2.8071045088207325 0.8792723503523066 6.125149160853205 -3.0621036466728686 1.5501448354121432 0.8742480941669847
Ni 3.401753926576271 7.452974302075199 2.6164243438241503 0.10361005808318285 -0.4812112672106938 0.5415198342927642
Ni -0.11505233470886533 5.417693224373059 3.5579286871647056 0.075191911951806 -0.121599552682068 -0.6701459548043104
Ni 4.568401552160166 2.097093876220958 7.566025350906975 0.9884598390254138 -2.5731703282275684 0.6950481173626287
Ni 3.074129547276428 3.631869627427408 0.7770265905418 0.8829970440042082 0.15929398190904825 -1.1034238886688352
Ni 1.0028124537810446 5.71012733110746 5.724576670297209 1.000714745133367 -0.669843078851911 -0.9992566725306018
Ni 5.340399647641021 2.4999066670445087 1.0804516820931396 1.014814931980175 -0.6741211374019744 -0.6262482249800956
Ni 4.409668418307634 7.842935472980649 8.921315084165677 -1.3498705544359912 -1.2087938668659182 0.612616493129274
Ni 7.512056820826008 3.3801047385168097 13.116202413342764 -2.9571388743340044 -0.18986362716578917 2.5268393063715124
Ni 7.849094689965718 9.002955045659716 11.977155434140917 0.14696168559594044 -1.0821549519877298 0.19268387022340366
Ni 0.22465973774570575 6.93431307476531 12.50402772504941 1.7813978241579964 -0.29244447265350926 -0.12228449456423457
Ni 1.077899743831863 4.9781365674460405 10.58154213463847 -2.0630004690009955 0.8213962404732758 0.02985796390169696
Ni 1.6100193198971873 2.8678601283047995 5.41224001912598 -1.4821712955856472 1.1302332955521952 -0.10251811057058473
Ni 1.7048436828837437 7.373033181325699 10.11502741232531 -1.4136035738185784 -1.4589156674918164 -1.2151365212544942
Ni 8.338890333196327 5.309824191383795 9.019062777004848 0.593339647177533 1.4529039140800977 1.0376679253189485
Ni 1.6460093713845714 2.824212423461351 9.625344841287113 -0.9464318154200861 -0.9495896443227775 -0.7898184656669945
Ni 2.89566853334933 5.231767607174502 9.082663587021571 -3.7216908521247256 0.19335389970723474 2.1104753746535074
Ni 4.372336209089175 8.827003682832505 6.683626508470158 2.8405594005743464 -2.0642202003407095 0.5171560607364191
Ni 1.0003671527093603 1.5933158911481256 7.647600962372811 -0.7087412985790051 -0.4603562781385555 -1.37425335415573
Ni 4.33218179149099 3.8383045179001276 2.7104323807386557 2.47716353641294 1.114596617456203 0.3346334473167334
Ni 6.9197607755304364 4.212490739034862 2.623474349056762 0.15031697522141854 -0.08785073836639708 -0.4115091747288655
Ni 5.703536049647317 5.859685989510589 6.189705109145671 0.06675715092089149 0.6276710734695513 -0.5459449599436532
P 5.906468460013603 1.6706094678801628 9.522429841183303 -0.3991678795546932 0.14719539887330135 -0.8930662553147524
Ni 0.253435231785504 7.8137665244827 4.572950179867946 -0.33186282655013166 -0.40773170996430425 0.29074677323611214
P 8.351052488526546 3.7390400029676183 11.291868082376435 0.56768466561359 0.5470381930078322 -3.020308822124269
Ni 8.272260475423513 5.362894578928283 0.939657497531152 0.22476635258024513 0.9050699646438478 0.06541709195322927
P 1.7234132624506697 9.037547782248994 2.172971752332547 0.7619950156968232 0.9888753292962777 0.8762751518993426
P 4.49048286086845 5.3042625103748895 10.832095404446632 -0.5699744900890312 0.010039643624189163 -0.9879301917741888
P 4.723347227209938 3.9216378044220015 6.733166837324696 -0.2699354929177158 2.586711557247113 -0.7739776419799961
Ni 2.69565945283566 6.224706928057092 12.009783656297794 -0.5912297999233818 -1.2054953986203045 0.43287067112377703
