# total energy = -381164.7498492915 ev
CRYSTAL
PRIMVEC
9.26888245378663 0.00000000000000 0.00000000000000
0.00000000000000 9.26888245378663 0.00000000000000
0.00000000000000 0.00000000000000 13.56594638410851
PRIMCOORD
 96 1
Ni 2.0154442920997697 6.296008757206821 3.5640177664192674 0.6146965155867543 -0.3962494203563176 -0.7362909260624997
Ni 5.925336887534164 4.9355407597370595 1.2009347770140375 -0.4532934577545032 0.080260584723965 -0.45204415872843434
Ni 5.717278287885691 8.075550727408194 8.607186006066257 0.6485823697009218 0.9185371458923471 -1.1093248275343026
Ni 1.1899020264833842 1.9805840259939242 0.8234030075953195 -0.2658600372967615 0.20117956639924064 -2.215023371169927
Ni 1.4519055207705238 8.235281375055639 4.995130403660081 0.1957843635255983 -0.3601390477870055 -0.5036893937085519
Ni 2.4191968024881305 7.197055337552858 13.109112697501317 -0.5471713761515867 0.6698613336843561 1.5895930141054364
Ni 4.511637699358242 6.019638495447185 12.784967836010395 -0.834857251074188 0.9766101387756794 -1.302568684026234
Ni 1.068868962189279 8.921011820959029 0.539450800163101 -2.290673453705074 -1.7044344221280647 2.96919631971917
Ni 7.5603677147267 0.2167639338485832 9.513486188866107 0.4594437936266152 -0.4477887258861901 0.7611552934043472
Ni 4.1475003916650115 1.684637884942731 10.897971713996988 0.04356271508229917 1.2040450393270232 1.343143520124803
Ni 6.624942850151316 5.608415265973126 12.598300889684358 2.1570131132037305 0.6665816344918197 0.614965967198057
Ni 0.06696582040986752 0.7360715991270198 8.452249224313508 1.753784690426418 -1.1727338879185676 0.3535112580578428
Ni 0.8608761716047112 4.238353975384633 6.76418463360653 -0.002930800493549791 -0.872778965820626 0.5029998238406951
Ni 0.3194650028477824 7.823983994523656 2.7171913665144345 -0.4727698213115599 -0.47292742993534675 0.4551878465637386
Ni 8.763292520757735 1.213982582543737 4.459750496576929 0.15297086790449785 -0.6729338019620926 -0.6291165476668261
Ni 2.2332537558650607 0.8698642067131499 10.137167029499897 -2.245666807087397 0.4235254824634513 -1.3664546840469176
Ni 2.100625319888315 3.680497028868704 9.437381250567283 -0.7004883145415937 0.24852360290084297 0.15059516858346966
Ni 1.7318813777216444 6.103549686368806 8.296905538630408 0.3620303512724474 -0.9229049359427396 0.6621583086131435
Ni 6.309485711984248 3.7952457910038713 3.058890564080298 -0.31672468535711257 0.5190687043780996 1.6293777502025422
Ni 7.576523376471579 4.09192417375205 7.095207005719769 -1.5633093978185593 -2.314352799599885 -0.5278737042642393
Ni 6.258553204073687 0.2708793759204704 1.5136344227146101 -2.448738448303028 0.1414350993507564 0.986926690210339
Ni 6.250813687403019 8.56940604205471 4.215725853171339 -0.2229442117698419 -0.9654320106716728 -0.5832658078812987
Ni 6.199482617556124 5.907716742395316 4.067097472671351 -0.14943225862362008 0.9701363581258776 0.18280054967142068
Ni 2.1532447643666144 9.30104526169441 2.840288610883459 -0.6005263947339593 0.18460597831127562 0.2672533180998623
P 8.127836492125843 4.493479959049455 0.7230404775853532 1.2813375425615998 2.9522409228117543 -0.5877305285208717
Ni 0.48640127954885065 6.338543657807653 11.397917611163619 -0.6530144373303463 0.6351864080099899 -1.8228108398871445
P 6.280233119633796 5.629789308419306 8.45523380439489 -0.7214386915410156 -0.32254900534837355 -0.5480653487207657
Ni 6.167458629415817 1.5147485423598968 3.7947480520275656 1.2738710589812254 0.27708187415450986 0.12870402493733318
P 7.970534291625364 7.994522158863313 1.2197209475387192 -0.6213549014435363 0.307991933469805 -0.4248400875098167
P 3.714578708866362 4.30853795170834 4.969368472361334 -0.3741353620660976 0.16556824495353423 0.3103709752249429
P 3.4197819092129684 2.3973963914588965 -0.10687113911911936 -2.6466704542992483 -2.7565437196833233 2.184127452922019
Ni 0.6984334490137503 7.811165130385293 9.515575394923076 0.4105750929503703 0.7592138534072602 -0.3414227023244249
Ni 5.665576462749183 8.009268950507662 12.786229330883303 1.5495018025115055 0.03620884582038925 2.2084439181801963
Ni 7.890775559947406 4.24549101470968 4.569268828463883 0.4234074688283482 -0.012016564844901885 1.9368485210615545
Ni 5.0789952501705 9.323290579071179 6.150989679451215 0.4063705679507195 -1.0148684109259296 0.9601149693341334
Ni 3.7897400749531207 8.468504989986583 11.763221871130906 0.5579648672226648 0.5014386500011623 -1.2261513843077594
Ni 8.266220903973828 0.639689127151047 2.1927181531634674 2.32904228329126 0.4491835493511877 0.3006208378167145
Ni 1.8130489795001312 5.111621715656429 12.451666245754263 0.1525494640963631 -1.1592443380725648 0.43096188413683845
Ni 6.050772670892422 9.320324536754276 11.02055360851345 -0.9538849292640219 -0.08336673445311449 1.7010338810869476
Ni 0.1193915452493443 5.974480501172344 5.35818232524297 0.2783725679414754 0.11499104622661487 -0.5868851498014409
Ni 8.08927794200611 7.7590276677834895 11.901011220739063 -0.6546170059307758 0.07840116291772305 -0.5768987280126904
Ni 8.583086912241424 5.4880680989648045 2.563366850630523 -1.1994602481698182 0.9893360709827801 1.6944911948724235
Ni 5.03876830124751 2.3676062039385064 6.315937780911735 1.646917044637886 1.3193921833414761 0.4562995915706786
Ni 8.347555345632639 4.34789362570074 11.624007894322412 0.5056987108290968 -0.2724616017736791 -0.21169460699795156
Ni 3.8263428909201465 0.21182454650271643 0.8774415179446119 -1.4109221703316732 -1.12005661212951 -0.4447499390598663
Ni 5.284273185146878 4.842082620107909 6.41210706859618 0.3030150490805039 0.5797583089486725 -0.16857489299034192
Ni 4.107162216155136 7.368715036643594 4.861030996071796 0.5480468367780045 -2.9977481632149336 1.6108665787722323
Ni 0.24844960778711883 1.8243199403043608 6.623952933528049 -0.5405250744796627 1.5989158341682594 -1.0659685720358545
Ni 3.871380389725864 4.116477442806659 2.7573599214793116 -0.41533574756380726 1.7675588613923754 1.2774124964755806
Ni 7.031235034273524 1.0020217834720877 7.322911001276601 0.14747950577262345 -0.3696629281170408 0.24219560380028612
Ni 4.007456849896009 2.1042216461975594 4.33284096094246 -0.045081722829986876 0.9612287712236025 -1.055820427858259
Ni 0.12590849635251364 2.481279775733797 10.328134737185444 1.1419307864947819 -0.4423179325796059 -0.5957006912105418
Ni 4.837438910105507 3.5513722303787985 12.841361569336954 4.098886341173387 1.6932210699107482 -1.0412558997805228
Ni 8.535991721578355 5.922380114099503 7.551931178111561 1.6673637425280123 1.954142789365628 0.723834702577018
Ni 5.835808753974909 7.2998472415980125 1.4582037262528216 0.7787930610907685 -1.454803959316288 -0.27033864189340534
Ni 7.509110795937729 0.2965634486083985 13.139066017349135 1.2882129295251943 1.1461990748528326 0.02530196909989836
P 0.9414589069138335 2.113230999735151 2.8400040561986812 1.4085017338156387 -0.9559533817572761 2.762857577716493
Ni 7.45741823968346 2.7047154510189633 9.258567828163468 -1.1138296573831912 0.43789666358345875 -0.710956561062769
P 3.4523805680521757 6.432650619193627 1.545120815684979 0.2343002602126094 1.8359928857950574 1.4363290404405522
Ni 4.263787788252072 8.160824444019143 2.7884255071959694 -0.4416034230110846 0.18164818123453233 -0.5622015310118318
P -0.03039637241890704 4.673778256388169 9.5603431692556 0.278757719195036 0.42683397801139394 -0.051714397655156105
P 1.9483746602088106 1.9972772829087415 8.046234179770284 -1.77397864887579 0.808324494890982 -0.1076942554548855
P 0.24955538543838907 0.04781352903669329 11.043330959730815 -0.14581265959316178 0.7040063549971811 0.1644423588792071
Ni 1.1118858446666064 4.2622769604469 1.898730526929654 1.2767324396894204 0.06218290128664774 -1.1999302458277012
Ni 3.6080792519250795 8.49561647053952 9.347981027582943 -0.6164500079427512 -1.7740673519348544 -0.07442623743037505
Ni 8.398849339950573 3.0203950423597985 2.6198013670389386 -0.6161083083326163 0.4712086474720272 -0.31774695597403985
Ni 5.310300206477699 1.2422619422589547 13.174433291313527 0.4884435232930749 -0.11836433357422195 -1.4941986590638265
Ni 6.4496404803401335 2.4852561262148947 11.520987975774148 1.524323503473665 -0.3511625553200081 -0.4311958545245155
Ni 1.9166843518291548 1.4079617500691644 5.040549780414099 -0.7767575187179784 0.1334785635078411 -0.4096988609930041
Ni 7.245281331849245 2.7673360194345684 0.6059133202673191 -1.285400913997696 -2.976645062687732 -1.5820378274659979
Ni 1.0498862913611027 4.059103061739075 4.236007094401384 0.7729571711352817 -0.7836892128408051 0.4731462308143722
Ni 5.015197533710374 3.5297108525831695 8.62733099472737 1.9284255871051819 -1.5768349431088198 0.9355102834115759
Ni 3.679069621003694 4.344074846217729 11.041893356095342 0.5371471591463652 0.8315071036550324 0.2283036763095423
Ni 3.24167106808297 3.8269824437947286 7.354506767057406 -1.4225381573040468 0.12685925841911055 -1.6931408514921162
Ni 6.510917060830893 7.2400444133834645 6.460673230870788 0.09818760151603091 -0.3697668006847567 -0.13907225554553468
Ni 2.0868981052904 2.9855440451361934 11.926393127865955 -0.7475798687127577 -2.067969897191129 -0.3724080949623457
Ni 3.047191380916565 2.023202346534918 2.1357682869024903 -0.18041019506237316 0.7264358876452909 0.09971740789699601
Ni 3.829892872818189 1.205798159525534 7.977983692281909 0.6742247528593743 -0.6261548939353411 -0.44906990659145885
Ni 3.360303491876832 4.716415114693643 0.49474327356513914 -1.6986748939364682 -2.4591367608182164 1.7690164197745082
Ni 8.320508747255385 7.8987282609096 4.891785147345178 0.09639554261261463 0.8267199666790342 -0.07280464266655204
Ni 4.096725454752536 5.548158262528803 9.188934423444836 -0.42589706801942134 1.7691115505914756 -0.29227735094802565
Ni 2.0362343949648083 0.37827976821551207 12.453443090479732 0.16574539396134683 2.179983091736342 -1.5182641846534626
Ni 7.72058034425064 6.922752036532813 9.448274040976107 0.14429056652168054 -0.001889246602912875 1.320667964730106
Ni 0.07006440774280667 6.523800807144938 0.5924076319549482 0.8834094489512786 -0.7249598173203966 -1.699488905197331
Ni 4.046302735365193 6.906800290197222 7.221044131679032 1.1183550560573707 1.0183715389831816 1.076722725228565
Ni 9.158295206311234 2.2962543484525195 12.528653581642365 -1.3514330138271047 -1.0266124388357352 0.767125394944853
Ni 2.4674320656667583 5.962699751844896 6.0825362034417765 -0.8278229699352259 -1.0560459136055038 -2.054439466804862
Ni 6.138725094470824 4.654953156558078 10.60227490587806 -0.39249021042420146 -0.2063066032131608 -1.0851752268712924
P 5.425697790369688 1.1400447089127002 9.362470144301014 1.7791087710135038 0.719564100226122 -1.3958624477850734
Ni 2.004553355467393 8.306012215431522 7.23706632151965 -0.3409467911292709 0.4865879581415749 0.9367816939248317
P 2.8936430777234157 6.655817496893824 10.964676151927678 -0.033578093065761525 -0.7602014141315101 -0.8230823699264471
Ni 5.212902791896411 2.503886579517939 1.7284639408396383 -0.2234790012273893 -1.182518735219473 -1.2840402862047435
P 8.557171117497488 8.208271852207345 7.077991910734821 0.30860848400788143 0.10925594351505054 0.2766617558979558
P 7.324391241770382 2.2827217803816513 5.6273988636895265 -0.6047502030073199 0.9457378746768551 -0.19418205203548494
P 3.616921765582345 0.005309215747255581 4.700803536336271 -1.9253330642227873 1.7324257651346682 -1.2616320937128722
Ni 5.634006649838651 7.015274019055692 10.650610272984881 -0.5984180901417049 -0.6991683101785894 0.7635253362984206
