# total energy = -340868.3024844388 ev
CRYSTAL
PRIMVEC
9.29140065273807 0.00000000000000 0.00000000000000
0.00000000000000 9.29140065273807 0.00000000000000
0.00000000000000 0.00000000000000 13.59890404444901
PRIMCOORD
 96 1
Ni 6.032953027120268 5.488216778248001 8.683716286772508 -2.0462433041473145 2.0132519368229587 -0.30568822503729287
Ni -0.007780619069482773 6.71134607718015 12.2725626044647 -1.256608415246036 -0.07056521181307203 0.5257224622491914
Ni 4.752672321576716 1.6981893328509272 0.6340749262986946 1.2182388143289018 -0.0440738503907628 -0.26858540664772457
Ni 5.583713796155983 8.009456980949565 7.850647428528372 0.7463593660420952 0.6043097730357915 0.7766873276016752
Ni 2.1515818199939303 3.76778383176877 11.409765909209803 -0.9036219193434115 1.202436814299639 -0.38636481425275393
Ni 5.923937020979545 4.0845091038496495 2.391571270757585 0.6407736722897803 -2.064778901057657 0.8465087192701872
Ni 0.33688668277931627 6.42965867769423 1.2488023686131713 2.9952577926929123 -0.2096094423341487 -0.56266587224276
Ni 4.64956564637484 0.48241510682945693 5.380501568225893 0.3918299511323832 -1.3742039889750333 0.20157628761702703
Ni 8.439109938927858 4.359497403324705 11.233510822557825 0.5690357803248458 1.1680773629831627 0.0921470517489058
Ni 6.733050789559314 7.4516663138869195 13.158748543072363 0.6309803403484424 -0.7828818864481613 -0.12357930211625814
Ni 7.44829353537937 0.21309084531088107 8.65133761310003 0.52107699305738 0.09713010678579401 -0.6577342114035188
Ni 0.06566790462798716 0.48732654131731057 7.482484032217061 0.9178357489499483 -0.3464206697596486 -0.10923331780723122
Ni 2.3979061478552364 1.8776248660129184 9.102250225356903 -0.3060666914226342 0.10843319050343905 -0.23246552099671577
Ni 3.269616083942894 4.9955681225253885 0.09528703224883404 -0.4646536199623288 0.55033306170902 1.1120805359025687
Ni 0.965683164256691 3.037154526145677 2.4784412229789 -0.15169765761902906 -0.19548380156604397 1.0721127372603796
Ni 2.8311827521639548 6.789319513090228 4.368566739691702 -0.2885222547809676 1.1170273383848826 0.597082659159733
Ni 8.100744994273745 2.4264028742537365 7.611633574853679 -1.2605805125199063 0.14914635195208506 0.198773013840277
Ni 1.6379531811582393 1.066689982867089 4.131238346130697 -0.6886411853950204 0.7728772098269657 0.5100924690214184
Ni 7.751434779421577 6.837783459909457 7.394363457441707 0.4586033000031909 0.48616809699533686 0.05136472762522121
Ni 1.1291189051597266 8.864934839757085 0.8026153628272064 0.3741507886850653 0.13255425192135883 -0.5876554523085621
Ni 8.724523190153523 2.6425022751589555 4.816337929322122 3.6620859959778995 0.40117899644745103 0.09389385923668346
Ni 3.3506463907317157 9.080049352172496 8.296066035464271 0.5291037200165984 0.5922286735015413 1.4511661054533846
Ni 2.3275423692390516 0.021425970353746448 6.366000503069502 -0.9005458515212491 -0.4977401181036524 -1.9355665690253374
Ni 8.975521092640992 0.948373284478274 2.3179471395841023 -0.9091981278796084 0.46061184579278736 0.23545365709076221
P 4.387975546921512 5.535342763345226 10.011268852406586 -1.476440306639141 1.3309464638379787 0.5042048998923897
P 0.6791633071901193 1.943510189420731 0.3497162490691918 0.36049257447168237 0.29850687679750526 0.6348272248983583
P 6.643082155155443 3.268900646077656 9.329786411564996 -0.13045905995522694 1.1137090726449272 -0.23012735978184237
P 8.738488165626931 8.918601971050771 13.063678929603356 -0.28623834384279734 -1.0991265468450617 1.517023370267826
P 3.1781050769983805 8.96750261370982 3.7482793231102334 0.05534530953952404 -0.1585221367400302 -0.5158036604735826
P 6.807279790927953 1.4229687483546898 1.5158836859672222 -0.31259343679755847 -0.5026668659813085 0.10504833319160618
P 1.2896743118001164 8.196985324249505 8.136211200447763 0.8504167960753418 -1.4324708430367266 0.07394492691858233
P 6.1913807029666375 1.182999738672899 6.873089853988903 0.05464596947965428 0.5816676101562435 -0.24974976199846022
Ni 0.8175113366655092 5.801494940614553 3.682528725014706 -3.2260271569341277 0.5326392439736828 1.9015501028705764
Ni 7.889458539007399 7.013418810124925 9.73761758551345 -0.42470253349068793 -0.9534408997480677 -0.024633996498596284
Ni 7.484632204092944 8.857343765264886 6.058039809407828 -1.1078839813227177 1.0979878052549286 0.8235112299337495
Ni 0.5249641478693297 3.6357901913328106 9.285698714544818 0.0980122522804312 -1.0635455644166587 0.6366012860796456
Ni 6.983695618814589 1.8177975359575094 10.749036741300618 -0.1252060390864037 -1.129454508404642 -0.07973505123779817
Ni 3.426120439813885 6.7711455330330175 8.229309178656985 -0.8613822939479101 -1.646158826315623 0.5772692239782315
Ni 6.248838725806 6.839753236889073 5.621487986300456 0.5707093113725268 1.4543213632529146 1.339161138438287
Ni 6.847492973794829 3.099825024860343 12.697337576998189 -0.6092630032760087 0.33539320830089336 1.047452515509538
Ni 1.1363476150188832 7.8108439964388605 10.37328505791736 0.39412774602762446 -0.15144388973701015 -0.9560832224669211
Ni 7.59933454755218 6.704061618915911 3.803953396986924 0.9832484700278032 -0.10021363080712418 -0.025929318271252114
Ni 7.70009978974055 5.5368108046790905 1.7732424814747163 0.2097886482244903 -1.0057893314427968 0.1946224820070132
Ni 0.665455703520179 6.065203479461054 8.305123293010164 0.8075385086545769 0.43254285547071314 0.7526822229363295
Ni 0.9948860371195813 4.2810779801739605 0.34490330343031905 -0.1250402029325008 -0.3449985926011413 -1.1840788806177414
Ni 5.0857597505495935 3.566987368058963 7.816024881551284 -1.0251196563402927 -0.19985133450612033 -1.054617922909726
Ni 8.240757113640877 3.2402645486664476 1.2669122380045361 -1.1149172340204154 -1.419759051897013 -2.1614796336155164
Ni 4.806766857309375 -0.056656174946244454 12.266007521166967 -0.841281666543293 -0.7197402207926702 -0.6555413175172581
Ni 5.0099976680411595 1.1857221191211418 3.1213290429812064 -0.4530204065987747 0.8887174914277532 -0.8190051145332797
Ni 2.8517074566355185 7.333591191920132 1.9004872869376488 -0.7288732934421899 0.5219915344518494 0.7356916019156039
Ni 4.1886842901489585 5.529712174431796 2.569417974374697 -0.33992889138771776 -0.34835696755041295 -0.062196785243718695
Ni 9.257422194346399 2.176315529049296 11.557939595081153 0.6177864673659876 -0.23253519789238664 2.078083331476047
Ni 8.188548732280207 8.042933898202188 1.621261179536164 -1.969692821285085 1.2553819990381025 -0.017430279661305465
Ni 5.279420418408716 1.381975087816646 8.834119908847198 -0.8043225728204405 -0.27897369186058407 0.6750855581977728
Ni 4.7424146150413575 6.306036589421638 12.247445160554344 -1.360360655334038 1.9864062773850242 -1.3892277160773752
Ni 2.777301918650782 1.137676285340039 1.8883164809678428 -0.8907072681642725 -2.601940201271409 0.20239209865010305
P 3.346874081987734 8.392188364649272 0.1900054307658167 0.24388636123914773 0.4724188657300444 -1.1505444963057216
P 1.0883761124445583 5.61673543476709 10.580899551568878 -0.44067216944606685 -1.0559896064462717 -0.26326039489038533
P 3.3094390279741854 4.341119012448856 6.459615083165833 1.1357357134276633 -1.0929813531792725 0.902189300661943
P 4.295265949267702 3.360272282009461 12.978522311698272 2.879803433676634 1.5245669869430387 -1.1001999824148987
P 6.322686779739901 8.71451635144104 10.1659288652094 -2.5853193048852767 -0.8999400996164502 1.1196758317513231
P 0.040341404198567354 1.219589275209349 9.760232855175644 -0.025969684590884303 -0.3180991971071361 -1.8725089784432203
P 6.060464865028959 6.776924784360004 1.9521223888660422 -1.3269391424507986 0.6982522261222234 0.37380317553765946
P 8.594703737515818 5.7654907623314795 5.6817445790750085 0.10064789013106537 0.9272441867480419 -0.5721730404022469
Ni 6.746170247555623 2.0391558697422685 4.768877453794396 -3.4476799035860557 -0.6467350320795378 0.7182487238488082
Ni 2.662580992389851 4.346731018560591 8.743524104886138 0.8650772263009939 0.9779620248178836 -0.6519394590986126
Ni 8.278526658084926 8.775514398003201 11.069535251265565 0.6093560772104474 1.9518509080076576 -0.10973416870304974
Ni 5.425081709490973 8.740169909180283 1.193339209535713 -0.06218290128664774 -0.28638361117141004 0.47605929069610914
Ni 6.909671028264589 4.502361982751942 6.481645923714734 0.11014888764296514 -0.06568217268915784 -1.0591860018963823
Ni 2.4076528273439965 4.20752725106717 4.331047133930443 1.4149490321028793 -1.1347388967320329 0.39846519706071376
Ni 3.215214931982276 3.2638832896201437 1.766225615554877 1.4183279758774412 1.5027087534173669 0.19398690530554333
Ni 4.804536921106036 5.365551704262675 5.128935961146656 -2.0655736290448106 -2.264611723621016 -0.616111650766726
Ni 6.090987116812158 4.79244880860377 11.171377366812129 0.6812734321760396 -0.3703026185835687 -0.3923503424122275
Ni 6.709078975373423 8.988064483784774 3.85667652195453 1.4264040680173564 0.542745222059433 -0.9943142409236618
Ni 7.9926302540152045 4.783371109976012 8.537813419268224 2.14146462394617 -1.1421680993165684 0.7001725830733877
Ni 6.78866911503092 0.691786604381186 12.92003387250495 1.6776116455082657 0.361853459374951 1.0208408264592805
Ni 1.849973657091518 5.779780936834542 6.229658487037033 -0.8261430111296418 0.7583062539913262 0.3462394069867779
Ni 0.19773030143021603 4.027125412217066 6.582957500272922 0.909929092508362 -0.18393234928301871 0.559950787304442
Ni 2.373785671255789 9.338879905574194 11.994314881572429 -1.8863620822762288 -2.4987219793100066 0.7625542306344029
Ni 2.6970706723348234 2.1307040422901715 12.974524221913702 -2.145163927174628 -0.8607785989256401 0.8530542336981889
Ni 4.259540513010046 3.3459077762996206 10.42149349121329 0.7072680564675884 -0.9037892981592112 -0.015095975101173999
Ni 2.319876963540075 6.444887283682865 12.32416983219055 -0.1881582144389082 1.3367239897517043 -0.9370388042409604
Ni 0.2704782535038037 7.903107606852001 5.883212811066071 0.9108112380029991 -1.2377151778859588 -0.21914694951093872
Ni 3.491671272791197 2.0781983361023912 6.667460932698443 0.24613042007831804 0.8018887665679674 0.7544298017550556
Ni 4.911666772874768 7.551595329999037 3.7463346329129052 0.4300982505849625 0.23068991715353174 -0.8989211714336326
Ni 0.6207910105073886 8.098849548500906 3.307838119608205 0.6024387812653237 0.8580236618883224 0.25494596148741905
Ni 5.5982269642793785 5.086921175655498 0.2865979048336887 1.61909590866056 -0.3000389971713155 0.5683266700729632
Ni 3.739231356965187 7.801682675203478 10.365329760511951 0.7160535159697023 -0.2737396971551544 0.6144049524882644
P 7.933592693031811 3.779602493646465 3.2221110096911008 0.22112747027607724 0.5991467407776133 1.3104812540050914
P 1.3672853830771519 2.026993426033225 6.868779573135865 -0.06882071831813955 1.4009069521875162 -0.5615117040336588
P 1.9362071483547965 5.065950483943268 2.2194090461788174 1.4175695004448619 -0.029263010630175414 -2.2354741828251115
P 3.5072715348137207 1.312939979521617 10.91267224732187 1.1245796968108437 0.6071917225692769 -1.21132871747263
P 4.361894584743295 3.2571098584025027 3.693421963368016 0.032963085189581944 0.004269831019947485 0.14841281622017022
P 8.788141411754607 0.4158580151403885 4.554966177788703 0.42581299294604735 -0.46897153061139235 -0.6836159642662871
P 7.8675958728138315 5.233790348847897 13.25899997079388 0.15646139755625957 -0.5160067776233241 -1.2605542872676612
P 4.2010139790732515 7.3569033166458695 6.3912675385335 -0.4236447816501349 0.2826074319584294 -2.2398651128039555
