# total energy = -340877.47027150483 ev
CRYSTAL
PRIMVEC
9.15277910155967 0.00000000000000 0.00000000000000

0.00000000000000 9.15277910155967 0.00000000000000

0.00000000000000 0.00000000000000 13.39601739222219

PRIMCOORD
 96 1
Ni 3.7429558206778775 7.438884661963461 10.893225896970424 -0.9711768835752499 0.5228202010007319 0.9517221172847481
Ni 8.607282687328023 2.554476597807148 3.6157321901693393 0.04321690170710622 -0.8152037385093186 -0.7469934000816684
Ni 5.150360368594198 5.522457453104564 11.590716179703682 0.16308018842435784 -1.6587088950664917 -0.11736237467226884
Ni 6.951032379248672 1.2653625679262483 2.429247357880467 1.3350951958990296 0.3948988198656941 -0.6174527381756527
Ni 5.617582287052422 2.847475364702063 4.037894976757526 1.2559162742750176 0.6388420024847062 -0.21194014734985434
Ni 7.398804641963685 4.54754917946306 5.060787610492848 -1.1022028717775405 -0.24184696221161578 0.947553073508723
Ni 4.768305060343306 1.9682044806421204 10.239205823642722 -1.8766749368954516 0.45018422270156017 1.948462194041083
Ni 7.824189206820866 1.2115625319457313 7.6940696369819035 -1.0635594483737296 1.8176863741763856 0.7110632618439625
Ni 6.621184523402148 3.556028611622059 12.566107720085533 -0.6720652833142103 0.793538080610427 -0.7744664086909565
Ni 7.672710711503146 7.448925260716545 2.624494443204793 -0.9847633640104331 1.4471132755402496 0.8303238819802087
Ni 7.014204861102623 1.2161389215323692 12.722479291149288 0.33952137153665396 -0.4273186309572964 -0.4841996604150565
Ni 0.2458006305320818 0.24624270976615104 12.385958144007526 0.4081073481361681 0.9274305917272351 0.0025762453676084662
Ni 8.994838815862053 6.582605559186789 4.765486004357937 -0.9705207380484898 1.246645647606369 -0.458565761897036
Ni 5.12335051725386 4.425341271941477 6.023787203152003 -0.6147620787173671 -1.1681236428400656 0.9151643727653722
Ni 4.203596890910517 1.3389966763752545 5.127928737396331 0.3185900207006255 -0.7708660929342078 1.3343323495910762
Ni 6.5140695487372975 0.5719425260913465 9.759681654697697 0.27170466900299656 1.6620592995959635 -0.2164994845857626
Ni 3.277967180337931 7.5034026023558855 1.7405043862031095 0.05172133963369156 -0.8412312729213318 0.9930829396197218
Ni 9.030223460145939 2.737449806260111 11.838221057717826 -0.1480675170656095 -1.5644463396364798 -1.0040258117844707
Ni 2.7563136841362326 7.19973169494493 8.776829684011707 -1.862956558868095 -0.5530136938649766 -0.0462618591810171
Ni 0.49079947760858456 8.387890570544595 8.279797163786121 0.7395438857821586 0.5850506676958633 2.07220758942156
Ni 2.635149193440404 0.5467284500248055 0.8903182885220866 -0.3359989602056923 1.7915467396665405 0.18820655117834037
Ni 4.770959366303556 5.012171708636075 3.764937135140417 -2.0073877647326976 -0.013610905915215268 0.12928458003115154
Ni 6.6824532271880575 4.909331081845144 2.6450570768954753 2.1978897968134343 -2.022376010611414 0.6476302902002975
Ni 1.211352018024746 6.8688221167143055 6.809075520104911 -0.051583785614562776 -1.197364284872738 -0.02872667851073117
P 7.781528103094225 3.6503205426651495 0.9771086017547599 -0.761450970267895 0.035646288448699895 0.786046400219072
P 8.859624809135244 4.606483924559784 3.6166300778062377 0.8037723567439254 1.3737944122414405 -0.9884706376586913
P 8.095276220374958 8.985704342247123 0.6658610237441673 -0.724764670590455 -0.8357435103338833 0.8086222286370591
P 6.104263014033033 2.3307552164747602 6.212443372193652 0.8279764647939548 -0.004544167727256691 -0.8935539935844483
P 2.826698555978726 5.163824106758087 10.309615407988984 -0.02272649506323828 0.942936400672318 -0.48746573276083793
P 0.45751905725663533 4.936075502589458 7.6112690201908615 0.6470186247582277 0.46390517183207847 0.39501863327301
P 0.5263131760788132 0.8464709846145901 6.636105384010422 1.8086147508924209 0.34646103607928075 -0.7805979755099911
P 4.8104902195529355 1.282926751159765 2.635799956039624 -0.06367491245114194 -0.7517491695990989 -0.37307735311522844
Ni 4.095703930015938 4.128168837743549 8.885390797785934 -0.6545992653189631 -1.4603369733193754 2.0081081878384897
Ni 8.290999250216293 8.460618553855447 6.486459275083193 -0.2844264874450392 -1.8711452653264742 -2.669484109759654
Ni 4.467261000555081 8.819068844618458 8.799241179095391 -0.5357682765209676 1.0369485306544206 0.3480486922813748
Ni 3.0537698544885328 5.26966684511785 7.294828155277351 -1.8681820689330921 0.3693947620573187 -1.5817835453633466
Ni 0.9095153275601159 6.138659158166204 11.03640282157798 0.46749134652144003 -0.5535716232509756 -1.374411219889833
Ni 6.452773386613868 3.586013116193712 10.042739588132516 0.22843840211519367 0.6019438439067762 -0.3541311510300288
Ni 7.044802601878885 6.30149625243796 6.9385205301188035 0.29900464236953017 0.2783987931937205 -1.491418010994896
Ni 1.8154812073568354 5.162917981619931 3.1590085094228617 0.05181415645781399 0.3277979124521387 -1.3450201683222256
Ni 5.1931221528917435 8.59542983829863 3.7819905932960647 0.49562898529792065 -0.7121089294996574 -0.5722835978381822
Ni 5.265145372206252 6.6543999590219665 5.24933669201817 -0.6037238186253344 0.660279860643508 1.1910447704126133
Ni 2.5079530212693855 0.4658792057535058 7.36275916702349 0.44423854664108653 -0.7100075668859385 0.06646173116765973
Ni 1.8741322162991885 2.076216427665952 4.978227711794063 -0.6327631432804779 -0.5553351429093016 -0.9970264976485022
Ni 1.0725958857578801 4.7474184182698895 5.382158162269084 -0.5669678420522236 -1.3746577886830005 1.8151057579334031
Ni 4.62904552522191 7.18332991466642 13.156751204583719 -0.5646998719536532 0.6764037627885641 0.47202960071142575
Ni 5.8690823531757035 8.740226804819859 1.3560785081463398 -0.8680234534135115 -1.1893498992086935 -1.2082747611376545
Ni -0.08281983762730617 7.048262352406383 12.867544434100292 -1.2711996827966494 0.3507936020163636 0.7461022557259667
Ni 2.1494844249480267 7.96157242221174 12.886620656453234 0.8203639425540193 -1.6464341914641967 -0.8467825417568643
Ni 5.918013110636037 7.266620205143232 10.214075037866658 0.5906698136548538 0.4940657545758588 -1.9388035879053962
Ni 8.31873217111132 8.502355226885586 10.297719540897477 0.8493166210326276 -1.5489436160151904 0.896701023853862
Ni 8.94194490501969 4.682104186089391 12.905522060723968 0.35999917977503165 0.6347122965870489 -0.9375972478475918
Ni 1.9900613173079038 8.64868070752875 5.298661018982956 -0.9831556532036811 0.2121288663218927 0.6700348831477428
Ni 8.891805980708483 4.306684642739126 9.795730790749563 1.1958841007827854 -1.067577054173555 1.2855335829208183
Ni 4.263877094545713 5.109264390106188 1.4802066687384756 -2.3356831856465448 -0.5306024160493119 -1.6338712671975217
Ni 5.071884439962528 2.025876142212933 8.018119207222156 0.39106633349348136 -0.25626725140200385 -0.9831942197511002
P 7.023421709730112 7.741045360810826 4.844749987276425 0.7431601423785071 0.6665245560016392 -0.3451495163567088
P 7.245156937981899 8.302531751974621 8.380481395803827 -0.09375681943818692 -2.2559111105232246 0.18817132706503076
P 3.0058092916205656 3.9899435666687326 4.877020856085562 1.4000271206857244 0.311550854465657 0.12025152329460581
P 1.2875489046422695 1.6242888032062708 2.7154263890133734 -0.14672154456067635 1.2949741595084279 -0.6701973768675361
P 8.177761066284521 2.2260108116157884 9.69646615478163 -0.26414485437786767 0.3067860860871619 0.16666379201055811
P 2.882255925560512 1.7324380419177012 8.944628499873295 1.6673922817731026 0.9128866324747891 1.8814962695434954
P 4.411703630973296 3.660461821989139 13.110133354420471 0.424558551713656 1.311860136630489 -0.8845754442349217
P 5.547984554218831 6.549197915204331 2.192687373201725 -1.4199606263848576 3.772967133801199 0.7700212284354093
Ni 2.1174130867248673 2.9225281539229266 10.737215860684016 0.2291377421750634 2.8129066718540847 -0.9511405337496652
Ni 8.660872209387554 5.6898526314046105 1.5864237557664276 2.692991705963291 -1.0847394248854545 1.3313334148637523
Ni 2.8530127961018947 0.34015571575146786 3.3892732125862244 0.3781617096166713 -0.3175273837640661 -1.7519666633810733
Ni 0.03079361025057013 0.04668375017329478 3.6817877974628725 -0.14290885568280548 0.1591101480330163 0.42314110254083903
Ni 8.922138290888721 2.636577026991435 5.935922353644386 -1.0307300605485346 0.8250186677172113 0.11118452799633109
Ni 5.837862223415658 8.818583747322275 6.8037568401273205 -0.5242224806648971 0.3156394227127338 -1.0444672076289692
Ni 1.1097927803180743 2.845214628246264 8.309603189163894 -1.159912567784183 0.18776226455207018 -0.6335452728621412
Ni 2.797986287712159 6.38726694607073 4.91159639469053 1.1594672527166483 0.3672008397297934 0.6653752728885444
Ni 7.683044199189775 3.8971801497475793 7.641624212319031 0.42971129955918896 -1.1524124027523959 -0.21575309333804132
Ni 4.879355730052666 6.5849395178759735 8.030537698004458 0.14593375855205834 1.0705852448722595 -0.4537683405083927
Ni 4.644623555374826 1.4554749441343662 13.175894242224624 -0.12895830703998434 0.06721352173201973 0.2661415730929223
Ni 1.7872174252697586 3.625305997184586 1.3492203307118038 -0.739496834594307 -0.16168793606252152 -1.581130228050064
Ni 6.718908746635216 6.066581022176655 0.5128494379149241 -0.3961833430050726 -0.33642473488920127 -1.948138492153077
Ni 3.3645067074212562 2.8824389811439777 2.88878460294481 0.17108069013133118 0.15145031749491336 0.7406075511599826
Ni 5.584980087637214 3.109995376949968 1.4362541078704865 0.233099812146605 -0.830824475765711 0.538620144147466
Ni 7.911369428446321 6.122669252950491 9.051595199515537 -0.07565213941767615 1.5757769341579506 0.7667186464247376
Ni 3.0191265853176827 2.8095737061455264 6.888352316914242 0.8781386874706426 0.8253130590291787 -0.29940753423490374
Ni 2.899966553260801 0.8958648727010918 11.516301339191193 0.2821950270113592 -2.002332204586661 0.25368123584238245
Ni 9.070788577441897 1.9446726853876275 0.8331866409224972 0.5866972021603508 -0.29304251124882436 0.5650333440336721
Ni 0.8150604770477411 7.979859674999946 1.5900134757581863 -0.31058103435322 0.38940642929255515 -0.8600111246319962
Ni 6.8061255793773645 7.828646610278251 12.225473313983304 0.423722943186238 1.4285033737485464 1.7704140714529832
Ni 7.03771835079877 0.9744048707869741 4.749853057529981 0.07714543613375101 -0.7692882069241268 1.2910694251373829
Ni 0.8448820621501093 1.1171607675525617 10.033885189560289 0.048953289970251175 -0.8147928762241451 -0.04511540428139972
Ni 2.869963743130802 5.380159195297641 12.43039214106003 -0.04345370030826065 -0.6892664776838452 1.5225029053251586
P 7.340336688604798 5.913574012736999 11.412750456736417 1.0635239671501038 -1.2876012640831245 -0.283488291901486
P 5.868588103100347 4.771874644220883 8.094249278551716 0.6857669491710189 0.02516312952918892 0.6581401885926859
P 1.9309618221860598 2.381653821457349 12.821569109035009 -0.624331467573357 -0.5736506533890379 0.7152716434983551
P 1.3440581632580764 8.234892713884111 10.756077908004302 1.1472262305657661 0.2310061628423699 -0.1954148960013215
P 1.6320686655035554 5.929280181798341 0.92269990595922 0.46911191284399856 0.29554162352159424 -0.8975921682095639
P 3.763998059997239 8.006091540110555 6.434870550550939 0.027144164514959705 -0.8018663979704641 0.2458805088510411
P 1.4605821949130544 7.47167906974131 3.5074657958844906 1.1477826172898684 0.07184896362150206 0.7027621981774348
P 5.348929912758422 0.1843021919889223 11.505236544448621 -1.4132703588488758 -0.7465709678322691 0.3696552148075569
