# total energy = -340873.29540806526 ev
CRYSTAL
PRIMVEC
9.17995670044358 0.00000000000000 0.00000000000000

0.00000000000000 9.17995670044358 0.00000000000000

0.00000000000000 0.00000000000000 13.43579455534169

PRIMCOORD
 96 1
Ni 2.733001615986418 6.480168123538956 9.523358638951864 1.964698453394287 -0.9398122532210396 0.8290491290328431
Ni 8.778719110807298 0.8183867099432947 1.1603511113400489 -1.0083640341485085 2.2564651832544818 1.2317982981808915
Ni 4.621364599979398 0.19410467552437316 6.486707924660935 -0.20796239364902896 -0.5399882281395861 -1.3570364760568112
Ni 6.1451456053657285 8.4168176795443 1.2690794359734376 0.5162618310569238 0.5427405940737428 0.4562103742909821
Ni 0.5884710235025286 9.237973982410814 12.661569967718911 1.2801039272648147 -0.7125627292076244 -0.455512576893009
Ni 5.465250475527017 2.9278278361039805 8.376290924893544 -0.4805165551365144 -1.640273828289756 -1.8224588558643646
Ni 6.0541079752047775 7.180543736677968 6.1952580707570375 -0.7880760290545912 0.20950017044979402 0.7724079835000311
Ni 0.6909386176962916 6.306969881303738 12.078712487711735 0.27265597717267237 -1.8624865612102117 -0.08662509348941211
Ni 3.162357368760224 1.9890671085130605 5.979613544934222 0.3386477106824491 1.7589135270125513 -1.1562911689815119
Ni 4.310981085471796 0.6128603323470999 1.9782329236672445 -1.4975647473225822 0.057330458290352874 -0.423550936384748
Ni 6.736692832343797 1.6944363996277405 10.201395745563332 0.8822262272764547 1.3915154836702872 0.16399215871566594
Ni 1.9493729759310345 1.7460185760797304 11.40681493611203 1.2201020927898856 -1.2180524093497087 0.028399891298931734
Ni 7.5484855794208405 5.671588361291633 10.54532557568021 1.6859795578569867 0.5497558490493113 0.12334044663257467
Ni 4.315369104753527 3.223339820828309 3.521360687706816 2.0186815924789623 -1.6695136989914794 0.9408232109840571
Ni 8.68499175334604 7.777259279253558 1.0688407134112963 1.355822401144052 -1.8814908702268565 1.322023450316736
Ni 2.8899421549832534 6.6328858824738735 12.329854069933296 2.068288199762496 0.4502114763950698 -0.29957414171975505
Ni 0.9238249381110503 2.8798901024445587 0.0667162529956364 -0.18371354840399326 -0.13281470467159706 0.8774172359235857
Ni 6.683742842350012 8.196342660528916 10.69037807080708 -0.8562714550839059 -0.8157650103294274 0.2602141518648938
Ni 1.706930320637023 8.264770057445295 10.584343145456662 -1.6684006684329589 1.1014868195471224 0.3126834254082035
Ni 3.3084288390759498 7.637935077080244 7.49085840151065 1.8978027200130023 0.08290959231103785 -0.2431476833009103
Ni 2.634280362104109 9.002205155605962 3.949250401402604 1.5598931730481587 0.28085676781590985 0.495185727112915
Ni 5.485657519174067 8.565202498937424 3.5183781197891704 -1.1392316423960638 -0.08719253595710791 1.6471335315240667
Ni 7.584351670077171 4.1628900246916745 3.608988881965601 -1.9302968359859656 1.7489325045404398 -0.8936912904932609
Ni 1.7513980306803472 4.274187819193173 8.7623282981974 -1.4099621204112494 1.2727248611919242 0.45677884519994233
P 9.147175031122927 5.315295883545659 7.740643186138404 -0.8770616523563798 -2.3721874512201664 -1.3784812761941485
P 4.114704432202531 7.3546232547521955 5.1381704558528565 -0.8065074962869013 0.7482133885316985 -0.42742456040754134
P 5.229757047421857 7.566386494900709 12.69129007739382 -0.6565815858563144 0.3439004744409561 -0.1487833121857115
P 2.8149878088842155 1.8073682264140687 0.19974575888969576 -0.7407633600115565 -0.8720909386146658 -1.2423801874617957
P -0.008868756125692708 6.8188901642446895 3.0144012533429514 -0.3446769475956645 -0.17039883357295815 -1.0070977658415752
P 7.544216899575642 9.444339408045396 3.0106925508537894 0.8317179341142579 -1.4683649858301744 -0.36451198004372065
P 0.4361929844914497 1.6171136247113658 5.490013408607501 0.6751359518197341 -0.6107902385538125 0.8173801773353471
P 5.683871143297819 4.246859088227241 2.1491086368684083 0.4777256226549385 1.416982003372508 -0.41632356539837334
Ni 1.9644372848040927 -0.06879367718696676 1.3136820913796101 -0.31281866543448705 -0.5566736592150671 0.9722994272154674
Ni 8.676123915216012 0.2754335835255759 7.062847512386997 1.1283052252915473 -0.728567589276313 -0.12077422856729522
Ni 6.649630123415043 5.2130128064806875 7.786177607145195 0.5026712368566827 -1.2743171453797084 -0.26299120038939866
Ni 5.544556121081162 0.3051435952481635 8.793888989181905 0.10623798262433316 -1.3055017985126292 -0.48105802946228116
Ni 2.1340828838133064 0.0223788983368323 6.333351240742736 -2.0167188123256365 -0.25391674889195626 -1.2051570414442794
Ni 4.559078594066114 2.72709890385639 0.9871179852695365 0.7733880880251133 1.0558996178356266 -1.1485693748572219
Ni 3.2677983509149766 1.046891437045981 8.559407192300274 -0.4637737884605368 -0.09681977463422681 0.3527486688602054
Ni 7.439390974516864 8.765004255562722 12.979233187854993 -0.13639290894115863 1.4656257325221405 -2.6755670827289406
Ni 4.006665522314034 3.486850476648627 11.85659150246787 -0.3424927954601521 -2.1229951043870727 0.6292034509536777
Ni 7.246960723086608 7.26881819988536 8.53746617789595 -0.9227393568991528 1.053899299576146 0.1391874409671603
Ni 6.269974655978677 3.684393963936466 12.331640489498621 3.0668941260829765 -1.8251806256709018 -1.5507631857224327
Ni 8.244482353234778 2.1136758401662568 3.9475576173951743 -0.8979711488155374 0.04189612601315366 0.5028486429748114
Ni 7.200060324529353 9.049858310609038 5.182683147683798 1.1419878649849622 0.615249816987063 -0.05368283423543658
Ni 1.634775861318169 6.323117425062245 6.639768095979134 -0.6607979379305071 0.1545371839503532 0.5152878971794286
Ni 0.09593789102410656 5.423031854864497 4.677645078248106 -0.06557547190796449 0.46488733323968967 -0.08823074741363515
Ni 8.554122291253218 7.017544426287946 6.57713049772591 -1.317528647770176 -0.17400172043286807 -0.205953076528484
Ni 1.1556555635103296 2.112565065410839 7.509708524508784 -0.35646545559016024 -0.5828773141936284 0.8509706116962829
Ni 4.0263106295586075 5.3955195247654375 7.387268098617815 0.49059013732243256 -0.42422790784711456 2.0365823840187827
Ni 2.681318460011209 4.5763919923199765 0.16197482722717363 -0.2501130588751499 -0.41898568561156874 -0.130455203300485
Ni 4.512233275248796 7.059882386387 1.8559806868877318 -1.504224675841261 -1.0586028756994026 -0.0018442522975903723
Ni 4.040438582852719 4.2235419983201306 9.63428464520878 -0.11605522582507109 -0.07438175734568479 -0.7662504485390674
Ni 8.302141660993266 1.8539106066617264 12.107908421861566 -0.48898114096409984 0.6554248465440519 0.9863381646967206
Ni 0.44982889210878124 7.9965500838602726 4.811707329266003 0.4376380106054334 0.9554286196020577 -0.29295612218260514
Ni 3.2826148009583136 4.973627076753239 2.5085296438428637 -0.20092014209026687 0.4117832543258586 -0.3886564385004081
P 4.460651098796807 1.712952372203584 10.411692946633828 -1.2597821849883273 0.040374032941672404 -0.8154572492810214
P 2.5357243474416133 4.783730493360133 11.080714417813102 -0.6516671792738326 1.084136758304449 -0.2929424953358503
P 8.479755462380185 4.687212429075346 12.669618035719525 -0.4779817045298026 -1.5620475003870002 -1.7624012284508357
P 4.907200910387943 7.201593377290963 8.836318748847521 1.2702386044349607 -0.21120455473541044 0.9125601023733059
P 4.295650557855703 1.1731066611140368 4.241492485565943 0.5363480602838375 -0.44229736375431566 -0.520207188857917
P 2.4186799000732435 6.534137088721596 1.0887933492038573 0.07810137228911711 0.6794530911378491 -0.11108528341430547
P 6.550358072133353 0.8100182614553726 6.920764733238453 1.0035128767037942 1.6402650865390074 1.2922580461288453
P 6.7558697617988965 5.304977612263929 5.466138177335685 1.6478917498463297 -0.5058298370903224 0.015418905658231508
Ni 0.48381033766356507 6.647436113774177 9.152638023329116 -0.6234688624627456 1.1883654238082373 1.1194490604524978
Ni 7.957461828417566 3.4746503142523473 5.994231707913782 0.1727007422332574 0.6167354003936539 0.8889514618154304
Ni 3.2598668683638965 8.988839138714328 12.813825056838349 0.7362623868174094 0.0747288562724584 -0.34195132113438526
Ni 8.653045504181968 -0.1837689623249969 9.513765584245986 0.6248482593087755 0.044671374765445644 -0.18503252432573294
Ni 2.1092511010578994 6.955983636950512 3.275888646716212 0.10349590110282175 -1.0906038540860314 -0.4353124477960503
Ni 5.22304649910607 5.4892468822266975 3.988173417625497 0.534171621457809 1.197936355326124 -0.7710998062115687
Ni 7.890714363569297 3.566504960555713 0.9918061891339307 -2.1387287130722457 -0.7537026937810438 -0.43229448690533295
Ni 5.218107682424958 5.691481327365928 11.016007657329538 -0.5104629649869595 1.3553290064474013 0.46873524623087015
Ni 6.285938600604056 1.9353643620734555 2.556805199907239 -0.12302085850962684 0.7434434779468809 -1.117161807080218
Ni 2.446247309912241 2.4841972507295615 2.2002859772318533 -1.833640840623113 0.5335902950330422 0.6924302201238075
Ni 3.1965159874784757 5.376774053273186 5.308079519618108 -0.3085326364646235 0.3396003044037055 -2.0823102250732006
Ni 7.069365281613001 6.332875718987937 12.91953776571013 0.5947275286639951 0.8350009757409038 -0.7884532098883518
Ni 1.3155887683771323 3.9554780839982664 6.038731547805403 0.041333054420832044 -0.38067239185366697 0.6375811334944116
Ni 0.7248438696108279 3.6148007125247315 11.18352534238581 -1.4876338613621154 1.4216295294468484 -0.3396242156631054
Ni 5.214343900195858 3.9085409656143866 6.0088094790840545 -0.5199382514672465 -0.10957373186578548 0.32894539579302057
Ni 7.807397076956331 2.260105328791579 8.158415669603237 0.4278660188203341 0.17780515333935829 -0.08689017422534069
Ni 7.268001183742945 7.201877955947309 3.94481648233759 0.8470928739084314 -2.2027126721233743 -0.19990121390744928
Ni 5.096987334301172 5.049783997174258 -0.015448031061293539 -1.6936848969210447 2.080179294773127 2.7298261011828213
Ni 5.5958720787901175 0.7860466406386649 11.942674710021393 -0.8954506963865289 -0.3914414574447129 1.509880845685774
Ni 0.30870174644816195 5.439087599056441 0.9311762474014497 1.1336610902868218 0.08666083182335398 1.4897491079329053
Ni 6.146467519124241 2.0768274941476967 5.056883775652273 -0.8969241956082618 -0.9756153789625777 0.3383011259763077
Ni 7.094288863934972 5.928966806065513 1.7498640599230724 -0.6026359848777944 -0.13610417405614625 0.9670057829166958
Ni 0.7980934977587834 0.989681947163653 3.3316605553861565 0.907116048539599 -1.2538267387358408 -0.5869828517215697
Ni 3.923660354227383 8.485153276894115 10.546037022321075 1.8346697961082594 0.12414854435616683 -0.1605345391843687
P 2.4399590396026456 3.6111838096021325 4.263701554704633 -1.1110608363888026 0.546467922326659 -0.35516499161118187
P 6.398420609514225 4.106763769694795 9.799195222574653 -0.3593615461910327 -0.4410588633615243 0.5884535227298252
P 0.19817874028845803 3.531290646821982 2.4208078140261837 1.714166304703848 -0.7350814791354308 0.7520939545330274
P 3.18136905899551 3.152865293577566 7.7584321061470645 1.0945456123425987 0.39360581208588347 0.0023659291290152804
P 6.510030522542039 1.800758657621502 0.2136212633757578 0.5879313316777681 -0.2873865985146276 0.2503837960380333
P 8.708079344336742 7.758293488801554 11.41212186905506 -1.5686680910273114 1.8749602681971902 -1.2521730051825015
P -0.17888522538382254 1.8365604885812385 10.090846117529324 0.6420062591453007 0.8345343205171306 -0.6637050842749731
P 1.5433985727609336 8.551909921699039 8.244996430807532 -1.5139794412351797 0.36930143101256396 1.6917920507737056
