# total energy = -340859.73681536445 ev
CRYSTAL
PRIMVEC
9.34978179521550 0.00000000000000 0.00000000000000

0.00000000000000 9.34978179521550 0.00000000000000

0.00000000000000 0.00000000000000 13.68435074772752

PRIMCOORD
 96 1
Ni 5.550544710667243 7.235122945761782 1.8506714987883979 -1.193551338884551 0.09640274170146623 0.21909681299929362
Ni 2.4906883719915553 5.965787219683681 9.696279096980138 0.5886183304424637 -0.7646018571920509 0.09411086034349599
Ni 5.924732327828075 4.250205108161632 9.148727825802762 1.2658399611466329 0.4795531627819805 2.531634413767311
Ni 3.87473657089508 8.210679178103833 4.937054103390649 0.9086057457112481 1.0343411749385607 1.4647649271837417
Ni 8.236447176726937 3.140797399662702 9.268547149443837 -0.4348365366008962 1.6186649917707285 -0.6096748940024468
Ni 0.22757368885571702 3.3440803554187 0.36942577329336207 1.5559359881726236 0.5422901367998854 1.917118132512163
Ni 0.6520939863459237 8.765925319697326 8.589324771223843 -0.7722727434737474 -0.773737500944732 -0.055429384612898085
Ni 3.5406595176287023 6.0186041370356085 5.959644413045299 0.6772385999850337 -0.3015243234675904 0.636620312243039
Ni 2.916178241853756 6.955714066642463 0.6768400538189897 0.3819846829071873 -2.1477221748201076 -0.5369813229924624
Ni 5.007958173622256 7.560916092359048 9.283175818038071 -1.276169368097099 -0.36714658945309026 0.2212747944872189
Ni 1.2540581826273933 3.8133178542930586 9.169719020907527 0.3074635717701608 -0.7889525181222735 -0.6511568152963173
Ni 0.5161967779326092 1.8282376323528837 7.745862256061479 -1.8495037757972987 -0.6058331516588534 2.0627562142006735
Ni 7.680649398007623 4.319935780778145 13.407051349495758 -2.4037328301266148 1.4452057741048918 0.38904390374681386
Ni 2.125018406044674 4.02193953545319 5.59919817018649 -1.0498004469164242 0.6688989697710866 -2.2485554414891014
Ni 6.880635318840021 1.7279518728349537 1.5819933642335686 -1.3296138610694843 1.5841091081727299 0.4742376641063381
Ni 5.251389092399884 3.5540390553753145 7.325137035001287 -1.2076744085494944 1.7967426820451828 -3.1146824492108487
Ni 2.5175409453027147 8.637066627018218 10.271295352176153 -0.44843484411062123 -0.17312934513024375 -0.47316834230155924
Ni 1.979161810064839 5.992845488194298 3.9645346801751526 0.003853569418135299 -0.16311181299324165 0.664964667713687
Ni 7.652244760918729 2.03650402180486 13.144886272938336 -0.07176283166559899 -1.6570063105530881 -1.6164875245034354
Ni 6.5615833649159265 4.752372538512976 5.656795630969476 0.5658386135437867 0.023993020480487712 -0.7115733687111616
Ni 8.149195013029257 6.818655615330385 8.093746132102435 0.18868117682191377 0.5467178335539358 1.0947477010510758
Ni 7.764414093096299 5.362081159054067 1.782154427848691 1.3661628638381116 -3.8748656085099134 3.2088683857666545
Ni 1.9033350797189117 1.5026221316096955 2.3375473610163424 1.187501018925413 1.4433466094089658 -2.950599530553589
Ni 6.859738556531372 6.402225684026162 12.411131292407292 -1.5397925456435417 1.043309696985758 -0.5523588338897971
P 5.3719919277552615 2.169009129383464 5.787522410050942 1.1371495630560546 -1.3714845331613412 -0.671115003585799
P 4.870544430602023 7.59117198624307 13.482424615424696 0.3686542843468683 -0.3196431445554882 0.8618075544107866
P 7.913907754193837 3.5235307173828656 3.27692274275178 -0.5510578556901864 0.578941469474332 0.2527384123131389
P 2.331059547429778 4.914488405031846 7.572413519030612 0.04815933331404609 1.0817898553388272 0.307885746909244
P 8.12402540044094 3.641805457071642 11.526479248531494 -0.8375389116714091 -0.7981035884939223 -1.800673641668473
P 2.272155922130229 3.8783268871038143 3.2185455101672096 0.685884962806122 -0.2100478154231479 0.5742903438555658
P 5.153225733349095 9.46179217946625 2.891311562195553 2.1546649246865277 -0.7399015262318934 3.218621865608992
P 1.7141048459986628 7.679667670919298 5.400542421440134 1.5104410890646178 -0.46815186292357436 -0.5617431033181745
Ni 2.5649069398689868 2.751594032941382 7.325656882869009 1.3345786612739272 -1.1780804969424614 0.3205188622922222
Ni 6.134307686731152 9.2794059860189 12.228842336690597 0.18561847873619 1.269523323535491 -1.7907797795935287
Ni 9.146863479313122 4.086191235938666 5.889074130023722 -0.8375232279421253 -0.2992406696397363 0.15837506963920464
Ni 3.6782696060666007 3.2975745407774375 9.225099648427253 0.3735049275709503 0.9875902919362668 1.8037101145019518
Ni 5.480458746342573 3.656896004886479 11.531008282832305 -0.07419535236649158 0.2224222778281008 0.44435450339366045
Ni 2.42899851171752 6.113990610893704 12.008237040205634 -0.45663794874670394 1.7959636377873132 0.7813225123808415
Ni 2.0331287505773776 0.17940361305519711 4.015672376716954 -1.5922901013216255 -1.498534310324703 1.4891119885695387
Ni 6.5084485549830156 1.820617560191117 10.395577326667306 0.4023511623786813 -0.7020410037406942 0.06641905085518238
Ni 4.3525571694559435 3.832943046277781 4.969444552458144 -0.1736235111578429 1.0543405008786229 -0.7308108767845349
Ni 7.558541247783479 5.425182836378933 10.485018274282863 -0.20428854434186755 0.5126219203114912 -1.3990462448296939
Ni 0.17446599329000798 -0.3707768167625343 6.04666283219814 2.5418524919508934 3.6245694870896807 1.276569174638679
Ni 3.3965326312806794 1.5865644725524495 5.073500143995246 0.8234292117429044 1.2673556264602108 -0.21936472194869963
Ni -0.030875784416936496 1.1783529994447828 10.032709490323962 0.6378097045654499 -0.054340265313777385 0.6600029528330376
Ni 8.862938655587504 0.9692170802860041 2.439961130870491 -0.37323804706280883 -0.598366153857847 -0.06019183899854794
Ni 2.677562460699822 8.688873767936439 12.75861780272202 -0.5469993693500966 0.46124870804583784 0.40285766970145453
Ni 0.643142505256751 2.707687457638734 11.988243466818245 -0.3101089798128079 -1.0408735767404396 -2.013914510107622
Ni 4.2080095429272095 0.35996659905279804 1.208086240526544 -2.791067721602122 0.7240838424733466 -2.7271614098664645
Ni 5.959242372428175 6.154802408422676 7.561205935594649 -0.8306817795402596 0.39266196011537535 -1.038035335960696
Ni 5.138471777678828 1.7044278218423086 8.395650586217107 0.26276777152468295 -3.1340451700081764 0.38503838213184655
Ni 7.327844731808708 8.118705374600394 10.291726495351483 0.7925317508330996 0.21362910501650303 0.6518600120109289
Ni 8.54070777585359 6.025326630145193 4.40285806052722 0.7432251912884877 -1.7690431592473854 -1.7612396040425669
Ni 3.699241166629599 3.1719321730353207 0.4929607002192063 -0.5958876104103673 0.9904850969855588 1.6011856040390422
Ni 4.4494957070917724 7.798980236387161 11.525370364410776 -0.03335029332567159 -0.9542919348944533 -1.4424240975946965
Ni 3.258847744588433 7.743779124677871 2.8353970621354114 0.8178488894416495 -0.10795727930828505 0.4033844887392021
P 7.708062958226398 4.730765192788014 7.534480519315883 0.03517706212176522 -0.5041071979722608 0.33196772755911214
P 4.638408048231039 5.630251600457505 10.253752356596861 -0.19934714117619215 -0.8740799440202366 0.8614206033850133
P 2.1246724641183112 1.97540319778382 10.180924101272135 0.4267666151085683 -0.49798951511029715 0.8980477676897437
P 2.2000597547199403 4.8120054467924245 13.881268542153377 -0.9646822769898418 0.14018348633184244 -0.5374654617177325
P 5.687547063288558 6.995366491229031 5.2976368530636435 0.5071179597741267 -0.6818375322096257 0.2954380080641944
P 7.675432219766806 1.1590363502592482 8.486938115736896 0.253652439486976 0.34690635114681545 -0.34327698192434425
P 1.0945509052289328 1.755739424325471 5.842847873858088 1.1476895433554297 0.71960806609018 -2.285953422521586
P 0.4237788597939759 1.2477096807895534 14.29699910977944 0.6562126325526698 0.665140531169919 -1.6607333816956884
Ni 8.109449090624752 7.601522194688562 5.799235816681937 -5.558401332812098 -1.1721517901628522 -0.04309297453473223
Ni 4.281517527388329 5.231464707397766 13.038750354952164 1.8105204525555658 0.5785848574658616 0.7470039416046296
Ni 6.47664059732126 8.810430281034762 8.128887286973603 0.6106012624714581 0.1476733669509844 -1.1324953521134948
Ni 2.633992477541743 1.8596809485246906 12.651811505381248 0.5668881378542238 -2.521844424260083 0.20008993287948765
Ni 5.494922858777239 3.393699647397225 3.010338024340533 0.42343986472818046 0.5785054103781778 -0.8145686760284809
Ni 0.4763012590194069 6.322406596854377 6.557800443202244 1.2114973818400103 -1.136393144506004 -0.024919903170131274
Ni 0.48328274108467245 2.5521538375025448 3.887409265138097 0.031272327750720336 0.9186993825018244 0.9085005875919515
Ni 7.800298555620056 7.691962633977854 2.6595809603544103 -1.4408991763097379 0.6753722362002563 0.14627545816219323
Ni 0.5857582194986588 7.773445982308897 3.0752975033077834 1.699520786876531 0.047697306075963015 -0.17607402958086452
Ni 0.8856936095676026 5.1905874613962375 1.977840685897406 0.5724576615222012 -0.16776113883979496 0.5862038074637
Ni 4.155604015974198 0.948264219286593 10.690885509726606 0.006855846579568838 0.6229345872258305 0.37524942106588277
Ni 6.3276892235677495 5.80437258679933 3.4379605794298493 -0.9048550204195641 -0.28057317513722 1.9495543986639976
Ni -0.12708129916014874 8.515538163265274 0.2513511189349682 -0.09884143304994591 0.649862779075242 0.2753630916911903
Ni 0.6374877572279943 7.62690685225813 11.654838662862826 0.5301244479716289 0.5300619701648097 1.5991086669053558
Ni 6.278649618060427 9.420933633028307 5.434931853855098 -0.3314221394682873 -1.166590751135307 0.6810170931908595
Ni 0.4965678460351691 4.99516767212864 10.897231453998181 0.10106466595350981 0.7362027372240676 1.4434620519409078
Ni 6.419962220088582 9.028972080677882 0.7020349108181476 1.3241993749221324 -0.4548700582130037 0.954977133886936
Ni 4.040985040966711 5.378555474574354 2.5178382683637506 -0.7291661420922604 -0.9110966304539018 -0.3021827829871957
Ni 7.758420882966615 2.102373234540625 6.332351024770028 -0.7371507029596337 -0.5455366687616411 0.4262971316713174
Ni 2.2833102118099693 7.244341830610251 7.872483545957384 1.1841994653560057 0.9932942842995798 -1.0401315563680926
Ni 6.807099285033521 1.758002071519517 3.9754412006373623 0.6749750007618376 -0.09337141107431017 0.07290620124142283
Ni 2.723264194106837 3.8835253657810442 11.685532126534788 0.2425540155809694 -0.034115453626470275 -1.0507335002536549
Ni 0.1350959321136048 6.135906499417854 13.658268766551078 0.48262460261845275 -0.6433743431374209 -0.9876900507389249
Ni 2.52612404498922 0.22403760138138534 6.693467646983436 -0.0764394112056619 -1.216127938633486 0.9618003274563566
P 4.397922310718389 8.725216369768082 7.500830654640792 -0.3282846222805701 0.331309525149823 -0.14952841788185214
P 8.932117691078195 0.08697447517841152 11.814862983194471 -1.84924666548117 0.35249824341229613 0.706037526494597
P 5.696541553373981 4.007774616035918 0.9390462694163033 0.47345964828973297 0.5569937615586472 0.08074832299366094
P 2.039056512234507 8.675961719279506 1.4507186879389997 -1.4551893676801648 1.8413340955023128 -0.12815072353702445
P 7.514008237100662 6.8360181601210614 0.6237248784278457 0.2861054178093589 4.315508724490258 -1.9099416693683815
P 8.431231180832572 9.4091529079684 4.22637064441344 -1.4594980223578475 -1.3290122229297436 1.2255453752926442
P 0.006368136379606773 6.885029716283004 9.921742540085045 -0.7156580803034964 -0.5540678461611038 -2.486234902586589
P 5.099810429962378 1.8670298770144438 13.349740927013835 1.557542413427795 -1.6024958382100336 -1.5559663271899267
