# total energy = -340890.62169047276 ev
CRYSTAL
PRIMVEC
9.07511041697432 0.00000000000000 0.00000000000000
0.00000000000000 9.07511041697432 0.00000000000000
0.00000000000000 0.00000000000000 13.28234142145967
PRIMCOORD
 96 1
Ni 6.3667343447972256 2.1848509421555127 11.395039667499546 0.5689054253945686 -0.2943010662462738 0.7104695941240217
Ni 4.575561685151126 0.1398819343232731 5.721886051007119 -0.8194350029818469 0.9423501891515448 0.5147196833807846
Ni 2.43807374337405 1.4400021935330474 4.692451827663943 1.1742624087479516 1.0931942405210269 -0.3478607446402848
Ni 3.2876855646864347 4.190586433368465 4.624658939097741 0.36159326373502887 -0.07021451334187262 0.39526545917649347
Ni 5.107635398925374 4.43162136152545 2.8374003745011174 0.46124587983236054 1.5204051422558655 -0.5902170423881512
Ni 7.483726139313271 6.425450308094503 2.5355195546719136 -0.6187408608594569 -1.1395951963830695 0.20109292022270528
Ni 5.052513179285858 4.798146914176215 11.428683823717783 1.3379223809351797 -1.9226735151127532 -0.07715469210513164
Ni 5.608572409442595 7.948889065237314 12.479251256292857 -0.4822826458980016 0.6535705669441324 1.079020005903174
Ni 1.9380896194327504 6.379820653773218 0.5543594620074974 -0.8742321533273847 -0.0023700428940733377 -1.2040555808499844
Ni 2.7717927724823634 1.3873121034396942 0.45252401988322066 -0.511173617900739 0.6183814206375092 -0.5248372314307607
Ni 0.5244070606376884 -0.06929935686718253 4.586645117295633 -0.5249493315285927 0.2970845425286819 -0.1526070568071759
Ni 8.582014131610508 2.271100789941807 1.3178557471652408 0.0025531054391568935 0.3537588552922746 -0.61455201958909
Ni 6.738133231650561 0.507750603290575 4.675330724672189 0.4901275958637171 1.0219584850034915 0.05398468174657155
Ni 0.8192056644302315 7.118407576325341 2.7000739912233644 -0.8721161354256464 0.6270072146333072 -0.47449734552562794
Ni 7.340112519656484 3.9354397087775905 3.8014193881627736 1.7085340461187346 -0.02049117797481632 -0.20774590676284865
Ni 7.4453837985202265 4.024593591842885 12.551958317057741 1.412277141697671 0.5453512922237124 -0.27643627015071104
Ni 8.199670661799441 9.052640273903169 6.752210542665513 -0.026616317035947707 0.09528276916441011 0.3983384416748624
Ni 7.078105011718971 0.5890236606174837 0.4986564353121822 -1.3771317041447895 0.4767761142574757 -1.0742084434471435
Ni 2.144375950454453 6.307292372680198 9.359361757538055 0.37653600108779023 -0.0982793898988888 -1.2602889494214167
Ni 0.00972488814055064 4.651266254830552 1.4626518536871964 0.31290531161102236 1.230619704491758 -0.2900628597952101
Ni 6.419088655811444 2.2074479666702302 7.05713333944947 -0.44580743379010324 -0.7493176773394707 0.21664783723816883
Ni 3.3865135152748973 4.422246772640429 0.6139883813956105 0.7846258657224616 -0.9353390479410343 0.5476161769984891
Ni 6.182999662739006 5.789375830891074 4.7012982451325955 -0.5353838965983554 -0.26540623758879456 1.0353495615984172
Ni 5.31568230133497 2.8402009535233033 9.329450194164357 -0.07529398474730904 -0.32546489344358787 -0.5256293883147528
P 0.2455933560339899 5.486448650850406 12.606694844511763 -0.08041227981048087 0.29820785749984774 -0.11244231166283215
P 4.011570808638621 6.192982284010568 12.702048842897723 -0.4766277616050695 0.31877539723855425 0.6630165428483807
P 2.151626963541706 8.416847125117394 1.3208623311900303 0.2334471681836947 0.241633560649229 -0.12847519675597874
P 6.444907344463802 7.920520270605585 5.9160344220736265 -0.5489068707854547 -1.6750091748884122 -0.60326719070389
P 4.703039758788971 1.0793300869915166 12.761753085700885 0.7123264448271023 -0.10522779619226395 -0.21479124364540428
P 4.131952146063409 6.164168808976742 8.405596710944344 -1.2366247730352573 0.5694828951645935 -1.144327311751416
P 4.672674439902929 1.2432719536013033 3.740453705035296 -0.11717185592801754 -1.2067812073112636 1.2901533410810166
P 0.06461932251286938 5.364007263399576 3.817822649933999 0.23811989106901568 0.7666343142410474 -0.6449830823854377
Ni 1.1979871534693998 1.0031082360280184 2.307288699562244 0.5051240692725494 0.4936109264266273 1.3269386282301665
Ni 1.9364197991473255 6.439689156071849 4.756113726045767 0.18927021655616436 0.48727315713405756 0.8803148691863549
Ni 6.0902157355749615 5.7799377162343255 9.116308524862166 0.2823323239201718 0.6356000985086409 1.3862218393715158
Ni 8.601779721728201 2.5816601377000974 10.28846156199179 0.5409464782877974 -1.0787950343765615 -0.7952092976652627
Ni 2.4849103873581693 5.105058067615261 6.880119684040086 0.4883810454862557 0.3201406530171971 0.8641338885511182
Ni 0.7207026027886069 0.39796082703491287 9.156992244098905 -0.2710780911625912 -0.4466111606383212 -0.1297077836114992
Ni 1.3839815379790914 0.7111065812135619 11.480073450512759 0.23306278826108248 1.3279058772394419 -0.9080367605816556
Ni 4.106795940459073 7.130341346299981 1.5465158549895877 -0.6598335171347088 -0.5641650824961058 -0.3341554792390503
Ni 5.96144899628206 8.287163799689559 7.976457435145269 -1.9514161344630845 -0.5365439783447276 -0.6769123269938665
Ni 5.435192428176059 2.9420327656034813 4.783608587560722 -0.45725372795383185 -0.0012426141578494728 0.9868469860123391
Ni 0.8588076305255421 7.301942605958129 7.203412318985764 0.9413942529961786 2.0788708603743484 -1.0698295976531575
Ni 5.034871164965934 4.547174740298901 7.33191860261458 0.4373726727591887 -0.5059740759776706 -1.2917265991054077
Ni 8.222803117818724 7.691400962202746 9.299392521515685 1.6125089994716617 -0.6606786387438235 -0.29362820854896526
Ni 4.843331888095403 0.44760349510736536 10.616349832766485 -0.8478382367148881 -0.9769125005074465 0.23744986158518458
Ni 8.204072090269175 7.109550268724392 4.804368809761471 0.2412152421648878 0.5769599202679289 0.5165112280635685
Ni 7.525671298874325 6.550087872225077 7.431124985300338 -0.6092208371841638 -1.0180956596139756 -2.535229587317737
Ni 2.210261250846761 5.1457327117417515 2.6485917983038707 0.5424217772817433 -0.2523640596928557 -0.13409511404591745
Ni 2.589265080086978 4.715835664237064 11.732105597266907 -1.3135508940693508 0.8235827066016332 -1.2764912702128919
Ni 0.890749296061466 3.3364733573736314 3.5772133444475926 -1.0183124036104718 -1.0009764834351857 1.2002547190466555
Ni 3.8398243472165214 2.618450634640926 2.3866777640019015 -1.6606498208429463 0.3206597587454607 -0.18739022592463211
Ni 1.0195523357953549 3.173965358182851 8.253115801065334 0.43183503077041113 0.570555816513798 -0.19964538914290134
Ni 3.442289142852187 2.7951521062578184 7.23669800834925 -0.6317221036104733 -0.08616846556796773 -0.8386252027570524
Ni 4.307364952025245 6.8096269501754385 5.90429304443622 -0.45857321809620377 -0.30397098523587 0.40860434237724463
Ni 0.9354532891375694 7.0489648327162575 11.108194490327364 -1.2555959148211215 1.0418110009530446 1.8177460237697276
P 0.19572834776048897 5.767078285014504 8.330020100319398 0.6268665752903849 -1.640341705413214 1.7982331505477802
P 8.37013753267673 1.6982163053873653 8.11416860309749 0.12278997344574338 0.171738121209672 -0.4825952920424141
P 1.8665414502463922 2.9769810151641947 10.30207604238415 -0.3088900198040422 0.33323271031446483 1.39893028807712
P 3.9246675529145505 6.260836883326448 3.5944669440489503 -0.2390488306411883 -1.1863483933782084 1.1179251676088038
P 6.999877561390914 4.098855218993059 10.170301811555433 -1.1490182894691823 0.23834074883057021 2.2787119104678237
P 6.385792076315662 7.835522788033358 10.213735289196977 -2.0550444473787124 -0.4003235904256912 0.42605313398131145
P 2.207239239134552 8.541012783515129 5.8418127254085395 1.5116420513512547 -1.059289617353782 -0.550225332486562
P 7.024244232403772 4.035057193957531 1.4767309797241974 -0.8589415457169014 -0.009703857551325223 1.0874344552191142
Ni 5.490831929099646 3.0509068632352334 0.3854054120083621 -1.0293712325277948 -0.7819336636022791 -0.32678618335817267
Ni 1.4640603107975112 1.1111111230760709 6.914095989293358 -0.5346948409511307 0.7046748418191153 0.5511496440730443
Ni 6.8102531327824725 0.7040570355737898 9.373640536000488 1.4173974936433718 2.390734360984418 -0.05980205975929701
Ni 2.967588276058679 1.3216809061342982 9.387081681787135 -0.042275620839759456 0.19865834263928367 -0.6464439832016802
Ni 6.552465551109758 1.9398592659308909 2.602369539283465 -1.0751715786913612 0.26121276833273727 -0.5475729824653794
Ni 4.384058708721581 6.860293290683739 10.634745988747925 -1.0269477106879668 1.2343724866659709 -1.0993618027843195
Ni 8.019693075383428 7.178203477741997 0.3141313111514597 0.20494983207495027 -0.40351947165516955 0.41866378349577577
Ni 7.768248995773278 4.030474263282859 8.186318452093216 0.6309320036090101 0.24810554152681788 -0.48550680926225415
Ni 3.0028450793677868 8.296919543204949 12.487034070840577 0.7834225894429798 -0.4490074287846397 -0.10191492976894705
Ni 9.236556458166326 4.809236698897895 10.471373131550617 0.19781836323649157 0.5213837256645214 -0.37885873568369594
Ni 8.582204708925692 2.651602012372759 5.9526143764567285 0.19451706677740047 -0.26554841959361364 -0.3945964581339269
Ni 3.835867599148884 2.6111723962229334 11.452459705053569 -0.5443853287660173 -0.05496684315418275 0.24196986094272518
Ni 0.9649927729911457 3.0317856059450694 12.628637553577681 0.04355911553787337 0.5110211514832748 -0.271939410721622
Ni 3.263228142571108 8.33343778683837 7.843873704482532 -0.02019113023589426 -0.18359296366572897 0.4575105811596443
Ni 5.43454809534853 7.8120364027144475 3.624299553963501 -0.21399805832014757 0.5913907509812782 0.4361262019465973
Ni 2.7165253510788983 8.398143322898585 3.4498487096878336 1.2531513099353708 0.02656155253861232 0.314068221570872
Ni 3.389671653640809 4.216214544705639 9.310695571328166 0.06788303699521857 -0.0283474407944415 -0.08843412167369286
Ni 7.2254848021282125 6.368268038428948 11.551771359018192 0.30291786138100735 -2.1321724000109668 -0.8474150331345406
Ni 0.3436962053137272 -0.08423971086661192 0.10981427905332873 0.746024865520812 0.11787273864978409 1.073657713149996
Ni 4.632807480588409 0.4154031889294055 1.7500551501395614 -0.3045633674042303 0.37019617491269147 -0.7390636037116304
Ni 5.9016984704166395 5.764056273302295 0.5313876354395841 0.21222039759443453 -0.2541360639916139 0.023835668967017012
Ni 7.886062076998202 -0.41860398031347806 11.480419212213166 1.092566377129041 0.8620577227483799 0.6409919589481735
Ni 0.2601480178479271 5.212089917866898 6.057332073595412 -1.1863288529941827 -1.3691219464664355 0.1130362364930892
Ni 8.144475841277952 8.841072228717787 2.547473289889097 -0.5870211611586729 -0.11445677098969964 -0.214288850087689
P 8.318418479379794 1.6561440942828554 3.773393632698376 1.5374222456391522 0.46882909149625707 -0.27112539946075886
P 1.7033074422358618 3.158828074291064 1.5825513027578766 0.9484053942066892 -0.7822846191837947 -1.1430101356018896
P 4.6277980197321344 1.1804812658031791 7.930859543709849 0.7220567847409888 -1.1573494350426972 0.23432519991327386
P 8.444272108283448 1.5490487182594903 12.148706700748901 -0.5310739563690917 -0.010469017852123905 1.8505597278656387
P 6.147470606122492 8.011516401050994 1.6011198858340063 2.1557144489969646 -1.4574197996725806 -0.9032897328149734
P 1.6221941068492982 3.2940472169694934 5.820189460223312 1.1296779372693575 -0.31799943830447813 0.6709162573114317
P 6.910215472151794 4.211522712708004 6.163524476149213 -0.4917558754957595 0.520287150166233 -1.121620871292836
P 2.5038138420024088 8.3528040721052 10.202365083568667 0.43349133542691154 0.18318724358687807 -0.05182084132603333
