# total energy = -340890.46344784007 ev
CRYSTAL
PRIMVEC
9.09195419179424 0.00000000000000 0.00000000000000
0.00000000000000 9.09195419179424 0.00000000000000
0.00000000000000 0.00000000000000 13.30699398850918
PRIMCOORD
 96 1
Ni 6.535960217229745 2.0310061347774457 11.358716276700367 -0.6657827927396083 -0.028402976622725274 0.4564885676530332
Ni 4.672373322624163 0.39786208678574686 5.954027885794522 0.12488465119124299 -0.7145247380300017 0.1787258653814148
Ni 2.8689297034468915 1.6648185971885456 4.9871949571352445 0.2890007370792829 0.07732515624472489 -0.9916171537074729
Ni 3.3978541249195864 4.455975726483698 4.9787048905298095 -0.01801057764480769 -0.37935727258666924 -0.7000108606845428
Ni 4.931075780528487 4.6171669781947315 2.433982445664239 0.5351517259828912 0.20074967795067364 0.4737661237865583
Ni 7.116854247523031 6.109893070877302 3.0258240977176505 0.2136545589377998 0.863853638306538 -1.781588600012564
Ni 4.95397841254722 4.448956738028572 11.6110970990181 0.8113612248347767 0.48872223087575833 0.6539989127308027
Ni 5.572885902336464 8.071054815353875 12.221834558981207 -0.38847800394101484 -0.04889004083248354 0.6909302385395133
Ni 1.9103922735783607 6.277994207595972 0.4748982126669354 0.12121774386261705 0.9754652265379586 -0.7471774910680163
Ni 2.889095657324441 1.8984636299862303 0.26765985094317063 0.44545930642206516 -0.13741595088903433 1.296304448284077
Ni 0.7057983845648761 9.388442575967671 4.798408715968056 -0.03955359392290607 -0.4997124113386749 -0.19766743948092408
Ni 8.515815019042767 2.1046964216023047 1.3208190640373245 0.7037834403530976 0.8942607898434857 0.11842835404293797
Ni 7.049410133066917 0.5776291096271782 4.645723896379581 -0.8087476984713298 0.6077995313566049 1.5461323718186404
Ni 0.7263725671751134 7.973970930996583 2.7590052525155406 -0.46050154546716815 -1.0432873283882549 -0.24799087032582454
Ni 7.829054276869324 3.9792027529107434 3.841728772293026 -0.1412111562654084 -1.142820902409219 -1.3806751985216739
Ni 7.54438519846262 3.6543290541043434 12.868142470411918 0.5143661566961077 0.9981757807615971 -0.7134443604816294
Ni 7.864803839829886 8.92769871722164 7.030085184930429 -0.038645223176023764 -0.6277577196460866 -0.6675511974939407
Ni 6.865879950482512 0.6961718237147637 0.16538446087619443 -0.351634095639788 0.1495613280023166 0.300845809343327
Ni 1.7872144813632842 6.391716367695335 9.133640566311078 0.16933876773955997 0.15804853953772133 0.7083126956820189
Ni 0.17869235388366467 4.816317137677979 1.4495311286262802 -1.452422089347673 0.15508097226896517 0.4390325769601149
Ni 6.482890481980306 2.0648736632688216 6.934207802863287 0.28488517224901255 -0.09776079839125744 0.5834709819135693
Ni 3.514631181548641 4.3928321062494415 0.3563564077747456 -0.2369297274156565 0.43751382632274327 0.02101311191655736
Ni 5.875729796704045 5.293972030784802 4.8597012143765825 -0.7077827913204778 1.2626589923154898 -0.24241131935551802
Ni 5.716702430034875 2.8103229682373856 9.178112949898384 -0.6111237106338314 -0.14476930593031198 0.1265440411715369
P 0.027773191753719645 5.914816106766977 12.744054573605705 -0.2922963771114192 -1.251939806125773 -0.7401923179994349
P 4.021498522720644 6.456987505155627 12.586472827615767 0.048898782583231916 -2.679618112869863 -0.4483638816633697
P 2.3760548794153524 8.355296571924582 1.2405443841565043 0.8636530922599578 0.29857141148685357 2.3901728320539934
P 6.1171484501353195 7.687828956048777 5.614380671002716 1.621977086863097 -0.33133909283617774 0.3745449387996904
P 4.775376069007733 1.353119139666442 12.618995656116839 1.342913406391868 -1.9801970632505184 0.6553582549721745
P 3.955418201358142 6.047085852939469 8.29829456658856 -0.5064430451942891 -0.23195361435730374 -0.18007132366571568
P 4.691093655822484 1.2219131521069668 3.6276723542965943 0.4332961886969699 -0.9096766101779238 0.8154968442697053
P 0.10406559580119151 5.963030738603156 3.61428627048509 -0.09874938755677186 -0.8023582500052182 -0.874282804059662
Ni 1.5700349771824806 1.288757197601892 2.4573496765301948 -0.6274193624700615 -0.32643702754887005 0.1111729580321053
Ni 1.8281100902637428 6.498001309457533 4.700230160354291 0.45844877670319756 0.6225334951326698 1.0762488709159401
Ni 5.800693900693487 5.557902362214642 9.570137093048075 0.4219139150019572 0.5268164666443185 -1.7294944504204859
Ni 8.683352454616077 2.185978489981607 10.324670169215493 0.8215877876587915 0.2778004974880893 -0.08327083230519854
Ni 2.3306314774441006 5.115196940120126 7.043245788283789 -0.6036790814303281 0.4227451526540009 0.35970633112496114
Ni 0.5320365973123182 -0.012361420600503235 9.132655907697488 1.1193151059777948 -0.7271413983527477 0.7329605761376861
Ni 1.8359382626210783 1.2823746459237855 11.688157773174972 -2.8752610657215905 -1.201441797376221 -1.4284640358701786
Ni 4.184362693959843 6.995540305869226 1.453456125149697 -0.2816198712341795 -0.23645741576492826 0.20528947480255613
Ni 5.5742406034761185 7.631986174842326 7.797738859853796 0.1780658631999127 0.746820879059546 0.6129342814800088
Ni 5.167321112157993 2.8997968871323194 5.063776485318562 0.5290332717899793 -0.542719253917504 -0.6511545013034721
Ni 0.889543137262677 7.461348382969536 7.083485867303918 -0.36829741522808185 0.08640783527228345 -0.27361499865183203
Ni 5.314419835235032 4.637878449309726 7.156993405854233 -0.25993313028936527 -0.24033463933214735 0.4407513594234345
Ni 8.187713676581485 7.176952063181553 9.094837925211618 0.11196922868115555 -0.4838818720643215 0.31613101763717166
Ni 4.783231517226941 0.44900705538240093 10.412669373178534 -0.240575808808676 -0.28565547475613384 -0.4361683680384424
Ni 8.43376922653104 7.413733820094547 5.126386407855518 -1.058555567401235 -0.3379051760894697 -0.48608736435607247
Ni 7.2498877178279475 6.074752668831888 7.053811547977702 0.9303927596793525 -0.07535234878907021 -0.7748939831466785
Ni 2.2967548569987675 5.332576467287993 2.6837011438632405 -0.1844738236087855 -0.8161267645442202 -0.605174435028932
Ni 2.5172438324200708 5.232092192150628 11.299780412757602 -0.575886484698092 -0.36157475179226767 0.7344075929968579
Ni 1.2301959221621732 3.3157083209143297 4.015957885978994 -0.5766873833328326 -0.08439877526205465 -2.1198401036978587
Ni 3.4299941821590525 2.6965280725063634 2.7035952483174626 1.3742505259422526 0.9350796236320607 0.5089007627061622
Ni 1.3365535995560294 3.2316895743938456 8.387105682039998 -1.7265623643753554 0.7935951591006075 -1.9245069687770662
Ni 3.8582706733231484 2.8326528071568005 7.28299788655467 -0.8794584347233305 -1.0109371941923235 -0.5959732281456381
Ni 3.9905313275416843 6.61723319365509 5.941253690484352 0.6797356553752745 1.0993720871969648 -0.018839244193690135
Ni 0.7156067844941368 7.454993107153302 11.386608573050928 1.19643303130772 -0.7710630394363623 -0.4147569922422018
P 0.1921820859702833 5.423032317210328 7.878112642032751 0.46183337690471427 0.8920352429470767 0.8194627708959888
P 8.676187994897633 1.543595575074314 8.0745506716505 -0.08483971945421517 1.441779264921846 -0.6989155707378351
P 1.671528459209119 3.2215338618234113 10.395263736522457 1.1979960049194658 0.5556123078300883 2.5596198432366433
P 4.033027120338648 6.280158092637836 3.566248022555685 -0.16539418126951516 -0.3021125918708926 1.365949462275725
P 6.968437191122168 4.12683790127127 10.600338213204356 0.3437711479519434 -1.2723355961733056 0.40648266804855154
P 6.329218276192056 7.764474127909796 10.060552543534131 -0.1711573090055375 -0.042019281854579246 0.6703259320256003
P 2.4255151089436975 8.422140617419506 5.760318351559392 0.2888953218496702 0.4865817874939878 0.6815058599018199
P 6.991076156476134 4.026326350272032 1.641816862871678 0.3400235079840531 1.056535708757729 0.7982136317092253
Ni 5.420486570102251 2.937073898357727 0.6554089573420834 -1.2840803954140594 -0.12280874249882077 -1.4098374219079268
Ni 1.6763926545763366 1.1812539340094013 6.98643744156706 -0.5129854742984973 -0.34790368206307826 0.5271800206313243
Ni 6.997558719647771 0.6803063640590723 9.212445077236984 -0.5493030777826088 -0.5295850305283911 -0.10422763706252372
Ni 2.6744619002517136 1.5236932878615297 9.201001034790783 0.8392224700214191 -1.5566736376695964 0.5341952756068928
Ni 6.413773447996027 2.040189008274436 2.4791194510858325 0.02599950938755522 -0.3787165536788768 1.9644693681026166
Ni 4.082578269406567 6.987575754202529 10.34392510930651 -0.5223383762683069 1.0401001889095247 0.1606864913812007
Ni 8.340113008815695 7.464348727775484 0.8578003984111495 -0.9965253896423677 -2.4044586525490463 -0.5429560525186584
Ni 7.749072357905932 3.91565908670236 8.44918281607505 0.29332816081004315 -0.06460179514078551 -0.38361013432575225
Ni 2.9402288063809503 8.344713537518148 12.466470854918015 1.0821937756454652 0.018104680020510754 0.6082708145660686
Ni 0.03443213883213136 4.734898689989316 10.597556984488781 -0.009656035032525306 0.5340901174875963 0.20068437193037694
Ni 8.725757327873467 2.1786776509538015 5.79679254325036 -0.2869361412407704 0.930597933711623 0.356086989204819
Ni 3.676658893023758 2.468510959208319 11.29723830243111 0.6280212577201184 2.0223682973019304 -1.1058409827507598
Ni 0.9721662688506978 3.284204700451882 12.757415199946129 -0.1301366436188017 0.9534390999758546 -0.4652357177180439
Ni 3.1824657356683934 8.177357941023986 7.907934251013077 -0.24052670073829543 0.6279168709317702 0.3815807626005493
Ni 5.445553087162848 8.094175654267584 3.5032926057683476 -0.5254890060821467 -0.08944559365734274 0.07103932323601313
Ni 2.883685944719778 8.506068444400416 3.5255278883666046 1.6553631185227105 0.11838335973761546 0.34258252696048097
Ni 3.6912423871714535 4.06701284423147 9.423893013643033 -0.9095087171414916 0.7491189310651034 -0.5036048044145456
Ni 7.194899580293494 6.170090898029355 11.564881787857155 0.7523664914681236 0.001233615296784972 0.03910262242841653
Ni 0.6391034471148529 0.0011619517157578061 0.4738844598006835 0.22230837795805586 1.0626929866083765 -0.9180211254878772
Ni 4.387286014335418 0.3013346300106492 1.460029607860909 0.4856258513386217 0.7574241084966891 -0.19751343040156308
Ni 5.998834853287462 5.790701843294287 0.385545216759635 0.39167594205302225 -0.001432361571152372 -0.07665486965057766
Ni 7.9686794137933665 8.699381569443002 11.384758360420594 -0.9051113594047445 1.07397755838326 -0.15162772361304208
Ni 0.008984668900718812 4.802297344675643 5.622244301980485 1.0271644546844634 1.275691657129732 1.1898965157407828
Ni 7.579871094758416 8.912415142619224 2.6088761811844954 0.7817323462247505 -0.21767242184794128 -0.9159513874430418
P 8.668623489205062 1.680702240752152 3.4891737104678757 -0.48975247191248555 0.11121846655806006 0.24779366671335387
P 1.8232004351267381 3.3914170215177353 1.5242760821102 -0.41769807714839674 0.0875864289614169 -0.3717398652507275
P 4.628177334437162 0.9258700392995339 8.203974636234323 0.5667690957778562 0.563119671950727 -0.5114620956754353
P 8.793901522784303 1.4015883462134282 12.528668002745302 -1.0224621641127876 1.1442725472540811 -1.351175389290344
P 6.281894655843703 7.894379966053361 1.1682378927239638 -0.7923456029642224 -0.32422459327858355 0.6573068940581132
P 1.686857493581323 3.3174176082583235 6.013350157780477 1.44587400381651 -1.1302047563071052 1.284076795869634
P 7.166596327624056 4.0006052125265015 5.975838574142967 -1.3688658645915714 -1.2345506641150479 0.6007968747865265
P 2.445371936386694 8.611253259733767 10.422835996093719 -0.7133168337648296 -0.010884508122987706 -2.23172062931995
