# total energy = -340865.25531598576 ev
CRYSTAL
PRIMVEC
9.28063942676998 0.00000000000000 0.00000000000000

0.00000000000000 9.28063942676998 0.00000000000000

0.00000000000000 0.00000000000000 13.58315390248545

PRIMCOORD
 96 1
Ni 4.216240927836564 5.747824864444939 8.445936926819554 0.06400195677325753 0.8082072525868275 1.8051411905215236
Ni 7.040135353476287 6.391882684433718 5.647821333517693 -0.37124081412712195 -0.4759417912816384 -0.2984274297098215
Ni 1.404912488079213 8.436695266005918 4.187251922295815 0.6482393845392062 -0.47784800716541576 0.2817276004566374
Ni 7.281988818834186 1.665123058367195 12.219758632945853 1.293308855990863 1.1489378139402342 -0.5957731963196901
Ni 5.652549819342706 0.03536109262113091 2.6221602367743646 -0.18826131567567578 0.33673583837171683 -0.13228505742037217
Ni 6.9598114186078055 1.6559816284601523 5.81858881256495 1.1613068770285482 1.3239260666560877 0.9568715226961715
Ni 3.478058862043495 6.300867452861771 3.7782764130860755 0.3183056566909873 -0.6440292031126005 -1.069664532830203
Ni 8.685073020931991 4.735242130569099 8.996082099584632 0.28195205776261767 0.5796310393421888 -1.5533443161860474
Ni 2.922519781601288 1.512326609646839 10.590092257786635 0.8768099413568898 0.4680569892169229 -0.6514802600740071
Ni 8.811475330915668 6.533263946569645 3.972026467789982 -0.3354934813241835 0.971948471633952 -1.1354102117674445
Ni 0.19869477942925942 1.2347612434947257 6.260802004078325 -0.6754005183350303 -1.9674942709718697 0.05804136831444842
Ni 8.844635055847508 1.1807943248049257 10.372626456905614 0.607335961456625 0.2428322089430205 -1.1401305000612492
Ni 1.9595049432924672 3.209477154926932 2.94945962194054 -0.28805482822624584 0.04415663991255621 0.41928419068859396
Ni 2.5190254180799747 0.8423646686869569 2.1690664235117327 -2.8189814172932546 0.07484815545914206 2.733283206493486
Ni 0.8687402461446375 3.5183832406689777 7.42323458363342 -1.1453950908942985 0.45597023325571795 -0.5767118088128649
Ni 0.5382937961241695 8.780078927488738 2.0063545395500735 -1.0470254552744485 -0.19850587622181942 -0.6944498216569975
Ni 6.135560702096042 8.007382163396896 7.494532168524652 -1.8750849667005127 -0.8211085340295278 -0.15784902193240558
Ni 2.2465272810946075 8.594828082438505 0.2785593226425138 0.8615748695746904 0.06157046451362945 -0.23114345975118256
Ni 7.9521809196536575 3.3870250691925494 10.547807808098849 -0.2673728743968621 -1.215037790893101 0.5128427780730459
Ni 0.9592004954745118 6.735971674518503 0.7250295434943272 -1.0542014041975973 -0.29189759901110374 0.38800980605534463
Ni 5.194977169457598 0.8521343978881182 12.045024608576496 -2.1042731024975376 -0.8564925699557766 -0.4203157172769019
Ni 0.6792110262851194 4.710620593976831 4.629995038324614 -0.36383449436072174 -2.015162266471794 -0.41830691437698925
Ni 2.697093048157566 5.090829832993809 1.6183783333359334 1.3430321913579193 2.063683354000633 0.7585512801225969
Ni 3.002342561936795 6.948340548186379 10.695429372234264 1.2044294192496354 0.6360613544157755 0.3233763863456753
P 0.7286257913003974 5.355337339370076 2.3880273354161283 -0.5307690235341632 -0.5212034913329152 1.2605743418723194
P 7.090538506598264 8.976086033718932 12.667255292526315 -0.9561590700101791 -1.654524681781815 2.049693467479444
P 6.847840503045907 5.522184676292729 3.4282116192275387 -0.23842225280078294 0.5106984780365333 -0.9961291826452137
P 0.7313162486913127 1.3021850894588525 8.455336358504685 0.11968176683406487 -0.04938137864660528 0.5342389843606347
P 6.444800890860071 6.541486593166233 9.115613952146802 0.6594061997893031 -0.5432306463362838 -0.5433905689529157
P 9.296602199474897 5.669292092999869 6.558435825084236 0.15252503861633088 0.7964753088618799 0.980020450008809
P 2.5179674251770274 7.576008758818977 2.2803533559425153 0.19033002527924642 0.027269120128598202 -0.14695654338961786
P 0.34200270232528984 1.585448768263681 1.4024744640826852 0.3519007190376133 0.3734385931093891 -0.823594276565859
Ni 1.4645777194217282 3.1930504230127537 9.67348804148709 -1.3574198275381588 -1.3598616042104323 2.2340130248985526
Ni 0.7593261467648613 7.535480206124505 12.001423236143726 0.15267853347505964 -1.0213604464081765 0.8437211292227211
Ni 0.1349488508987986 0.34218181866763087 12.80104963187137 -0.5244685352374322 -0.17067265605963508 1.1675472015113053
Ni 3.7597819546914004 8.047808629056872 5.154276924932385 0.19395219541286596 -0.29716244695446886 1.2725554254935956
Ni 1.467677453014573 8.48780374772986 8.209916343387114 0.962528720981949 -0.19378353104548562 -2.3796544490211726
Ni 1.9437092948642576 6.370787790851273 5.6418715155345405 0.8878939670851935 0.4045093463722646 1.1648262030357166
Ni 5.878013675344427 5.486537739975011 13.241660056943177 0.8406034095293458 0.031276184405462266 -0.27162445058436446
Ni 2.8652025520521556 1.9239786552882445 8.076598100848383 -0.07142087494514796 -0.587213222564821 0.40388533963502055
Ni 7.302499032128161 5.641505858338259 10.991977358418728 -0.8810247507691858 0.7985206214266829 -0.033914393359257715
Ni 4.985114068454598 1.000109554388465 7.201082059805134 0.18865855111409446 0.3694382137007444 1.0367821802798853
Ni 8.178647084721327 2.3881034366600247 7.8655563586289405 -1.7197859648834704 0.8754662828448019 1.4944879081694713
Ni 4.8189813407734094 5.620160387489326 6.214252172476555 -0.5232585740897311 1.1329846330450875 0.8477045393505014
Ni 8.156169375853452 8.881126530359683 3.746410409300469 -0.7861746982668202 0.11524250011578863 1.4195147970966908
Ni 7.912784604978128 3.2023867463492866 0.2539164405793967 -0.8744355275874424 -0.6146726043273544 0.47646423944401173
Ni 0.45922738790787515 1.2686448583075303 3.686889027870197 0.4777487625833901 0.9504311663874663 -0.18906041453820344
Ni 7.816934160226924 4.234226807186665 6.053767641994783 -0.6889767143575682 -1.4146595258869186 0.47398569599653206
Ni 1.465774921917168 8.857488741554365 10.316650279764165 -0.8204297627949484 1.0738317768340153 0.09918184710850014
Ni 4.072261086640768 1.0387819791830304 0.9167118717177375 5.043264102277921 2.0197781679772504 -0.2724806279370726
Ni 4.220649231598844 2.834762054493679 3.044269707003847 -0.22504506016292852 -1.2185874559175724 -1.4950489228792638
Ni 1.6368078272541116 2.6915896289343415 5.450661571861657 1.8691698867676583 0.3880612281185704 -1.2959313812153745
Ni 5.844937476168082 4.074312107970165 1.5570509394590517 0.06757913260155457 -0.3969369333416454 0.5875675205804461
Ni 4.464600121483639 2.6087506407614858 5.357793924645603 -0.476890785458469 -1.3001117378453093 2.03567272772032
Ni 5.155107542167593 4.493750610151681 4.373856812649029 1.2605049220869646 1.4437204478086167 -1.807537715778158
Ni 8.004635094105033 9.245038966415477 8.20437487354194 1.362182281923809 0.8843170483672125 -0.6017340418888153
P 8.514160763908542 2.6993389629164537 4.708776530908273 0.7681641206220126 0.04545041902331527 -0.6730803548422859
P 3.6977501602765037 3.508397272567477 9.76247081300864 0.5155645478795831 0.8103664650216754 -0.5077658777707708
P 6.155903863879024 0.27362573468456064 9.179074036980676 -0.8830536082737566 0.643226247595331 0.8967501319242427
P 6.55276257015817 1.5996110241399726 1.4579884653770576 -0.5917887577506453 1.343143520124803 0.26608835125748365
P 8.316705877916421 6.46339929241714 12.808044449862173 -0.44718965884961054 0.15751889228649646 1.009650871280732
P 2.7890734662374643 9.18002808672123 11.872654363087669 1.0456411733324122 -0.8804819908918384 0.971720671893862
P 3.6549014477071475 3.396092253983596 0.9311228487326165 0.8660375333317342 -1.384593045518841 -0.4476298317108226
P 6.467362125483442 3.6993835528284222 12.107710688076109 -0.632175389097808 0.5521382332385587 -0.1539815685571993
Ni 2.5704680028259013 5.650443114176312 12.945533411791994 -0.636272184875001 -0.47459170501164727 -1.0498732091358887
Ni 8.918397578589818 3.4010573961158475 2.4799854799612278 -1.798701862654083 -0.8167757109821289 2.0830422181432193
Ni 6.018327663937907 4.399236577488409 9.012340851923868 1.2042815808178613 -0.6574549896002032 -0.20443509722206082
Ni 4.831398836423788 8.467089360366897 0.1999086870757987 1.503852894324139 -1.6434630246510147 -0.697847791594953
Ni 4.090209843432869 8.624173464536039 9.149395479925111 -0.41631585208888944 0.5016283974144651 -0.6464311276858739
Ni 3.059075111197456 4.1004371081613575 7.217598813922458 1.774834312007866 -0.6566931717335142 -2.2145891118459864
Ni 4.896316909723041 5.478816247911398 10.928856016926586 -1.6253794276764266 -4.382911479414949 -0.043550373787125
Ni 4.989104743439398 6.595240057147544 1.6426648388422684 -0.16082635939317463 -0.2043623350025964 0.9045799123813066
Ni 0.2024070352290737 5.292544532516217 11.330822787186277 1.6032206321912001 -1.8475183699361537 0.1947626071293033
Ni 5.547446577010465 0.23391295020209746 4.998627607629872 -0.1649303542592192 -0.7460500623317926 -0.9560665102963728
Ni 7.771059959180719 8.454356322973533 10.801636082603002 0.13265966715097152 -0.776246897630147 -1.1902431004469245
Ni 1.9165912662466142 5.1146996377866145 8.784565188622814 0.11101663495989912 2.3556781407112335 -0.19005337457909205
Ni 2.5982727987665104 1.7081016998895446 13.128594025920336 -2.7313723626240187 0.4277228083742505 -0.41261834863264424
Ni 9.494929465579975 7.902009782519167 6.326544198165137 -1.3047330386674045 0.13592805348959816 -0.7679003254376646
Ni 0.41834709897637035 2.4845571229786994 12.118427970570172 -1.4972634140320793 -0.45761445372736026 -0.0634036610676263
Ni 6.517607507733929 2.705130081964164 3.557034319992694 1.1479741644753843 -0.8626123097002694 -0.5574102802707754
Ni 7.299055914873833 7.8111616024582124 1.902741767921457 0.02918279221154329 -1.1070082635859837 -1.0646207997587085
Ni 8.646957434507398 7.080543257857265 8.632053655535094 -0.06521808856854575 -0.6244286552728536 0.11296913070057962
Ni 8.175473106012486 5.4028078104102 1.2561132107913073 -1.5110031322156752 0.819371496733763 -0.15568081063649317
Ni 5.5275024827259625 7.462051786404178 10.781778298265845 0.6657287995732212 4.197999025606848 0.6160229477076616
Ni 2.647163207650064 0.5434482633022116 6.139463211005597 -0.03879151894590094 0.0756508538660955 -0.4100912113354163
Ni 3.8921609965127777 3.2277321728225186 12.136833334825651 1.6997190189302664 1.5244808549871358 -0.4191759472455039
Ni 0.9246913655594383 3.823280090147224 0.6315595827747534 1.0210390585130158 -0.12013685209361245 -1.533214892426024
Ni 5.592383433467216 2.413513827609753 10.272260052973936 -0.018555908625316427 -0.7204619294500431 -0.01463677607656834
P 5.991627264097742 3.366301401190086 7.156312254859374 -0.4376426385911237 -0.9123762684972739 -1.1292981853324358
P 1.1264747418141432 6.6326503149701725 9.938427097600087 -2.2623293553447423 1.2707854780773664 -0.5670938261071266
P 3.681620408826311 0.8471302770699686 4.0031862149096735 -0.21709186675412287 -0.3086192826411588 0.9458718291515581
P 2.974908991576167 4.411078673489817 4.848533681131781 0.026999925627611564 -0.25495367479690284 0.11876105479200838
P 1.8118499688548544 3.864031378189685 11.990243777802586 1.2174687689320967 0.8482498703310101 -0.2573000635418924
P 3.388890477731956 7.394683624277048 7.379509778695308 -0.23062898200860926 0.7908132254800961 -1.3670123563226007
P 7.308939795940838 8.432342646080636 5.764839988903388 1.1017069059777282 1.862714618060618 -0.17757015451041677
P 4.2467278285925385 6.794346896970583 12.537726335095245 1.0045670289999216 0.37134365825357335 1.065137591494127
