# total energy = -340886.7931550233 ev
CRYSTAL
PRIMVEC
9.12773580685933 0.00000000000000 0.00000000000000

0.00000000000000 9.12773580685933 0.00000000000000

0.00000000000000 0.00000000000000 13.35936399901420

PRIMCOORD
 96 1
Ni 5.232766670376466 3.2802892031028583 9.809459982981396 0.03773453843629631 0.973096469195466 -0.47316782808092706
Ni 4.563648865284701 0.8771151732710148 6.609331468991248 -0.8221937966739066 -0.4332655925693506 -0.16194684615086302
Ni 3.752895982823977 2.8711475708294665 3.1245682037518296 -0.7258126522389952 0.6788578807560114 -0.14330120602521773
Ni 4.728139793251835 4.997590555894851 2.64527444473829 0.07381200088514384 -0.5466967505080133 -0.1951852964890187
Ni 4.883603390451558 4.7034766509530055 11.734932130934014 -0.6123827798519131 0.9880543760568788 1.1486459937314282
Ni 6.089194743090092 5.789613324366974 5.178289604431944 -0.14554475064375577 0.631897195735757 0.930793594662197
Ni 3.465116726570285 3.373848495687239 7.808895777640175 0.17002011007730075 -0.19128364744176735 -1.00554739063532
Ni 5.388942230973417 7.914002568863434 12.674870771821665 -0.20197300883481345 0.7362058225478612 0.9006327548081005
Ni 2.2147812127367628 5.62004737526063 11.754743881622248 -1.555669107664482 -0.0582856231147706 2.412434985886303
Ni 8.427282539585137 7.492419832610285 9.93430367745882 0.07559711781002465 -1.1815183189794167 -1.17753799417543
Ni 8.388416640285207 0.08952483333342472 6.988202790825852 -2.9539674185845577 -0.3787348085113219 0.7069266139677696
Ni 8.611772336825673 2.397856210918706 1.8131197600021904 1.14129135313857 -0.07747633711060851 -0.8483331740734358
Ni 1.546913907458077 1.3346027713104975 3.0666289875948918 -0.7701320429816608 0.2663770861424961 0.4002775676791042
Ni 1.66800245140192 6.416515351097495 0.9028663416845811 0.5624254740971798 0.9048393366902804 -1.002731004232447
Ni 7.529049436624052 3.714650769562655 4.245298996082364 0.4667858358139832 2.169237937404696 1.2073427362416884
Ni 7.517265529626352 3.848645932015211 13.264205776065399 -0.353953487801584 0.8421707540164658 0.30747565595501886
Ni 4.468473963452766 0.4561020077356477 10.95473160595021 -0.8198996013230911 -0.8294908445559521 0.48817767122619804
Ni 0.5347356266386643 0.2881790510844431 0.8506584308753244 -0.22718987442007324 -0.8136086261080568 -0.16085155620415525
Ni 3.2743561747926293 4.5758161371886015 9.834789449998143 -0.433210313851383 0.777862321746383 -0.5835216326458467
Ni 9.067949191995389 4.730129639669727 2.0151265951352815 -0.4111713317734725 0.826005457110513 -0.07393849916067911
Ni 6.381784316143 1.9983078290361613 7.6186053042594075 0.36018558475422485 1.038077244942225 0.09357555666531625
Ni 3.193274497131454 4.312252764176506 0.49604132877293694 -0.03144716276568777 1.1634308653500867 -0.537758567478119
Ni 0.646100393568835 0.12142809571790533 5.163741819015263 0.7061334286425129 0.7079314010832001 -0.7220336448125372
Ni 6.680836326186128 0.9426669211367696 0.8986538915843185 0.03171969970078408 -0.9334531437722311 -0.6722208350554681
P 9.009102678893779 5.7196948676648915 13.169847806593106 0.31801383648218134 -0.5352185746650846 -1.1626831885507847
P 3.701023059920852 6.550501385814189 13.248882133100459 0.344180210464904 -1.597039700191469 0.2795388203354347
P 2.350747966135488 8.781493457441671 1.9554631496740322 0.5698701033006831 -0.058457372805944485 -0.01864898255975498
P 6.352840265724945 8.329095484918778 6.213854057303107 0.5251784168202632 0.09298548848980115 0.4030037083610156
P 4.610592810822405 1.1095675713714424 13.106952229863161 -0.18367446763594172 -0.47564997107283247 0.4739209041968676
P 4.143161457334979 6.5336333299414155 8.936185760961065 -0.10343727995074445 -0.2564809100747067 -1.9395898312521176
P 4.517362116729053 1.5404971091471678 4.527902826102364 1.0552658409063695 -0.7123531842999796 -0.16799948010284615
P 8.914968338950098 5.824499530831121 3.983842304507193 0.18641217828207896 -0.11747601743199768 -0.7638019869985749
Ni 2.4524765823162604 1.906729255133811 5.253730341330471 0.22048366604449124 0.1392036389170764 0.8931721847649972
Ni 1.7111310033493539 6.903553081216263 5.48885534049126 0.7624691271197643 0.5137999997799926 -0.9510934825618136
Ni 6.3797762142533845 1.2329745602242057 10.008087730298415 1.5363526667240575 -0.6453990868769336 -1.4850586444357714
Ni 8.338177582101359 2.4394695587130664 10.844103447304093 0.0324141546646474 1.3296400863217295 0.48057749028143687
Ni 2.9681662753055034 4.620532915176004 5.171303235403252 0.2518968902484501 0.7267858147855418 -0.4046733827539547
Ni 1.6955043195537969 6.911393806321628 9.736932819369983 0.1727465078695283 -0.6459277056868941 -0.3699843160122015
Ni 1.457316052237757 1.6150798388746772 12.068822883214805 -0.0837274602266429 -0.8627745463097464 0.576298118314214
Ni 4.236163958031784 7.42220928836062 2.035405685899644 -0.3775006789939047 -0.5311189506744144 -0.6759939289446552
Ni 6.119380165585365 8.376787904797158 8.456704883362356 -0.7548458062465515 0.0252690589794339 -1.2273855138251766
Ni 6.777544687642861 1.3435479524551504 5.319324989554777 -1.0940007955827225 -0.9555510041125349 -0.943944016001226
Ni 8.112129203481635 7.541426646452776 5.116756798666179 -0.3605365403357404 -0.6192437686378045 0.29754374155328756
Ni 5.20425162354392 5.275046342888745 7.437866093684522 -0.2818944650518048 -0.1840285085412508 0.6621891618510789
Ni 0.7322926905390834 7.638080241494337 7.65375347674279 -0.18590772784183465 -0.7589611139665058 0.3989583346470484
Ni 6.300565722443897 2.1930024349702917 12.12922019863935 -1.1891750641937262 0.12496409827892674 -0.032606987401743844
Ni 0.9679781326817928 7.597407050493753 3.2495588547766308 -0.7197502480949992 0.2696614133207227 -0.5701770930181406
Ni 7.574669860461782 6.476146849483227 7.540946527546441 0.000669515263198847 -0.5413771380673128 -0.44913546972207163
Ni 2.4211410651023897 5.659351405881932 2.929949358025353 -0.45877787790784214 -0.6904422431595012 0.8102201692517982
Ni 1.268956094991779 1.1437509421742234 7.5507926162206624 0.6433149506543953 0.9977559196153589 0.7677722845002326
Ni 0.9967670115901962 3.657219055519638 4.045843363122672 -0.4343824797826132 -0.06122516535906875 0.5589436861961664
Ni 0.6933391649748784 7.569394029133608 11.913827538864798 -0.8100134525576308 -0.06253514241974391 1.152060418729616
Ni 2.395245678462205 5.694995214422615 7.426951147140873 0.05121406097996986 -0.3811549879170404 1.139280236245812
Ni 6.622564860443818 2.143557489806429 2.911807070226259 -2.266155413959052 -1.556547139394061 0.5829855576367184
Ni 4.251096933901837 7.600419203328176 6.742778054518505 0.13314097766276425 -1.342899779545113 -0.13480936650412265
Ni 8.44434227791101 7.00906970777972 1.3472647664981123 -0.7467038938657076 1.378706247720761 -0.001627508301093971
P 0.1119544186668489 5.535780117783654 8.710906850474498 0.6871538022162166 1.6209005659694666 -0.01744802027311834
P 8.224016989676691 1.6242167024724299 8.665631455052347 1.6297474748371348 -0.5557444625325783 0.5650461995494785
P 1.8084691785805571 3.7014064248270513 11.172623439803749 -0.4928635067376415 -2.65278299495489 -0.9288562684301681
P 4.148565076965219 6.327866780406812 4.144181938204339 -0.26357021282132026 1.32523424394455 1.3709330315332455
P 6.732891803806491 4.244570602760586 10.990708576849853 2.4147438365251377 -0.20502079452220176 0.2754628504938482
P 6.500837374989643 8.188993867174617 10.51156177438369 -1.2000960819816042 -0.555531575190824 1.3915491651217002
P 2.3576576621829393 8.66635619727978 6.674645895724594 0.446750771539979 0.4066531321881448 -0.87919746775246
P 6.547617021281832 4.055854663815994 2.06089580106756 1.5543760998846714 0.9037355621031404 -0.45313070692439383
Ni 2.6760422167815516 1.8435105565543557 1.0254354043852227 0.601711416180996 -0.6247816677368982 -1.205628581764059
Ni 1.0212019604924778 3.446897765789951 8.771464814050212 0.7889558605563832 0.11607296643688397 0.07185616271035367
Ni 0.2227979918793057 0.4718573926068574 10.41059167305304 0.5906034791932925 -0.8881932434931671 -1.5016178343460331
Ni 2.476090034990972 1.680279256136163 9.872596531938095 0.22109918814130308 0.8902809792601313 -0.5450281045563388
Ni 5.064314305045272 2.9296472299683245 0.9314443698945749 0.03621630201955698 0.0040142633657156675 -0.09664391117799485
Ni 3.8333387189748205 6.841247156222996 10.975532803205875 1.7418331744914968 2.0823775879760267 -0.12487230989606882
Ni 7.297688715732706 6.605258673249673 12.02480346424725 0.39995206601888544 -1.3725829084318426 0.13174049777081182
Ni 7.850701720661221 3.8198753085785317 8.800627930128952 -1.976071214007603 0.5577946601933877 -0.5807618105125224
Ni 2.794054713739937 8.621977145519267 12.960734116317946 1.0348466538200694 0.14780243632968096 1.7557806378105247
Ni 8.990719418867931 4.808372591477855 10.938259693813842 -0.26456497263442175 0.9615666141789955 0.025747798388065336
Ni 8.633213388365256 2.3772366556066946 6.302346543710552 1.1496934611593361 1.7345189002182706 0.1257256590352996
Ni 3.6695962653483623 2.649398355800692 11.834312180677522 0.20071959604368658 0.4293302620706865 0.4209155556444299
Ni 0.7241069370181398 3.5678493936958655 13.102503371404074 0.6524559937237151 0.9868343876068488 0.9847006290932976
Ni 3.2546676485385313 8.717946160371186 8.960045662504047 0.4137964281011454 -0.6801706860301641 -1.3068179462208913
Ni 5.501332042640879 8.211064732488667 4.179597553348475 0.4832470666938001 -0.2650264856518726 0.724258677488314
Ni 3.1170944136281133 8.612447789279454 4.143125859165118 -0.2731002637989426 0.07212689987323707 0.43002034615917556
Ni 5.047199800304227 3.6843466865011774 5.616476604991458 0.6117340905243207 -2.038629496355799 -0.3605231705993017
Ni 6.341622278350681 5.996393052582249 9.62882847968968 -0.7669868124844597 0.011101509229800235 0.44664329942783726
Ni 7.759880748835408 8.733737143412258 3.017960812752876 0.6932452598259351 1.5517633448521728 0.23655846011916676
Ni 4.777365672755012 0.6676518907123453 2.4297339156427733 -0.6583615605748726 -0.1132933468092178 -0.33303344981946514
Ni 5.766940028486038 5.557631917437021 0.5175809598598268 -0.03478522599998526 1.0309362630220698 0.35518478910552376
Ni 7.597343156342719 9.020640137023209 12.127750633165585 0.762230785856713 0.3838898703497001 0.2660240736784515
Ni 0.1521566184969606 5.255357816634645 6.017886132216242 -0.6171478053407243 -1.092537066553002 0.9274339341613448
Ni 6.857038139264067 6.339805858914165 3.0825660144097533 0.3970989128408064 -0.7812430652931577 -0.8750736753920736
P 8.58520149773171 1.8109884336784388 3.917473624281799 0.6312608477033386 -1.2702882267259736 1.159400918255087
P 1.8677446952676757 3.6069708695999294 2.0365813382786553 -0.23956793636945192 -0.48659618567169105 -0.038315093530114655
P 4.435157727556865 1.6941807978538226 8.68766124555502 -0.19487110768270954 -2.1112397636233577 0.6387404439098353
P 8.444470066213077 1.687289357278095 12.997271530199507 0.3261755463573673 0.7801598595313081 0.12768741074736073
P 6.351014718552567 7.982159372544172 1.5835389476039134 -0.4048291916055286 -0.04548281492314748 -0.4023691601008103
P 1.693642261437971 3.6188460539562493 6.557230352691575 -0.8501802545845035 -0.809899809797902 0.14623509184256106
P 7.021383023457411 4.056813076081492 6.568077753989847 -0.19781733479522706 0.5546185764582512 -0.2103635468913538
P 2.2449666352320357 8.79326823670351 10.969012861479724 -0.3491334407051213 0.7301927835845617 -1.7334223247199825
