# total energy = -381162.12925982557 ev
CRYSTAL
PRIMVEC
9.29307881730198 0.00000000000000 0.00000000000000

0.00000000000000 9.29307881730198 0.00000000000000

0.00000000000000 0.00000000000000 13.60136020793151

PRIMCOORD
 96 1
Ni 8.117364995165623 1.4796718966270241 4.8908591240699195 -0.5696096505504449 2.4936381370291953 -2.3195081185485793
Ni 8.418953283674425 4.055508911149331 4.31470496178519 -0.6208751335936404 -1.5490276910885643 -0.9478520928063806
Ni 4.555485847335878 8.244373504056938 8.109172216835443 -0.8372661176259967 2.552381673616991 -2.7595261993504154
Ni 6.633185955287536 2.8180704083000907 13.636044082795765 1.283149656069674 2.157805012977406 0.20415227587431936
Ni 2.7610573694438525 6.913149249270099 5.915476827759143 1.5074686366998553 -1.8559217635085006 -0.7027897089812607
Ni 4.548692606683244 6.8220863694408775 1.6602503586539172 0.8447541984729259 -1.8617756511861163 0.53228211774458
Ni 1.2821567983628868 5.529465564272429 8.270402488658801 0.6193653818173332 1.6404280944794327 1.1581562472147087
Ni 4.769068678963086 2.3390493649612725 1.6626712056990762 1.1226878791047699 -0.5422819092697693 1.548974726363442
Ni 4.233146113714447 5.736691929953807 10.782192532929551 -0.6990112157754349 -0.6018386857874796 -0.46788292553290384
Ni 7.113173478828644 7.913010190854512 2.0240316481800757 0.4556619579866798 -0.16296166056862257 0.18924219153170635
Ni 1.3759518433793512 2.7682966778821587 12.086984483491644 -1.004750348655321 -0.15714094012178742 0.3189427760543539
Ni 1.8559579530781953 1.071761492787462 3.675210103242883 0.04041054260656266 -0.8973083184205578 0.5469469188456064
Ni 6.139119417261147 1.5778346887115298 7.905151034055699 -1.1405110233291196 0.49254571838690664 0.7479583350980991
Ni 7.567168260775474 0.6202851352139074 0.7382263870535446 0.4414674116538526 0.5172997854031349 0.12222304519867984
Ni 7.132493789795575 5.454312435465519 5.716991532061169 0.12325328623540709 -1.6439983283291946 -1.4547687352029783
Ni 5.140076266617135 -0.045178302917620435 2.59848517703193 -0.8484964391241773 0.32023141295879043 1.2477818180933415
Ni 8.7183298194126 6.6980981111817215 11.363963432082203 0.3396614966589441 -1.4890243139517387 -0.029808855831316403
Ni 8.099057629795325 1.6644554768417652 12.002873755963703 -0.755948295282111 -1.240915172880495 -0.021684426951969104
Ni 5.243656923681785 9.091075212814998 11.1650571599115 -0.20302459002777937 -1.2710662425425785 -0.4151861093598204
Ni 2.1346573883346873 7.885335401985094 7.816239501984458 -0.47044425850217686 1.5354057294297558 1.3616973718675902
Ni 3.1931948298927404 7.946641843278428 10.10979552865448 4.961279335773997 1.1256011960968229 -0.00012495561363849448
Ni 8.753206744404853 4.578978750714618 7.361722449005238 -0.9630311145396641 -0.8847088844889925 0.18904087415417767
Ni 5.655015059781439 1.297490378495371 12.686750500564628 -1.9164740711702608 -1.1511687601532818 -0.36563323813235743
Ni 6.954549915627808 6.587352490309709 7.590715064011649 -1.1926059442521462 0.7165633657265853 0.4150223300884465
P 0.33912582198101 1.175444373719662 10.584673717433866 0.553554139749479 0.4599646991270917 -1.0965662423170535
Ni 0.07362813456464361 1.767088239861862 2.523569021736158 -1.1791009677871758 0.5205861694638905 -0.9143817289630768
P 5.1397881811722215 7.256063859505664 12.218986163658826 0.22432026618176207 0.19698352604002206 0.21461203775506263
Ni 7.0668010152764635 0.16334351795798058 6.2366995333006185 0.7169462029873007 -1.765758574958843 2.1468156038454382
P 6.812997738307806 8.876851158745888 8.564518212449705 -0.4284506876792105 0.1609142911212906 -1.6611077343159715
P 7.354468271640742 5.360359408108295 9.529561704746621 1.4455770414013813 0.6534517819780811 1.5614854572359431
P 6.6357787242917565 1.052478354136004 3.3554417645442767 1.6588289655841237 1.4047057571083164 0.05625753694114827
Ni 3.6416323506764026 2.3918433460113606 4.51448199544584 -1.011158051953878 -0.03021509013079958 -1.0555234654431305
Ni 3.468139861286491 3.4456877827409857 0.13930789877333932 -0.237404610169546 0.5796883749426855 -1.9919578033308727
Ni 1.312693855523701 7.961287735574667 4.58886751593824 -0.3891560038446459 0.1682920716426005 -0.35783739623702243
Ni 2.2468527295101337 2.155213678791085 1.6325300336980457 0.13188885042321802 0.3141065310079752 0.4178320316230998
Ni 8.209078390515618 3.8756041973403805 12.169518175535657 0.08534057035003366 2.8840814922266973 -1.5687051149128337
Ni 5.6087726993334135 4.558403874100484 1.1217285192458517 -0.5157236991652666 0.46463356535767075 -0.02461239923204148
Ni 3.2110468343984993 4.578867233768199 4.7130342013116655 1.3627188711535692 2.0598837777488845 -0.1662580719317072
Ni 5.610185247321375 7.258954007033665 9.588591341717253 2.3790623239631286 -1.8961646701889472 2.3982291266995666
Ni 3.57965680770456 3.485462160296764 11.269856139615769 -0.5021058512715159 0.7566648617331614 0.7210789942087517
Ni 4.163680349174859 7.540301969767587 3.824267371056822 -0.6801773708983834 -0.1705811247870933 0.882184575405242
Ni 0.7899349364918298 5.201735844907459 5.277993920791795 0.7573893986040117 1.7822802267629498 1.2571223787679768
Ni 2.9316690043846307 0.927651860162938 11.909377948086792 -0.08560128021058806 -0.4731040647225271 1.2787119320132945
Ni 3.7750995493810953 6.038596183144126 8.063689100930947 0.7412942928143621 -1.3041010615103605 0.1079559937567044
Ni 3.2329134489753093 -0.01813637271912538 5.280741884213114 -0.7808864532846874 0.7802809584902046 0.2750820701156617
Ni 3.050871327026679 8.46230549659445 1.8052809353942774 -1.6861636488433345 1.0369883827534205 0.2002531979302293
Ni 1.2408397697149918 7.687792424484352 10.130469841212504 -4.589961131441721 -0.1349687749001224 0.3638447787733669
Ni 4.358203076043444 1.6886081888201456 10.306648030395317 -0.24246839784569854 -1.5314601145184463 -2.011723415993574
Ni 5.221641619843084 8.264939087592202 5.698874674807666 0.0812759133623568 -1.6229183677304435 1.4301331960424852
Ni 6.08912265295038 3.0532596482957994 10.763477201396936 0.7660007944221067 0.9041130000472171 0.36360592328968344
Ni 3.1414045013604146 1.918602597728546 6.821517633014146 0.492496610316526 -0.383081772626108 -0.6742504638909872
Ni 6.542829349452295 7.15474142060598 4.127727285649673 -1.1381528075095881 0.3371366733545613 -1.9243534739183374
Ni 2.3570314725711863 7.9631463513483025 13.078660081208971 0.24662767142971076 -0.5791780109651703 -0.6757021087358492
Ni 0.2391926983721174 8.965497838069384 12.190450835686216 1.4996679097085142 -0.3872197060538815 -2.202111033983633
Ni 6.774301357900735 6.525757963571462 0.17052427999941744 -0.8062676123619534 -0.9990296441214601 1.645525306496682
Ni 8.676157827508835 8.786764052197823 3.6796577707891904 -0.3463029132348616 1.2130246171178143 -1.215753586013203
P 3.671621116183995 0.8502767561986473 0.5216911442699185 -0.3074705137486963 -0.1103275793126745 -1.1631151338818806
Ni 2.28404363114056 6.274956351077224 3.3642962100898712 -0.5870867242892857 -0.5996169955458125 0.6687657866273321
P 3.081055247190503 0.560146833934303 8.418507215888752 -0.32026560863083553 0.3253707910678848 1.299995266872103
Ni 7.568655153394381 9.072479761999785 10.505908368870896 0.4494833399797936 1.662550637410085 -0.18025721442427667
P 0.4922181446395095 7.032277227281202 6.734142246879815 0.32363555354433293 -0.6756496582313589 -0.06418141977391528
P 8.968917691092871 2.7767533796521957 0.12309519337992562 0.8422108632257818 -1.0811241967303702 2.343496253933061
P 3.5508668493709616 4.397661488917705 2.0720852296995087 -0.2605815625066415 0.042455340950733333 1.208853259348944
Ni 8.856043955160048 6.363101204141841 3.51845444889455 0.07197726166925023 -0.388408327045344 -1.4028167676157195
Ni 2.2555045859364022 5.9411954235268105 1.1848712729235364 -1.2362897582933419 0.03424169479168942 0.5986960263934399
Ni 0.6240274580741205 0.5819279521855255 5.771873667932934 1.5639920257078808 -0.6959960830981949 1.2440562896126381
Ni 0.6160809463339462 4.383433785170533 10.320318149410399 0.10499356869427078 0.6130160425605378 0.16369159675611164
Ni 8.40342454888571 7.466942405182233 9.146805806787428 0.5246068605875094 -2.0936043099297814 -0.8088207178011102
Ni 8.34768466183441 2.783890464222952 9.404171120886257 -0.44127689290960137 0.06653475049744025 0.9507132164042594
Ni 3.9488987103736566 3.3512979806769585 8.808893660906602 -0.6025094866022591 0.5834732959064144 -0.6802653026264994
Ni 1.5467958052918338 3.671221513792663 3.6796847207179084 -1.0537164941413788 -1.514340167008708 -1.6103222762329878
Ni 5.3591513078554325 8.529132026735478 0.5493947416838274 0.09807498719756658 1.1129894208700832 -3.4536530904503557
Ni 6.838581584431884 3.331726756580587 6.182361971850527 0.6460030390095196 -1.61976002460712 1.1353443915265156
Ni 6.058362561896729 4.26959356903542 8.40226756056662 -0.12035462453137337 -0.6459104792957133 -0.8090960829496842
Ni 7.572400264178254 8.212163692699852 12.549009414888463 -2.8880759580980713 0.7634551451821174 1.884361506906432
Ni 0.9160754718168556 5.510619200327775 12.973426185413672 0.13584397841622411 -1.2449006398908042 -2.2183118121132117
Ni 2.2834488740929966 4.1518595528545434 6.835241651886664 -0.1351754915942898 -0.601253502707971 0.025009377560144024
Ni 0.05636438195123962 0.22963476675620204 8.535792376360297 0.9219986220783863 -0.03378146732581924 0.8897770430405193
Ni 9.014992776121272 6.994491568603213 0.6377682044886003 -0.024907561874957105 0.5307656811000536 0.020530258742867867
Ni 7.303653716389575 2.979361085136092 2.2349343558617023 0.3387549256842747 0.1869719074402909 -0.14694831585950177
Ni 1.106303866940459 0.40863526399127953 0.39928735595778486 0.23118665428429216 1.1643178959407303 2.424269516627386
Ni 5.3014319950052124 1.189226009681162 5.250913888969941 0.8295319822065326 0.6627476054577102 0.11893563269665969
Ni 8.40372192740949 1.8574262595393665 7.278332864397466 0.5413596545658161 1.279950689516402 -0.5244754772159677
Ni 5.927274391382288 3.2496131117014153 4.122449746160438 -0.37542142786737276 -0.5001888367544611 -0.19510404962912206
Ni 6.513779184910388 5.685384841522627 11.754295977242617 0.35197785213245186 -1.5467208973322588 -2.188610685504353
Ni 5.3036344546969705 5.384521413165544 3.434561179412123 -0.5315503817848781 -0.8271058892635432 0.04998018857286877
Ni 0.2226435835236759 4.573142697185405 1.360611758091659 -1.1785121851632412 -1.0585925912867575 1.3193356190719276
Ni 4.60734122742028 3.902916556133939 6.338995886865687 0.5941801408009574 -0.17771747872155846 0.9954013033402533
P 5.136526310489494 6.029098656540854 5.83959419226108 -1.7627547551355125 0.06811057962499237 0.07232641747855287
Ni 1.4833426627799524 2.4934166980404857 8.441493646469176 -0.6219421414055741 -0.4571303150020901 0.7109244222732531
P 0.5515219274367521 2.7705456029682565 5.8267139849497935 0.21084048652777237 1.1137954617111463 -0.10436030598564609
Ni 3.7673677077627756 5.914951768803091 13.280354277040125 1.574072292762018 -0.7156138573291223 -2.5203380149178853
P 2.239836454964663 6.308160521873204 11.5330017487706 0.04645186370463613 -0.2037972065277458 -0.4909431497864771
P 7.326514690405279 5.462072156320442 2.1443630799046067 0.34252673402188105 0.08005772468453955 0.14956055667136822
P 1.0307976011365578 7.723236227287561 2.103885216278508 -0.2699252085050706 0.6828124945283853 1.2236203903557896
Ni 8.069672914414163 7.3871241507835 5.534965208346614 2.933093917569658 2.175161501977983 2.186432446906112
