# total energy = -340869.1955743024 ev
CRYSTAL
PRIMVEC
9.20100940736544 0.00000000000000 0.00000000000000

0.00000000000000 9.20100940736544 0.00000000000000

0.00000000000000 0.00000000000000 13.46660731996362

PRIMCOORD
 96 1
Ni 4.445955365595942 5.421289969518655 11.560045212125436 -0.25615180887006206 0.5079597389491317 0.8215595055240175
Ni 8.91650502943142 1.1703868030921478 9.484787895723306 1.5951103443792398 1.9384696016047454 -0.576160307184769
Ni 1.236965307417353 4.008925819100833 6.348266828114947 0.1310157037896453 -1.815027853507616 -1.527718645198143
Ni 8.353541266698183 7.934922940097317 2.1997432937540227 0.4077239966548204 1.36527171948241 -0.20283432839384422
Ni 6.098088621073262 4.734830258049528 1.0679252820425271 0.8847901313488892 1.040998018133446 -0.34976901740659117
Ni 8.422907676884437 5.631928678683515 1.149876832944094 -0.7889532894532219 -0.13166387889660552 1.2993411782278719
Ni 5.730683113028793 4.47025523153332 5.639909634273853 -0.17697931500395325 0.8712481309983963 -1.003738105340723
Ni 3.9014028227569484 3.0421849579973217 5.857907310790744 -2.278874404187617 -1.0308434461979472 2.638749142569642
Ni 3.177283379640079 5.44814771608102 5.833491512134391 -2.792212376729527 -2.190980728398426 -2.464566930694852
Ni 6.734467238147406 0.6373990090213064 7.900023511282294 0.08365855466192043 -0.18020476391978643 -0.2974928337106941
Ni 7.545830652797111 2.808424112103711 11.584325755942986 1.060543030144909 -1.463519741922731 0.8397778283042571
Ni 3.6616613207257775 7.728231463983247 0.6061358191379201 0.41586230949123865 0.7123130750906635 0.6121740062752166
Ni 0.2993189582716543 5.337091532111254 3.5868580340600107 -0.5363845699487279 -0.07048936426981409 0.6449961950115601
Ni 1.622910849488258 6.529376737676313 2.00333302559089 -0.2021211043769035 1.363598445545045 0.24914503853492573
Ni 4.433276374584315 3.3223924995561673 1.843483888548077 -1.2048631643529444 0.07796227560809153 -0.4164531489977021
Ni 6.663306631119886 4.899178688709674 9.601071173157301 0.673960186344078 0.5954037287954133 0.024057555169835987
Ni 6.2707731662882225 5.820650583356579 7.44533722766722 -0.8125099937272394 0.7347945440226313 0.004747541987314404
Ni 2.6026435359244378 7.269607148326825 11.87341319171469 0.3515600478687429 -1.0782232210334914 0.3029386873166138
Ni 9.05203589851797 2.4286064423214446 7.099339708292382 -1.1319849881359794 -0.6426058404025127 2.7533486097847932
Ni 8.875900974762109 1.6732771751759545 1.9742044698981405 -0.8233798465622078 -0.22869474110037388 -0.9396667287821107
Ni 5.972881284581085 2.3639969540169123 6.155370425457867 3.774117445355558 -1.8299114554876679 0.6233840160584232
Ni 7.347778924549454 7.147390139903427 13.397509800296294 0.008505980588482126 1.0876493994433978 -2.1534428793539684
Ni 6.044888384477306 0.4584439758713502 1.9267217405696915 0.648471040934038 -0.13225240441022384 1.0332037189000076
Ni 8.784645363112388 5.552707987384453 8.2235586063054 0.37810951622249717 -0.7176118615957576 -0.1439439818155392
P 4.084226880377433 6.6848737972528705 7.018068111988609 2.131996793665051 2.174252102789836 2.8838140974979236
P 7.456856891489105 6.268702939163682 3.2150581239058518 -0.6218773496059096 -0.6067533494802776 0.7472448539708421
P 0.43824131943867284 0.262262812843333 6.99762622931043 2.1780910169199523 -0.4714557304858268 1.2130852951524207
P 0.6678249070454343 2.671706312799091 11.043641317473577 -1.173730447503882 -0.8084407087538722 0.861182262121962
P 2.975164805218881 2.6895746731362316 8.21535774658939 -0.37569267925088845 1.7705611385538087 -0.5627010963560696
P 8.068190360861037 3.4786532429164443 0.5338812120876982 -0.23385134560064888 -0.35441860036346057 0.1798656354128128
P 7.808317050169894 6.437431050318412 10.66521668052089 -1.4411622001631372 1.3025319172510277 0.0984205434624434
P 5.963312234760989 0.1905805085804284 10.018455644391942 0.7155706627960128 -1.164435652465517 -0.660841646684249
Ni 2.3735107977803542 0.6607465704813961 8.58240349516466 -1.8618201312708063 -0.3498042415199008 0.42450147322347537
Ni 1.166181941776971 8.628412222780437 0.6111724517066898 0.32126216821614995 -0.3073023636019482 0.637967827409869
Ni 2.977271836381191 0.59869680300374 12.981567127241279 1.5246014397254002 0.6155740330957012 -0.39600285156315024
Ni 3.7500002123822584 8.738502300758752 10.605680628822896 0.1289228258163586 1.236932019863031 0.14365241871704937
Ni 3.2508362491226235 5.320658529247128 0.5290055971841705 -0.05118295063171831 -0.4680377059432133 0.03653049082586612
Ni 8.41540885418888 8.375274051001131 10.056067530790584 0.5204180193171424 -0.7472476821843195 0.7953303966241593
Ni 1.9780422109365654 2.4772613802528545 2.1901687233282616 -0.713967579974951 -0.5117665142897315 -0.25478192510572895
Ni 0.283633077374251 0.4112832818733855 11.881883641007363 -0.5070071452278753 0.17350395486084313 -1.2080359056539711
Ni 5.214708905517893 3.783491886752594 8.009817316756562 -1.0874406258667013 -0.30467289639890105 -0.22262359520562952
Ni 7.008721726597019 0.2135977538015359 12.058943266212184 -0.5526938486317127 0.768748789480889 -0.8222043381968678
Ni 9.014440573936323 7.408119144472712 4.779595009188692 -0.6450720425548181 0.665526196644112 -0.2593926844048629
Ni 4.809597660778469 6.53630509778644 4.864138484450183 1.144380790697171 1.8049864101112139 -0.7916043539228238
Ni 3.492022309636251 0.7611930704631312 4.640565916312141 0.4486076222430597 1.826532768823422 1.0596470006932008
Ni 2.3759858693203593 5.006959313317946 7.967666572399985 2.5154549757939715 1.1451528929765054 -0.6781927363681869
Ni 5.94456977852682 7.162976649898853 1.6696436965471508 -0.8849248571545405 0.18949415964151234 1.808943852097065
Ni 4.031762724536869 8.34390780981199 3.320339754349568 4.814909003905153 -3.435929447918347 -0.46632329435526787
Ni 0.307955945835235 7.146074395553164 11.884065200346157 -1.2170733332658912 0.008732237666675285 -0.031993007966828774
Ni 3.731736208639095 4.170145906550563 9.87323151185782 -1.029623457747917 -1.6819318701501742 -0.9728432155340795
Ni 4.236061938195916 8.391624244780276 8.410812029871456 1.1926005449355075 -0.5676376144257386 -1.7726537594167793
Ni 2.11612175963866 4.548141776463235 11.708810813193935 -0.743175568997475 -0.1791570393815624 0.9075598209452369
Ni 4.680157859942788 6.271371231901979 9.421804225787245 -0.3959527150515052 0.6537214906997 -1.373799554447763
Ni 0.9550371770927788 4.185575999385468 1.1537808212505043 0.5154380496040478 -1.0463762517262236 -0.5283393310467481
Ni 2.1203358219632795 7.641364733837549 4.515461631125719 0.09791275058808943 -1.3158905979461208 -0.724434540944546
Ni 3.0535666066775704 3.719774896363975 3.982385507364231 -0.5550790610344376 1.2389711617802468 -1.649061344674399
P 7.496393629063097 0.7877315419978451 3.6045258123913073 1.7755501071279678 1.291621183875795 -0.21425234042279875
P 1.0291881121890794 6.020165272105578 13.47414868834582 1.4312971344435994 0.029354799013033315 -0.373970297243143
P 5.227801941954429 2.849525021282911 4.096070419731691 -0.9182810640174831 0.4839104113094118 -0.12220119082180891
P 4.658563090781476 0.845171603744859 6.559302100786774 -0.8139189582596241 -2.3529242321151798 0.8772364873713473
P 0.9181043251909857 3.318638487703668 3.857011632601146 -0.31053115495189104 -1.3049790932399397 0.4640753788613556
P 2.3047608552267422 -0.39733731186154003 2.6285471378076264 -4.459517755215778 1.0532542097929796 -2.118502872943674
P 7.41892112955809 3.7851112644144567 7.558052353639451 -0.17574698525874893 0.9654528366072792 -0.5367851478212562
P 3.1495607381901283 3.05571044187765 13.421992766321576 -0.6163577053392612 -0.3163637024732681 0.6327875687605102
Ni 1.0441489535424215 1.931043454704787 -0.25160068310148004 0.527499351643956 2.732937393118293 1.407102539475267
Ni 6.421136062595921 8.25728950692124 4.013708503808993 0.23999293972201252 -1.1493309356135948 -0.017955813147472303
Ni 7.046436664301416 4.984610061382357 12.317394100843531 -0.5230580280431507 0.6049921438147968 -0.3913869500576937
Ni 8.816388845688666 4.667699693157778 10.657635048740351 1.8136320016013538 -0.7486805579761042 0.33462136313187535
Ni 5.708389067149858 7.548222915252135 11.436947667098401 0.0485452558985551 -1.0137101289517703 -0.3741250776534525
Ni 6.248046672965495 8.097983229435528 6.327527752831778 -0.9460235242380739 -0.21070550361180485 0.24737740511154171
Ni 1.5714680056958001 7.345313054018891 8.295631953469607 -0.21434464302628894 0.4365486341959966 0.6090210624685318
Ni 8.495926887819321 7.61687164670188 7.155751097183735 1.0860069787439683 0.8474086053766373 -0.644402270181303
Ni 1.6140042723480146 1.7761720637703122 5.714124056335305 0.00685713213114948 -0.7323622804320549 -0.603548983610367
Ni 6.719092351369156 2.819060479019125 2.6619578432948687 1.0181956755269497 -0.5816264725056629 -0.7145612476948919
Ni 8.267576235477842 3.189667938349549 5.0516210131513555 -0.2901153102997004 0.31046636315222653 -0.82758694266502
Ni 0.5411822130802425 0.3219819646292294 3.88854993266686 0.43466298713750945 0.2927008116386895 -0.2343653091225899
Ni 6.989648034022924 2.4888914561880484 9.258548875048856 -0.4311534313223543 0.4648677928556639 0.3620730315849248
Ni 5.046394839788072 1.590606105335992 11.45635259601242 -0.002437920017531285 0.16560835416285025 0.6218794064884386
Ni 5.953779988978662 2.772319351051734 13.44135721079405 -0.18551152084468053 -1.3360956121390861 -0.13561155069044387
Ni 6.868093498279379 7.604330670831889 8.68920697257015 -2.175805306209569 -0.3877871485215773 1.488229071743953
Ni 8.030263799939464 0.7625511394568294 5.8177633065935535 -1.4348521987847096 -0.6673298255117539 -1.9230959473621523
Ni 4.636913115563509 1.5032793247181748 8.924751894194642 0.02530479731337577 0.6525979186182181 -0.3463697619170551
Ni 2.676803672030181 8.587808168111126 6.490043342410998 0.13652506364364872 0.6274522725905258 0.2970989407063851
Ni 3.708080413362685 1.169567913251774 2.173564581688507 1.3929848691269624 -1.531470913151724 -0.8347014422226141
Ni 2.791724279965755 2.0132360720537448 10.762391301544907 -1.0360987810596156 0.03837397179250811 0.0720839624504436
Ni 7.644695499255698 5.763622726832584 5.654453669899454 0.8443099118466556 -0.07788977049894329 -1.26157578655364
Ni 5.499213318486339 4.988281264149875 3.2015510420444087 -0.15152693636911968 0.3985333312944878 1.088121968204442
Ni 1.136729510551849 3.6261086202403443 9.176684733736993 -0.24803226508672122 -2.146144288810026 -0.19010196842884033
P 5.5904321260982925 3.681213465790877 10.929404344539572 0.17178491528720738 -1.3091890175562293 0.6925094101011751
P 1.4880148500532335 8.678244889920474 10.440875828094407 0.7387859245702116 -0.516052286149279 -1.3085755523419462
P 0.9012324341764572 5.936417684160854 6.076376078991086 -1.0734363411678094 3.1193716271564016 0.07935272819771495
P 5.307629899876689 0.5428945209374731 0.034858024272531894 -1.8172233184970383 0.045386655664915385 -1.6389106293936422
P 1.791280121274733 5.65069873794601 9.837046702023697 -0.5983692391816404 0.9400523942563036 1.090901330721792
P 8.283797615124792 -0.10965118982791192 0.16967489502635166 1.2276153704477955 0.23427814872542235 2.1391763421326258
P 5.168887878494742 6.235965747567624 -0.18221219049256573 0.5130875470940003 1.2612847376757825 1.1622016209286758
P 3.263368023983172 5.899567641344042 3.1716284392367804 1.4218503872084027 -0.6514144398330781 0.9531850749835197
