# total energy = -381166.0765986803 ev
CRYSTAL
PRIMVEC
9.29420338936269 0.00000000000000 0.00000000000000
0.00000000000000 9.29420338936269 0.00000000000000
0.00000000000000 0.00000000000000 13.60300613280683
PRIMCOORD
 96 1
Ni 6.118104546402262 4.824648851842254 6.754328085033783 1.1791408198861757 0.21561579642922868 -0.23452420329795737
Ni 5.2698226048460715 5.949145223343754 2.747521729291482 1.8848836979584895 -2.4248408157498242 -1.9892568594599416
Ni 1.7795797076108986 1.9408527244826308 7.180524004176928 -0.8201243157393875 0.8691046022928323 0.5388178619805687
Ni 5.804908481248756 5.336963929989075 13.359512088593346 -0.9486915579885402 0.071592881746638 -0.05012699856337818
Ni 3.7561314672367017 4.589012913809231 6.208929360572036 -1.231517790825995 0.9485401200123407 -1.3212765448483825
Ni 5.884615569347647 9.038900897376822 5.926544509009556 -0.15434152299977935 -0.1035108135011572 0.7205408623170946
Ni 0.6873258570193654 6.444591322374495 3.05459570268534 0.32198593375605195 -1.9187456408132568 0.7851915084179445
Ni 0.28527348996979524 4.87991218507873 12.426481883030519 0.3909958852668621 -0.06850087308487557 0.495177756693115
Ni 0.6187671658624766 1.2548289853553658 3.926099211360825 -1.5411793986887392 0.7718114875666128 0.33987669799354364
Ni 5.623318335810771 2.0251418548428046 2.206203160109051 -1.3095194043124543 -0.5127723298464266 0.5500715805175173
Ni 7.175654771031521 0.3795408770677223 8.373180345510754 0.739774513735726 -1.0158405450312118 -0.2457162153590349
Ni 1.4552491868204438 8.378185274025359 3.7063842437001666 1.0775706750511571 0.07004996273955033 0.1808935624566949
Ni 7.611738793139732 3.028534756436588 2.0686907741520595 0.7004101530054906 0.3436621331779049 -0.34773424636474953
Ni 8.665190274082937 3.1010016601104526 10.391050415637073 0.3597307566049934 -0.675291760671308 0.21017019993362515
Ni 8.348741237750023 7.768113764835611 3.545311052200884 -1.7303020339234458 0.995502090584176 -0.03812714588902466
Ni 3.3559230701356872 8.616544413645716 5.390477164731028 -0.39827570675772694 -0.6561864073004248 -0.860596307711505
Ni 2.5492048060489765 5.33174988189865 11.103875849021659 -0.712847864548211 0.6561013037857861 -0.25412166581391077
Ni 9.428039898264474 7.642112249752043 8.27672231467858 -1.02419071676812 -0.20198637857125212 -0.5293862842540238
Ni 4.761950155909987 6.300401051296345 10.519068772851876 0.801194311604104 -0.9574212245520544 0.9515933050163677
Ni 6.869513006235649 8.243735328078698 1.402578936324126 0.7013370356951341 -0.8491312444946988 0.016650206962171323
Ni 6.481712370633238 3.7365114039231795 11.083280823774652 -0.3583274484995635 0.21212243856398952 1.1589350343622622
Ni 7.159743094862526 6.201966143407428 11.759050268324081 0.7890882723691894 -0.32473367170451817 -1.0182429838251175
Ni 1.707716927156067 0.5747628305881046 9.808379147401658 -2.49460281493531 -0.516146388524982 1.066473793807047
Ni 8.96381302835269 5.983087654050045 5.298696906454843 -1.0977816027813931 0.7214649167932606 -0.42014191070319895
P 0.001645073996444018 1.5994766347120726 1.825428012833827 -0.5204915528675551 -0.4166572945887082 0.3386145434516684
Ni 8.437658881388327 8.86615883354683 5.625863088693405 -1.1219692557711902 -0.7768793890078234 0.659448108770832
P 4.973774344909736 2.041369533926371 11.258922679056 1.3603925370132377 1.0102514809792085 -1.315886998401695
Ni 0.6903158022434108 8.824437154620066 1.435606817418835 -2.504397946648861 0.7318663146322428 0.6478740307799875
P 1.8276957984560434 2.8194337690241733 12.959039736116631 1.5143669064815855 0.7188686168209942 -1.0064128239594086
P 4.80836540753847 2.7008583224330276 4.927213174288348 -1.1979229855896854 -1.295342084370808 1.065367705227062
P 5.6468419645395835 4.136022735771463 1.4482441457406707 0.9067093000194836 -0.26340823332215924 0.9946328006053451
Ni 4.655178347598412 7.457343486761608 12.957284990520426 0.17328746797466285 0.49837672324638693 -0.29726554819123646
Ni 4.143411627450406 7.304546783363079 6.914231136328816 0.9445875631224958 -1.6186585640128253 1.277734912812006
Ni 2.5154017883932314 2.4487251734187145 10.840412136679296 -0.5624624979827023 -0.8665481544195657 1.7955160087269335
Ni 1.2625617625589898 0.01829470991299664 5.765103267056832 0.7166620960879787 0.7870866685581283 1.0491049635112963
Ni 3.6967693903141705 7.244915174542825 1.9737142393370213 1.750634574833211 -1.5919185769148196 1.8404509215664109
Ni 0.06415881528165368 1.808930801852538 12.474704857214416 -1.552570157024184 0.980450595567692 -1.1766049408381993
Ni 4.2113336656764675 3.761791637088873 9.895765106324628 0.15508765713718453 0.9748365918150242 -0.37993911323206825
Ni 5.360320263057232 5.998804151948275 4.974714918290754 0.43037284440258783 0.4873024677100962 1.0620900629170547
Ni 6.3706094635513635 3.893025788669605 4.277234214669611 0.750275670377366 0.18215468855730566 -0.7741164815507054
Ni 8.481992231461987 5.521658339352553 7.531644136760322 0.539280146328968 1.0468421356190487 0.1440059454017262
Ni 3.6269885114141607 3.375756900126713 1.2221970373242081 0.09314566821674926 2.5646031553838475 -0.3123119010013976
Ni 3.932646977634807 4.035914871275991 3.4015408791150468 -0.24108077346955256 0.5126548304319558 0.9209095027792655
Ni 1.1527786323556184 4.328738042643026 6.811310845893661 -0.06476660285342394 -0.9397065808811107 1.4096754424087659
Ni 3.445574955840202 1.5075941401988207 8.792615661122749 1.9443980512740384 1.1619290839935794 1.663518143529677
Ni 4.042281400584263 0.3067607587402977 11.748739279105692 -0.8241887156167483 -1.601215171725397 -0.3592751571248135
Ni 1.7162583000528582 3.5925256053191643 9.126814767051194 -0.7242478788550366 0.8337102819539383 -0.9690896620289181
Ni 4.324760123600777 0.7082638383707162 4.0561985407101115 0.9315266161734795 1.291005661778983 -1.5155213318010028
Ni 1.0761014545552616 6.655467502630531 0.7791702452988012 -0.9119792901691713 -0.2504005082085817 -2.2547672267267687
Ni 0.5376204056616118 3.5116288591889453 0.8849289854430752 -2.252513397695585 1.664693909005333 -2.421254383950146
Ni 3.228155656411869 5.720823823362716 -0.0018904409654051599 -0.4874405359498573 -0.6762502679298353 0.25943665026892093
Ni 5.6460612514565245 8.570008337373427 10.218265598471582 0.5742234951733723 -0.07806846216865264 -0.5134570146182771
Ni 5.3736295622827 1.4455739211125445 13.337461591098638 0.8861291618752868 0.08784431060849388 0.3936065834168318
Ni 7.158107315069452 1.3024338950151753 10.944896641541577 -0.45141141024044196 -0.25811330347180705 1.4334789725862667
Ni 1.7634077937475505 6.087164143384396 8.462375885829813 1.3903844553896378 -1.2024913216866582 1.1751442971322728
Ni 2.522205145259881 2.632257807360975 4.9886580821860385 0.045724755730624476 -0.3203941637888998 -0.10246643139704288
P 7.92521368439433 3.8473354849039616 5.8521899526312975 0.6387980366206482 0.28575626200005627 -0.005184629524733007
Ni 6.703657947102634 8.51944787104204 12.423925047683502 -0.3311449745475007 0.6234827464198165 0.011220037085535515
P 9.60100502297534 0.37789952075262623 7.875270353166694 -1.1441992708139843 1.8042176502659895 -0.11796581258422265
Ni 1.7103471867097035 0.301381273829892 12.34238793094111 1.143978927273062 -0.4479396496417576 -0.5355746724529228
P 5.027011541811609 9.279137466077866 1.7216647381530363 -1.1691531125458443 -0.18749384138203193 0.4514574329870289
P 1.8588964391682614 5.092507792958168 2.013475770773107 1.8018087837141807 -0.9319858151980853 -0.4975843092520785
P 4.446941721099382 5.758706996297777 8.488289054244985 0.03986392607447328 -1.1795082305279234 -0.43102539038492216
Ni 6.695386106103565 4.932619612388526 9.037891546890867 -0.35261497149581855 0.024400797441867652 1.2744778393272889
Ni 0.8728186384523036 7.313989693986734 10.537663685533715 1.6499103229382552 0.2802877826863173 1.9377368372037789
Ni 7.275502397832641 1.2790868561503879 4.467131519079469 -0.9224228540999984 0.5331853462851398 -1.1959861735782888
Ni 8.817429325279281 1.839583084565941 6.136901143297224 1.472077144574439 0.24220691665419578 0.22286399335120974
Ni 3.1436806419843 1.5099176910412557 0.4447313489234172 0.31256772576594555 -1.9900307615114887 -2.719983661171103
Ni 3.0696244295342097 7.8390099481399895 9.79798729861395 0.8383264405697112 -0.21470948256487538 0.7270668363610704
Ni 2.352502285931794 8.946358514424318 7.863067993562562 0.8096293297453347 -1.5953474000907106 -1.7452635403292844
Ni 2.269876817974804 0.9648033692026224 2.319611959046958 1.0525618117116453 -1.7507245634438557 1.7414385101562397
Ni 1.7705178593254016 6.989798586246826 6.3876048438332695 -0.4706797715517507 -0.5737694383550892 -1.4371286535237122
Ni 6.587712760065125 2.0288502419873313 6.78498873253022 -1.325496496467001 0.5475146184236184 -1.321045916894815
Ni 3.363107489340497 6.4476955862999885 4.024993252896209 -1.6540294873129513 0.24786411493997312 1.160470497170182
Ni 7.6583306346322395 3.7717364346944953 13.263475085173821 -0.4322530921444362 -0.3131410817709123 0.05756648556055892
Ni 4.687624411562175 3.3774856219534852 7.749714030424537 -0.055917122882594025 -1.0729501455600101 0.13336826318222195
Ni 8.901504688961952 3.847131012429828 3.879564064508873 0.4413337142894657 -0.10563583026396 0.6370579140010899
Ni 1.6475369603369991 4.939952738847252 4.837609618441357 1.3684503743207077 0.09711673704935532 -2.511535586134907
Ni 1.6466354226101343 2.99698093599632 2.5773885483473764 1.2018012375981688 1.3892128036790397 3.8667128974957925
Ni 3.958986749984651 3.700747309356419 12.164025662333435 0.28211532281335927 0.7733572347871778 2.675145678920806
Ni 8.361892535518203 3.344760731888629 7.961336535211163 0.2465456532388657 -0.994756470667403 1.082611065688542
Ni 7.68765384626377 1.1066607952349674 0.2960082948618452 -0.21744847876259327 0.217224021456613 0.7514648055894606
Ni 9.377107663798299 5.251689614071709 10.18477486604906 -0.9044243606400488 -0.15930632320422242 -1.5691388600161427
Ni 6.721632936419712 7.115985985397789 7.962261308446452 -1.4474176941545458 1.0569036336201088 -0.6019137619997891
Ni 8.665627101641315 8.951042792922667 10.22623630728147 -0.883376281720498 0.8060038171776054 0.3017552085314738
Ni 2.7669586967986195 8.498117674308487 0.8079664755992673 -0.6243628350319247 2.651031045260789 -3.4436070190682626
Ni 4.039548904793559 1.2728225630791827 6.6368521427012785 0.8796073015963689 0.36465981847549456 -1.3971523702410904
Ni 6.294276171275687 2.3686463171850334 9.097350283528444 -0.32105108064660837 0.7903146885771228 0.5047782558973565
P 8.047135044198582 6.837550240847111 0.04701193948481995 0.1510152868400238 -0.4880555438260369 0.6910078858549841
Ni 8.983507445293169 8.68190125174173 12.83650402946964 -0.08411878212779063 -0.868222199687879 -0.36789760868650184
P 7.7971674445694195 6.933652303690225 9.788845520179473 0.6215366784370392 -0.19934534140397928 0.2780743199747662
Ni 7.867338680010957 5.5135166172006596 2.2634991356224883 -0.40784509561371696 0.7192637953768838 -0.7814338411477252
P 4.661740055177448 8.930019304900314 8.302022995091686 0.4790024324848331 0.45240411317101437 -0.27552764229351256
P 2.461272347967864 7.551679650964471 12.463060149812467 -0.11469511225275086 -1.2246861126161426 -1.292948901548283
P 7.032551921747631 7.210545210481526 5.678071417282248 0.25267284918252614 -0.6627748591512198 -0.6498555799863904
Ni 5.699437861408944 7.90840047049847 3.6613984405499505 0.36489044642906193 2.0250908384394157 -0.04590293317970159
