# total energy = -340871.1412775021 ev
CRYSTAL
PRIMVEC
9.28838604093476 0.00000000000000 0.00000000000000

0.00000000000000 9.28838604093476 0.00000000000000

0.00000000000000 0.00000000000000 13.59449185535875

PRIMCOORD
 96 1
Ni 6.288720402492791 4.65470751543754 9.22811750248013 1.3435114449871828 -0.024867452665641047 0.7698872739607063
Ni 1.859618497637817 8.111668351710337 10.152584071600117 -0.5528627701094092 2.6692452542759706 -1.2940375066267713
Ni 2.963431727923583 2.6957032862655534 4.728191653424403 0.012078785541405004 -1.3016024634582228 -1.1152661327194018
Ni 6.480005426344632 8.900865367180645 12.212176878309421 -0.20924717389872352 1.0172757348158414 -0.7131414845292299
Ni 3.5494360085301984 8.67072702416923 1.608119653055456 0.12860966545131397 -0.27345199071140647 -0.7350927919893405
Ni 8.848999019060381 0.681492605322866 11.963981912671612 -0.2858958729017141 1.314950859740671 0.041057175051626066
Ni 6.602797890913018 6.786782243270854 3.2330967980886096 0.34419332309102657 0.33458459635666893 0.5304352943438284
Ni 1.2172430016404652 4.7714996825693765 8.83443482961687 -0.8946590537231688 -1.4838731087681023 -1.4553253790373968
Ni 8.497024915251425 6.523214998596684 5.1860812242131855 0.7859597540425368 0.6250907143368847 -0.22970826996655277
Ni 8.737621981039238 5.133180149878634 10.581164139972444 -0.7608750431597671 -0.49035745248633616 -1.2215946181750124
Ni 5.926863455847166 7.436411968831587 0.7163769970913597 -1.9091777946191633 -0.18575731830689945 -0.15801665785852143
Ni 8.926269103231668 2.5040838805132237 10.055138683927392 0.0951822390308038 0.4555693982728735 -0.27442669591984997
Ni 8.233457670577256 1.1788819669455006 7.622540080707 -1.2340112466718103 0.11550398130729139 -0.5062257869771605
Ni 6.546259484572038 5.122006221370633 4.842575342034109 -0.05416671585039059 -1.4075943915100209 -0.21119452743308142
Ni 2.7457026687747526 3.603819509290251 2.2068620263934697 -0.678777148116747 0.8580519440230964 0.7915722151333077
Ni 2.6191391194397435 3.87065626588031 6.636504515320901 -1.2229261925022423 0.6614669389730736 1.192392028469127
Ni 8.875591668535366 6.907447667416685 8.432024789150853 0.8258303649852293 -0.017488900813382783 0.796651429428428
Ni 0.7288968127488277 2.6287154455342976 7.683157946233944 0.20014983958314564 0.04633693539332665 -0.23365671309133954
Ni 4.112535128953331 4.688080686783547 10.367404008214693 -1.0415371784663676 -1.712859412966966 -0.7540611055617271
Ni 5.67930938885196 1.9611962882974134 13.248417099538074 0.4560270546355824 -0.8058315532657992 -1.2587259758096707
Ni 4.40415329972406 2.0403147613075125 2.4551378009905633 -0.2969621580182047 -1.4687624783789093 -0.3217722750833491
Ni 0.8259734514924001 0.6714109910231288 5.544554411793587 -0.35943276574860034 -0.536180938578354 1.1016436568399608
Ni 7.2452569823854915 5.409305292593382 13.027343292545746 -1.06986662153868 -0.7150466719717428 -0.7441682719280474
Ni 7.346500391144599 5.71542263410475 7.025823504382781 0.09362775005949037 -0.40725297055567283 1.1162866035641164
P 7.7787168626847425 7.469515776979977 13.2372970436696 1.3629389575841753 0.7306658665662384 0.17662373143674742
P 6.894248870733502 1.514146264116142 10.634916959314632 0.1309434557908132 -2.0338444162623297 0.08544084337332383
P 5.30250742893171 4.319759023395138 12.286266619071613 -1.3699431568161502 -0.18498495891724914 1.1159274204524845
P 3.8763221814163704 0.5025258391495875 4.760178997560606 -2.3088485819522044 1.004391936874638 -2.659120507137143
P 8.266329269072529 8.236587856701277 3.926741398978406 -0.4842929914598111 0.5993154051449936 -0.5837064949631431
P 6.532122560890261 1.5632075196267483 1.5523958381776106 0.3432733823799185 -1.1745601424940286 -1.4416149714298396
P 9.053826509882018 8.519939363821031 6.955540144254486 -0.5184045884315395 -0.662817025243065 -0.4797948464791414
P 8.269394436493677 4.141375567870489 8.287351673388537 0.9842923379112853 -0.28519524729026363 0.3793624147929918
Ni 7.565585554667634 8.802891470337427 1.7242848541238762 2.0167764050364494 -0.5817005202767078 -1.34704876871648
Ni 3.1458184778679716 7.690783711242314 12.049545596813632 -0.4864144086781881 -1.1090188662581095 0.6502296754963575
Ni 3.2850513858770567 1.4673420864338356 7.2583981910747015 -0.0651808075727071 -0.20574301740020692 -0.05249986967092894
Ni 8.53223718705012 3.9197546749354153 0.9250888909903416 0.05848616916135088 -0.29767306804230026 -0.6510699120094657
Ni 0.4821935619226437 4.522366589932974 3.8254626943520247 -0.3872721565583717 0.30175160898704806 -0.4265974365205556
Ni 2.493653022895198 5.787955641352444 3.259986675919584 1.9717777288385718 0.35767670228944204 1.4915874466932248
Ni 6.2171348106298145 -0.007504087150136069 3.3556096822346424 -3.2200398290024412 0.1566696569123237 0.772659951609837
Ni 4.004390449303579 5.384254515215096 5.501908644579303 1.7597457931058595 -0.8959543754958248 -0.012369577308946438
Ni 3.364160570501031 2.6276194159715844 11.782876031173817 0.13972865818261096 -0.4179333330876544 -0.8231708158751954
Ni 2.347230904025604 0.6512932755156654 13.079668486940568 -0.06870476156556554 0.2215920686173216 -0.6881634744276536
Ni 8.149379199376572 6.4128689714353815 1.5673631435789341 1.3385574434160172 -0.764590030117509 -0.40187499407321114
Ni 3.9784015449267 0.19753332119791897 10.736032188345217 -1.4006207884056654 0.8776044122337272 1.0857956340641108
Ni 7.631923208370162 2.853252891712524 5.34981317946475 0.9763185756771895 -0.5196885973502856 0.4268753727722906
Ni 1.636576481625665 3.2334636893405353 13.618418103137829 -1.067443099698852 -0.27565928277537044 -0.4351568960547925
Ni 4.951211377309856 2.2301415085377774 9.630704951121128 0.856083764553132 0.3521202912475871 0.2490005425372615
Ni 8.787156944242204 9.26163557264968 9.714501984222231 -1.1166743259208383 -0.33405829153955374 0.11593206998364548
Ni 0.6439090085465378 2.4411086225878336 2.328301173103488 0.1319343589491728 0.3901427932379474 0.7334339162296788
Ni 1.1490012287823768 5.199489938422786 1.4948097018817652 0.13484716172059358 1.1896049526422932 -0.8530485772712342
Ni 6.1041508818091 3.5928220601186194 6.984986185946974 -0.8757840711955369 -0.6567551353197012 0.22295398196185473
Ni 6.89341291598228 8.147149986706648 7.647377225204418 0.7716741906578001 -0.2151116030993005 -0.814960512150261
Ni 8.607538133362972 1.3804863877818707 0.6689885799218099 -0.35506240459504657 0.8183379132629262 -0.24279055707180766
Ni 6.109510280603045 3.8833906432572585 1.416410149957717 0.1913677225151414 -0.4082857826955614 -1.2330198292928185
Ni 1.1790212927373709 0.23403853634517086 8.164824856663317 2.0711282403144526 0.013943863774601793 -0.1213720100522942
Ni 4.456641969714677 7.460023046360545 4.645238005783419 -0.4437459232753841 1.1010157934479747 -2.2076777294381333
P 6.355977606421663 7.3560395636946545 9.620277808857551 0.38039162738845456 -1.0048033133804437 0.5072141190323587
P 5.04466183011035 3.3719349496873954 4.973490500268533 0.2877362685445625 0.07316999642577075 0.11341804531254016
P 1.9527159917655725 7.003926134093827 0.3030902564733322 -0.22418425482453005 -0.48838387369973313 0.35990250629616727
P 2.4167266090105253 1.585936200473862 1.4952583309315877 0.2927722883065732 -1.4331038486350351 -0.3253126841364397
P 5.881981974092669 6.881783856554169 6.016745310698553 -0.0903555070661218 0.1961278629079461 0.9911450991670606
P 7.589605321186079 4.519672957956815 2.8588537885457117 0.48934803738521526 0.5048463901311305 0.5509740377271285
P 0.49864236491085506 2.478094976136344 4.64530581100213 -0.03211102160193179 1.7103088786309708 -0.31142898417581205
P 4.4417526867568 9.108497950611937 12.855114321667315 0.7158236593470833 0.8809262775181087 1.534658566851086
Ni 1.8406237480128285 9.093747993445932 3.4659157693356093 1.2697606363572778 1.5957626332512582 0.5353345314176586
Ni 3.0156603231027077 5.341360748091283 12.502446375414845 -0.6356006127292732 -0.17300901750229558 -0.39490473340296506
Ni 6.946876866515988 3.5218123481953736 11.29936073190563 0.9666430002606385 0.097300056704755 0.221095074376245
Ni 7.062312929273621 0.20428876442640512 5.500794038244342 1.8448043134391003 0.36592480123084725 0.37804986662915535
Ni 5.362696171019693 9.20214345952105 9.055685115945568 0.1492813348680526 0.7418144269838901 -0.7735508388552227
Ni 2.4765623924257705 2.353574871748766 9.406572478577937 -0.28434524058514254 0.5962665910163408 0.20607494681832894
Ni 9.334828055312228 4.424114041506017 6.212084715093821 0.6243690056795118 0.3724736580929585 0.4128852291407856
Ni 1.4996099398310043 4.024583400738653 11.09745536735882 0.07326461302210607 -0.5432373312045031 0.5504163654514457
Ni 2.150038466598461 6.78120921159604 7.791356498523219 0.3412391255587091 -0.31740654191548556 -0.0264579370812125
Ni 2.5078456768937225 8.288389186118666 5.8516674682975225 0.27063817541169516 -0.3026694928156271 0.21864789838733314
Ni 8.004025244911318 7.3466675820948435 11.067656366993594 -0.4532579765308775 -0.5276613311431171 -0.515052641240171
Ni 4.164215709351099 6.883465054442739 9.572833661371254 -1.1734823360488176 2.392328959165048 0.15783410953407012
Ni 0.6993643890653797 7.19695737453711 3.213384056216183 -0.980154661593828 -0.779352018918032 -0.40627286603059065
Ni 3.9208507044981284 5.565248007240782 1.0461044872930745 -0.6618546613297956 1.0581773581262097 -0.29802170963097063
Ni 0.37022578254397026 5.535980302561887 12.696222544425327 0.6424348620422871 -0.0313646303542105 1.0710027920256524
Ni 4.720571461447708 4.555377514220118 3.1405863299639347 -0.0664560747407049 0.2874287646064727 0.7310541031435925
Ni 6.476410820914377 2.395549088646235 3.3801477406988454 -0.1442093196617839 2.513635148976413 2.18871584362365
Ni 0.6394747330106113 7.976522333596115 12.30945879038635 0.4551688204003452 -0.4499453672178767 0.8611781483569041
Ni 4.954127930553007 9.193440241722216 6.307504305752749 0.3412800060989735 -1.9755616213610363 2.063491292594485
Ni 4.897552370667528 5.7020566464713225 7.821767603534062 -0.7610447359684119 -0.43713690259929877 -1.6270946105953203
Ni 0.8771515302008228 8.844819245304272 1.2875885939557958 0.37969100177700416 -0.2647459782969763 -0.5103647488461985
Ni 4.006498912953884 3.4446723014298337 0.24008156035789335 0.13286561251419055 -0.23744034850348789 0.0924175318014731
Ni 8.356352307393013 1.09637323299989 3.539802094441671 1.4197713931921871 -0.5761965597393431 0.1827640400065304
Ni 5.157367107347323 6.35753805529061 11.589916311303694 1.6465156954344093 1.0031752908587175 1.2174919088605485
P 3.9271482302906677 3.5632478386976105 8.257566605602499 0.8734633934821603 1.0253294583582535 0.013730976432847321
P 2.0124960448640694 5.874133287817307 5.533909921294694 -2.3000196708066647 0.5926865869745663 0.00344682089801987
P 5.974104187677332 1.386263763951427 7.388130937755454 1.0453097581349222 0.44429485380031863 0.4811061090913972
P 3.4945602233055366 8.49867824798162 8.021048999000648 -1.1949412772535422 0.546964145236787 -0.2182663466781983
P 1.9476259561692433 6.164590410322449 10.137997590029904 0.7123441854389151 -2.873142733827007 1.167878873819111
P 1.448022243294483 0.9731906562142674 10.622300544441465 -0.5420427966757697 -0.4514072964753839 0.9396826696217107
P 8.95174714637169 3.0553310202412534 12.319423371020916 0.503111666828211 0.5182042994952752 0.47557798018431646
P 4.644620328106128 6.805368303906355 2.5295275566245836 -1.100184298685615 0.9910121731336222 0.035261651415771526
