# total energy = -340870.4759201183 ev
CRYSTAL
PRIMVEC
9.24727425473768 0.00000000000000 0.00000000000000
0.00000000000000 9.24727425473768 0.00000000000000
0.00000000000000 0.00000000000000 13.53432060061233
PRIMCOORD
 96 1
Ni 9.257446349153907 2.701702167876839 4.570891645535925 -1.1599750455910023 -1.6402823129301878 -1.5295186745213594
Ni 0.5160561664117348 9.095646789897943 10.701086433348724 1.629758530580729 3.595783158985607 -1.198238202837259
Ni 6.230554531577392 0.10820883023064057 3.4831791509714476 -1.040352414129647 1.4591085002289128 1.1248959424996818
Ni 4.060274725895314 8.437222361816376 7.351599751254405 1.1529168531926401 2.488078126442915 1.170757738028803
Ni 8.746404979620753 5.227400963100151 11.301523053452792 0.24524133260514533 -0.4017086436986759 0.5811922131817218
Ni 6.782542831920709 4.821010997356203 9.996260107319483 -0.826255625448106 -1.015969100189276 -0.20226174371982586
Ni 6.215398248922049 7.094092751958012 8.373616834672848 0.5319278197289549 -0.517653826308444 0.4226276532395302
Ni 4.682486827632573 3.1157951131521484 0.3259969367502022 -0.3379090327442116 0.5118225643386476 0.7915357054684174
Ni 7.6700684819584115 3.9556233221061077 3.2119510459984246 -0.62921990601391 -2.489974315024363 -1.44310723970465
Ni 6.797042558097387 5.972074719019654 2.2764052250022546 0.3194904210277078 -1.4451489527250274 -0.037267368991890655
Ni 8.269939168872419 5.324108958224965 4.7695758079812505 -1.0558029443567625 0.9421203325289258 2.235372881360557
Ni 6.545794114079295 8.025949835217014 1.6352704257679687 0.23945789315414887 1.3659769730795508 -0.9620165572322206
Ni 0.5846117595134103 1.0746904828285082 13.23513089367054 -1.5137675823346897 -1.8784137739634297 -0.9502185361560279
Ni 5.155410932305861 7.870549389809432 5.282310353447411 0.6884740636895369 0.41920911447628445 -0.9317395035152339
Ni 8.012106665519 8.99685815804497 9.213867644064482 -0.6224082824087152 -0.9716013727071783 -0.8050237126525233
Ni 6.547985718099623 2.6435830486036074 11.908455883785889 -0.4181395355611895 -0.6176882512252265 -0.4005084527429877
Ni 4.393148860577657 6.950047959449001 2.7666050876113033 1.3135277541408992 1.2188378813654817 0.48039597039825
Ni 4.001277115559082 2.17959181094988 2.4249303219325666 1.7787686140652657 0.901693591972447 -0.8342129326219696
Ni 1.6573797340051 9.16120996502081 5.7194687751273685 0.1870492976454456 0.6107958949807674 -0.2961923697317157
Ni 4.989903216036601 1.3646202754416563 8.46148166133927 -3.378156759884253 0.4619231084050432 -1.192223621212063
Ni 4.582024439122726 0.6075736664453693 0.5244545409740179 0.1945407209264843 -1.3669241674841683 1.221928347365347
Ni 8.528215541394514 0.4811634261167968 4.675945305759242 -0.9304238700276041 -0.8649360727374396 1.6002864892635407
Ni 1.1068340084599726 0.5734114608238736 8.456473337552735 -0.3035665507085998 0.42516430361845486 -1.439975636054204
Ni 8.127845551250704 1.3817462275329888 2.539051859380917 -0.47941715142474856 0.24206139221526699 -0.08561336439544612
P 2.8327822817508346 1.2067877968807144 7.059190764388727 1.1778331568183458 0.4810526301456424 0.6469106384254536
P 4.664241955345209 4.851637969994698 2.536250859981098 -0.05566026967678156 -1.7698258030496812 2.3569860608893793
P 8.583246071035724 8.34695971691168 0.7376254834119367 0.417274616457733 -0.6721694129922423 -0.40312377887864764
P 6.0535339587456525 1.9863422716385042 1.773253629942277 0.17136659680286617 0.46650867089319653 0.837070713785739
P 1.142759669299512 0.9830222522230115 3.6459700180374504 0.36224683815862774 -0.8152523323590669 -0.3499855042927714
P 2.5175796883463195 7.326273316271823 10.964911170479242 -0.251460831152296 -0.86395776798457 -0.8043351712259308
P 9.158796426416144 8.429843036887174 6.8714562994981225 -0.2779102835930762 0.09852030226510129 0.435005972299225
P 5.617081104098399 0.4167968482944806 12.192379571710418 1.1839932628824705 -0.7143126220191957 -0.151449546163965
Ni 4.9342438717397705 6.737166456698155 10.501361027811885 0.6762790642852418 1.3573889743002236 0.513844994085315
Ni 3.6062150608906642 6.538387047327051 12.635425732967349 -1.3255905988427041 0.7880120085858751 -0.8763795386876907
Ni 0.9654801727860474 2.3391905189111704 1.9926720309292802 -0.8736104605829857 0.9112321275905017 0.7590588158866347
Ni 0.33059653101058495 4.271676664750581 9.346585450225396 1.3942971601804826 2.841280080790455 -0.24378223156111564
Ni 3.0612269472283073 3.098345506458658 9.688881632740276 -1.5443423697977532 -1.344075545020769 0.6878058339779186
Ni 5.483097346079329 3.4289448116515473 4.259223360386976 -0.9671019421749281 -2.752578307277673 -0.012900767222068104
Ni 7.993020291266024 6.221686395478262 -0.1892371469720512 -0.21179847956566747 0.9004260381139331 1.0641567156380964
Ni 1.171084070625512 2.746505212089856 6.860425225929144 1.310112557811763 -0.6691630220657507 2.0641201844277357
Ni 5.78286623859808 5.559609294029483 4.461900495895497 0.7675696815711232 1.8873943801954847 0.7099389184315322
Ni 6.962448554348827 1.8994178927732095 9.286980293964541 1.7314649438832954 0.8155971172929954 1.13417325403655
Ni 3.6214638162894803 3.2095347332114565 6.121518995020096 0.008274324193650266 -0.054939332350356994 1.2038336946471653
Ni 8.42901078219591 1.5325877666873176 6.907782367316903 -0.37922383233259854 -0.5744538660166235 0.3595204403664002
Ni 7.519134470060609 6.951989887061949 6.4201809887994665 0.15980871676193767 0.7843921524451007 -0.779543823213864
Ni 7.766600778870625 0.05278344197479823 11.76426128543245 -0.7662496772081191 -0.11929250181544615 -0.14622660720212882
Ni 0.46745434189681806 7.3711225968565754 11.773208023363532 0.040909336619852125 -2.763982692459872 2.3612929157948495
Ni 2.406954545328711 1.9480493085660375 0.4058120110972377 2.648631434680361 0.41376763174573905 -0.9199551092857964
Ni 0.6418718069997713 5.982542633580879 7.195237589314695 -0.9364374232115357 -0.761156836066244 0.3298110862274255
Ni 7.274904707272172 7.017673276751331 11.021375952371729 0.9710722396765857 1.295602022900414 -1.4404127235916224
Ni 2.15095300229607 6.7559014345259305 2.5949895466356034 -0.30745765823288984 0.5025408819264054 1.2527399334295652
Ni 2.774718646123687 6.861912187644201 6.795339210162602 -3.041914059098871 -0.9018697125389952 -1.087581779430256
Ni 4.8125774831514 4.1403561217435545 8.569268815859672 1.4637269728375308 1.1638124170592214 -2.1025808023967785
Ni 4.879093127532045 5.554190391261923 0.6405993820495729 0.6758846570603005 0.10645215551766828 -0.41232524287225764
Ni 7.253968878149723 0.87513337768479 0.3847411717693163 -0.4709014006442535 -0.3974712085785606 -0.6136472483866335
Ni 6.508851253061546 9.317553632411824 7.018560090361245 -0.09170507911548077 -0.5886232155384701 -0.19668219274951934
P 8.296552824444156 6.215842118090722 9.103617015657942 0.6783542016467156 0.1183756464281316 -0.14234706964206453
P 0.8241929174874232 4.204883602139515 5.523207398561054 0.8921175182482378 4.151897346152779 0.9512989137044005
P 5.255318484354866 8.73491061760697 9.248366450472222 0.18289850870186564 -0.9985856146055061 0.7168970949169202
P 8.407316676576976 2.5839103872400173 13.279943185157904 -0.3820782710622581 1.005105675112211 -0.7432043653528813
P 6.523517430176477 4.957778184953831 6.559692767423396 -0.36616339960421457 -0.6294415351064128 -0.9669646452661154
P 2.790244819752924 4.543037930474206 13.078227766181508 0.6171529475470467 -0.45176262293227354 0.4946578796339029
P 5.133920266722569 2.8234980183060734 10.117310627436316 0.8242468225481934 -0.7676496428794393 1.4067451561358482
P 2.9778165326150137 4.80567901648826 7.659599642669752 -0.7621734502562163 0.40742831979127253 -0.34004459102997564
Ni 4.801767419439322 6.073193664008165 6.724202702790575 0.6331961170528385 -1.2808811717504713 0.5569837342563182
Ni 8.883495821820539 8.088008293362227 3.0665524525249586 -1.5001039688046682 -0.9989568819019955 -0.5293803707167528
Ni 4.610737225971316 4.343158095455765 11.672445098437397 -0.7439029340818026 0.0073065609637422545 -0.09072214637692118
Ni 8.971224713554054 2.6818482698530324 11.064699432689165 0.7393317697713525 -0.6411680795147215 0.7982807375017349
Ni 1.6186798908613491 7.369189916517975 8.964078419938406 -0.7510824825493775 0.027980801483642136 0.04192132282413425
Ni 0.6579537418172855 4.186916148082571 13.534726862158996 -0.8750114546955704 -0.8626130810312176 0.031887335626899924
Ni 1.2410119592403372 8.858121301011352 1.802256781205374 1.4899308849264083 1.3126888031793715 -1.6032280883903678
Ni 3.95023216116159 0.878096204385688 5.104062667309776 0.7528622001576195 -0.06287272826482075 0.2848111244779676
Ni 0.9279824753074546 6.399160084753021 0.6605651720929833 0.5596795359209263 1.085715929866111 -0.07193715245993418
Ni 8.227558910538415 4.165554944340142 7.407008494416422 1.490138372951524 0.09461171123931447 0.024784663143847637
Ni 3.422628923272292 5.150694822388703 4.577063276435361 -0.7318118072452235 0.37991982995835855 -0.5545830952346256
Ni 2.6302577262690447 2.605336321902878 3.9788330559905765 -1.9417670414090946 0.7840414539739013 1.5184359343446365
Ni 2.6080735151096994 8.936029587387958 12.454403864525503 -0.044748507860284226 0.09328862155251674 1.2299805282458622
Ni 1.7107734960868248 4.480507861337278 11.235692632101287 0.41983440676510925 -0.501706044729936 0.5113538522323452
Ni 5.870252981180744 7.523573161747347 12.910456317152011 -0.4588061600426163 0.9751047578747464 -0.011267088273387049
Ni 6.377465979134087 2.8194014757701873 7.157002884070617 -1.0682380847963215 0.2249782114807351 -0.3880941382390348
Ni 3.5095810439606288 0.07086741168851851 2.8124724931017018 -0.6877556974662735 -1.830807484939376 0.46287055991997705
Ni 0.9219588007975766 5.02582887687614 3.5617726603771955 1.4334517188927571 -0.8788861071596283 -0.9725105147850089
Ni 0.6045941946506461 7.164483004290205 4.968909129085763 0.71891206846442 -0.42775751826692776 0.5606059043899377
Ni 6.839080667280539 4.065647392291138 0.29646761557673984 1.361672432166926 0.06777607910370909 1.1541337563188767
Ni 2.613067043257281 4.072453386210803 1.6328615108004785 0.656784703006056 0.9823092460429856 0.8816351306596751
Ni 2.8590445408973704 -0.047328474837283606 10.048068886578065 1.6118873067272628 1.3138841090390534 -1.1341133473328922
Ni 3.2676538524846883 5.505207579043895 9.797075667331963 -1.774050896874622 0.14987628813957413 -1.034485928046541
Ni 4.022018751920237 1.8013782901423736 12.117033705055468 -0.38497873253850473 0.350016614641023 -2.649225102400302
P 6.353210378520931 5.423498662910518 12.171847848476949 0.07861790691421945 0.43296194528600274 0.04026116151289195
P 3.4288338443593784 7.826088494747268 0.9133246207394357 -0.273525010041187 0.5029160058776371 0.2829175069996805
P 7.054542159574302 7.4261346319490915 4.023361456155476 -0.1639145114001951 -0.6041855887531014 0.5339384224010805
P 8.85379357661678 5.006187666162323 1.8261184479313322 -0.09005365955498684 0.6434895285590465 -1.1665457568299844
P 6.4608856410217275 1.6492328853050655 5.417504579678551 0.22708625896267343 -1.0572337632660178 -1.2269281145727837
P 1.966312675402097 1.673913860538201 11.30344556178961 -0.8990445843853743 -0.4611893155628122 0.18551717727163533
P 9.045397101094323 2.4356118485312157 8.897665420303017 -0.3158613089155528 -2.9305505823225144 -1.7224370293530724
P 3.0464775446442496 7.634457228446683 4.710688240209753 -0.3982253131357658 -0.2085555471483376 -0.8181327392306557
