# total energy = -340882.9222182514 ev
CRYSTAL
PRIMVEC
9.14386919549375 0.00000000000000 0.00000000000000
0.00000000000000 9.14386919549375 0.00000000000000
0.00000000000000 0.00000000000000 13.38297684406573
PRIMCOORD
 96 1
Ni 0.2731867988156564 7.760145496443049 11.816779952172853 -0.5226078278796096 0.30066634634266926 0.3840137975220741
Ni 5.047936826394485 5.59866290561622 11.657255101175656 0.12007823094153512 0.45409024262418574 -0.37872066744393484
Ni 2.260940452715534 2.9494189167265805 8.340323977351234 -0.6285061677763369 -0.4438845057357774 0.4132528968928496
Ni 2.395401044705366 2.5694180135022724 12.897160979152103 -0.8843669277685414 -0.5025470525739926 -0.4252954298796805
Ni 3.138413542761116 6.83057978534571 8.343362484982531 -0.7803519209374561 -0.7155243829391096 -0.9571741415382549
Ni 8.416757577381361 5.219658684100644 6.313164820480926 -0.5099451448102766 -1.1611348702270583 -0.3795655319427334
Ni 5.157599245961576 5.557789811689355 7.6178714684888975 -0.8343137198658922 0.04537457148005734 -0.09140143183213291
Ni 2.7906447773650402 7.06577838086849 12.61384368799605 1.2293590926117797 -0.2252561477324701 0.519787327711679
Ni 1.8822562666110172 6.504765449148382 10.492360951617336 -0.32274183808546997 -0.5670295485280944 -0.7823445258874526
Ni 5.729191633984453 1.4933583789592277 1.532926642795855 -0.4954487509663145 -1.194785211291652 -1.2104897665111023
Ni 2.6253602033556414 1.717355735094891 6.019314706753429 0.6916588891754217 -0.5770157132065289 0.5997177827897349
Ni 2.897134274428188 4.740739407251988 0.5163469609787312 1.481948380941564 0.28665743365808694 0.07681684914973866
Ni 0.31088971339924537 0.9659491654004695 7.121054897066854 -0.19975029015188178 0.3340099548001215 -1.4129083475237665
Ni 8.757101521240834 5.304641801540527 1.7401212254639549 -1.213934016305961 0.5049541193535884 -0.17135039885295003
Ni 5.509592478783649 7.601828550525881 3.9052595350719828 -0.8113429700023318 1.476695874293373 0.15367689283258695
Ni 1.5968486870272949 8.86156107941097 0.36506256462289466 -0.9044580420914616 1.1773050522290176 1.3761762822100556
Ni 6.2623249094667495 1.9745361914230803 3.6494305425653573 0.4330267370856671 1.1556198539461 2.117213464708289
Ni 4.475759230762811 3.257512435020046 7.235171295169017 0.2247056745456388 -0.5500906066809107 -0.06941232915555143
Ni 3.9363166857481793 0.3125868154647546 4.050652536703641 0.7490027172022133 0.8423764422693685 -0.019551696879682456
Ni 7.528769038115221 6.169679229899188 12.631121028258871 0.20003002617582968 0.9168088503473307 2.232020419948556
Ni 5.877020562287725 4.70670592725293 0.6396337451881098 0.3198076951578105 -0.7026768375524801 -0.4214585726320935
Ni 0.853603934701804 5.600894009624756 12.921210268712963 -0.3577538353842807 0.00475396974521762 -0.09996783334490525
Ni 3.8086774199483786 8.206091982083588 1.5887600206094636 1.386449639111606 -0.358342360897899 -0.4486220204207629
Ni 6.540106502398346 2.445948351915145 12.890991610813746 -0.13843256507900675 -0.1403341529770938 -0.840311846430856
P 5.060646804148029 6.815282092697021 9.588795831701438 0.4714426178597042 -1.187004796015285 0.5729626261830777
P 2.398098486027162 4.567069905472806 11.6387863147968 1.5612874822925242 0.9718140029386166 0.2624191299360126
P 0.8644979400943023 1.7506394178451792 1.0669459404229311 -0.9360885245125491 -0.8721174209772271 -0.7583918717265972
P 6.8624644561562205 4.057527811720108 7.445230651959552 -0.2928831028528246 0.048840418541470726 0.09549668494742908
P 4.449543758662515 2.664239933865044 0.374004354007924 -0.41850386087914376 1.8174187223372957 -0.5305561361924089
P 2.173360476511616 8.957489407909122 11.736643085243314 0.8567615073464471 0.8340977472003442 -1.923334802845836
P 2.4905704320858613 4.897447032244967 2.7557819484578907 1.4060910674916172 1.6728391638202869 1.1516657543943585
P 7.339088621914127 0.5173911908056771 12.080237674492272 1.93620394549902 1.3362977008475632 -1.4018765151896373
Ni 8.872579441420337 3.439347411715715 13.100180471286198 0.6258736152494964 0.3000557093418639 -1.0218520413326144
Ni 1.7468355683880032 6.799335185357322 1.6194870776188235 0.25397537004403353 -0.7234840041058185 0.47955084878913545
Ni 4.281598318806871 3.4126290268266097 3.110297060319121 -0.16400115757673045 -0.29372693891035867 0.39650884466529135
Ni 0.848449535809953 3.342458976984381 6.329090696922184 -0.20598984330369038 0.7394592964881523 -0.24018294424563152
Ni 1.1663919152820823 3.584478898697192 1.9769602310651413 -1.1931368770549517 -0.7520474175658081 -0.1896070310702928
Ni 7.695580638228822 2.7462055745720733 1.5250437134279913 0.698775702725861 1.5482404193005788 2.1136152058340696
Ni 1.130502229898873 8.739289264648097 4.964174415451074 0.11467274365524767 0.41761811584008074 -0.010235304574763017
Ni 3.29149105180578 1.4718885748115145 1.6896946173234906 -1.8512559826017148 -0.23045594676585474 0.704460154705148
Ni 1.1492288733803537 9.02337098324314 9.002594284357096 4.302284769600816 -4.6710686375470125 0.23918278511589133
Ni 2.712812165395135 1.6858093874332165 10.356991459060092 -0.6261978313581346 -1.420812689972508 1.0723251103815015
Ni 6.5725306614732135 6.759669082123599 6.089428064608555 -0.2756690529673833 1.3047322673364563 0.25902064577742484
Ni 6.474800990804236 2.007472407155646 8.203537185116437 -0.5428876611745682 -0.9826943972965463 1.8754649757477508
Ni 1.0330651630342926 3.3398621182203474 10.688407329337867 -0.6551258272463943 -0.4602824874778267 -0.4721650978480256
Ni 2.5439889141262966 4.495098513459751 5.014735438464183 1.3098353928909765 -0.08564190364053638 -0.6127810437315963
Ni 6.455489139713959 4.250646322622881 9.745015174095826 -1.597349518122404 -0.31735049186656955 -0.44318722255843673
Ni 7.4591110449306885 9.33406136030064 4.891584897901228 0.36078053802574644 -1.5693095812660522 -0.48877442426993245
Ni 0.24068491685524437 1.2837809040590606 11.98594061220364 1.134935071903239 -0.8331932331082038 0.47700802776262363
Ni 6.909235345515485 7.1716735264539535 1.7786242285751952 -1.2440277503675479 0.03172355635552601 -0.9840205723071375
Ni 7.148877861317562 6.004056332740954 3.8823742600204936 1.2004845756692744 -0.9719279028086617 -0.036387794600414754
Ni 7.963422845679768 0.4481492436555238 0.8938305570983269 0.10479559375085178 -1.0999140757433639 -1.0118409369535155
Ni 5.112565691690924 0.21895176928357257 6.134435101659433 0.8565506768872216 1.4621339173187982 -1.2336518064498625
Ni 3.691535315631361 7.511130515031345 6.006173138388397 1.0161611615954242 -0.1448335835093441 0.3439107588536013
Ni 2.0575076577077276 2.023016984264297 3.8514999867220463 0.11744773529722354 0.07325689971262221 -1.5357399728407228
Ni 7.798348580654781 2.5083186815963856 10.678276836997469 -0.03127387041261711 -0.6830104694718043 -0.1435313197581528
P 6.613376323793417 4.1334767866992 2.937228310725843 -0.7161851564515601 -0.0724644857183139 -1.554473287584168
P 4.62170452207527 2.1739091086448625 9.545287474761214 1.1749918307148086 0.8080650705820084 -0.012884312161835875
P 8.668341985950436 7.1511455408016475 5.252912192083603 -1.097453530018013 -0.5379778825777768 -2.2419248235464617
P 4.797074783467518 6.69221476134094 0.20956650225750226 0.040133377685776045 -0.7539001545038305 0.726332272187891
P 8.878029187277253 7.448083539052434 0.8686446846347571 0.21717157095212275 -1.4051343600053026 -2.8274588586366467
P 2.1762042197356104 8.560544915636383 7.0669076486760884 -0.4473758067184876 0.3881962110345379 0.1445852149439639
P 2.247919583419817 8.848668224279677 2.94381281071169 -1.452050822051183 0.20709696032494007 -0.7135340919819582
P 4.691819708704174 5.880129477709455 4.834332391636288 -0.11632467743637386 -0.613664217667498 0.5669992095107912
Ni 7.2899403266441265 6.0511198259046175 8.48083232422322 0.6280212577201184 0.5948368005483498 -0.36250703379854987
Ni 5.520866869121865 8.39606500208908 8.067739759495261 0.28675256447505454 -1.2192027209040681 1.775844498439935
Ni 8.935425252283725 7.781075812326403 2.888876446435939 0.7009089470187799 0.03551464796684206 2.455626433672113
Ni 0.5244877474492208 5.348550659938024 4.05220425125384 0.5791391873074347 0.9471730644614849 -0.5884326967942188
Ni 2.8343707583847872 7.030976815882886 3.9131424644398467 -0.21293233605979453 -1.4144448387729511 -0.5430815223529292
Ni 1.2942597778040692 6.444415914491266 6.187833467188315 2.8292609448423915 -0.08460626328717041 -0.07276067680249404
Ni 4.716553874044705 5.722699487074369 2.425008892162903 -0.5734051130371352 0.6201074021896804 0.44796716044558327
Ni 8.252643418589555 0.03399873329728628 9.881855915157061 -1.1525597269635377 1.04690847008061 0.3340672904006182
Ni 6.077728484367073 4.164821969245351 5.353631907878774 -0.9170518195960723 0.18626896783599534 -0.21450765096671442
Ni 4.466121592955448 3.1235821874256855 11.6107759012339 -0.023782961352210655 0.29802042407938995 -0.7431886816235975
Ni 3.5786816858225534 8.417571381712342 10.004966222696911 0.06322599783918144 0.7172084555097519 1.07480905314562
Ni 3.6661153601242726 0.9450920004682147 8.053915144124337 -0.019535756040082484 -0.9325054351469811 0.2110554307520559
Ni 8.235955857869973 3.5458277649099754 4.249429273673962 0.6306574097913847 -0.20858357217279558 -0.5647659493048983
Ni 8.805234847064328 7.750581009586785 7.322883857471802 -0.5190113687776029 0.7137701192521643 0.5630204273687013
Ni 7.538196366938173 2.245779918100155 6.13838342424503 -0.06479899875325615 0.3588139012176788 -0.12325765711078127
Ni 4.237707748147151 0.6436799071708028 12.895019485058665 -1.2324346462133096 0.05601173947892934 -1.021135989102196
Ni 8.761024240993546 1.0182978147810742 2.994307083481921 0.6883614493710726 1.1438035780374625 0.2817576823636244
Ni 5.95456971432212 0.2311451184449763 10.551178888235807 -1.6958880752199506 0.7884159288925132 -0.9473756673905942
Ni 6.061388390665215 8.38444314473314 12.981808516603818 -0.3313146673561455 -1.6354015877991188 1.1817378911893908
Ni 8.777858103615328 3.5893342930764236 8.48817942287428 -1.0380661891986316 -1.556142447756475 0.3365419771933559
Ni 7.154364182650026 7.198254753309747 10.61434656328403 -1.4677227242604851 0.09612326278783445 -0.0799754493833784
Ni 3.8347283024087004 4.581764102774925 9.587604385585404 -0.4561633231031305 0.12949129672531892 0.3992121025290673
Ni 0.6254881800192372 5.561410783768782 8.31278264426226 1.866728110095385 0.19691436336498344 0.15031594678015403
Ni 8.653693507992754 5.100066022921791 10.72240057631382 0.9314805934268925 0.8682777355161628 -0.9586329854719684
P 7.221242439692777 0.1466969173350071 7.049804041922129 -0.4416697574726458 0.42252558044402716 0.8183062886940424
P 2.710773082633236 4.610210678883757 7.167493863985504 -0.2760395489329246 2.088166169633346 0.5638290393129258
P 6.449947955168169 9.155573039617774 2.7860143221604394 1.2782023393667277 -1.1386613717148906 0.13828112710280702
P 0.2673594111736897 1.747713379801198 4.94704429147734 -0.6076486076010373 0.06391325371419315 0.6150523562642762
P -0.11474549628161902 7.146637613440138 9.473581254945895 0.20825215697530583 -0.1724767991479094 1.470297426966197
P 0.5555357542565296 1.6930970509365075 9.144052679206487 -1.6327335540486525 4.358896090336957 1.8924064886980956
P 4.738297994259042 2.2089941335659766 5.25280520881762 -1.0323837941018736 0.15061265208496644 -0.5592257362129595
P 7.032668431627063 4.3154763530348434 11.828329572964583 -1.1248365500166564 -1.160308517671021 0.811501349957067
