# total energy = -340874.1598624372 ev
CRYSTAL
PRIMVEC
9.19890438089763 0.00000000000000 0.00000000000000
0.00000000000000 9.19890438089763 0.00000000000000
0.00000000000000 0.00000000000000 13.46352640094537
PRIMCOORD
 96 1
Ni 1.0687287103415277 5.915843000574689 3.908151764245007 -0.8019738700826059 0.9889933429313806 -0.2977574002259904
Ni 1.435498226695694 3.7417095481466554 4.050071541059244 1.219436691291745 0.0760653156956948 -0.193658318321531
Ni 6.177303459638532 2.538216888704565 1.713005254552098 -0.45724138665865766 0.38621620449003163 -0.6172943582209176
Ni 1.614159347475976 0.35442274690141723 6.078647969882983 0.08974152763120674 -0.09916102117289373 -0.7443528771350277
Ni 7.953354325218317 0.8849833551129261 13.228992216659018 0.5179965543598434 0.46235659639803595 -1.6630337476940906
Ni 2.660930273073269 7.904609330932728 12.313606482585179 0.22710605645701532 0.6763999061338223 -1.6804041206517382
Ni 4.844051055076132 1.7172146731943108 3.7674444030274565 -1.6578555459272608 1.461594242765244 -0.6249117655568592
Ni 3.2210331626865836 1.1552536048971518 12.584627362966442 0.07309054933808704 -0.441450185262672 -0.23954068267594228
Ni 0.11803758127465468 5.1800410373899926 1.7953612056447612 1.3175967820039503 -0.2233180501694928 0.28116735707779317
Ni 3.6487638183369566 3.424687706655004 0.39465599496838866 -0.4493236744734778 -0.71957618441098 0.29789418291417086
Ni 2.723942768045204 8.968848975939029 1.2105491389885095 -0.7520240205270403 -0.7279582378270881 0.6086526233855195
Ni 7.03773217930203 4.85141937748088 6.05842509850396 2.4820224071671384 0.4537017489365154 0.82396811496551
Ni 4.225369542399856 0.14343391647443854 8.89012843185555 1.369302695018674 0.07415909981191744 0.05683012161516664
Ni 0.023115006914668536 0.900822028666602 4.353660222491404 -0.2278503908222076 -0.7400051416892933 0.4502153330498117
Ni 2.8885939574616524 5.4127733180892585 5.506703330667131 -1.068800899278327 -0.5431689398604129 0.3736414531488146
Ni 4.928129041067883 9.084598789695505 11.176800360522586 -1.510818527008695 -1.042523710749353 0.5748996953047906
Ni 3.07655517056553 2.5147780803558804 9.831295935222503 0.5655398513564454 -2.190731588502098 0.7443323083097375
Ni 7.602176951780564 8.124435548793215 3.330351102503735 -1.6264014411830379 0.07154891588258001 0.8682998470033497
Ni 3.3536537670676627 8.044598257718555 6.937364773442206 -1.498277971339523 -0.7215883297450025 -0.49040141835039414
Ni 1.6364482927777277 0.43932403483477167 8.517457818344523 -0.38370835046651336 -0.3437716621725757 0.17262180936620594
Ni 7.761529572276745 5.74740186255555 3.6184975831608015 -0.9577410697853183 0.154056901879825 -0.04403939760840157
Ni 7.052330840545893 3.314788396081323 8.008993898333317 -1.7057683104481398 -0.9384382556916484 0.08493176494738922
Ni 0.35101823239205754 2.4762438699270573 6.369755577858512 -0.0034748459224778865 0.48948404874244733 0.3120185381306949
Ni 3.075929645067998 4.865098148287196 11.84465829609966 0.39721101293863853 0.042048592430617905 -0.13886219641725764
P 6.888397165670731 8.181818314287366 12.633190218945398 -0.24623069310160817 -0.41930835905831015 1.4356415274552243
P 0.38578089202694 8.016477207042758 3.044184226068268 2.124051570676045 -0.5916373197744456 0.2727534219824851
P 2.70537018011114 8.877053109176263 10.248867320880612 -0.3391318494077192 -0.1511266156069075 1.316331027917649
P 6.416511769018125 8.683351779742097 8.984022568706358 -0.14397226395031335 0.21564947788064148 -0.2015364355180271
P 0.3154111133355076 6.030268172101099 10.096796553088051 -2.828080037160413 0.045808059473050146 -2.488225707764373
P 3.852620738201637 3.94683591681515 4.066375679174318 -0.47534400979663943 -0.439738601888204 0.4470788443033591
P 7.013741436690816 2.0446312766302377 5.237136797067629 -0.1037974915036406 0.2858027989672755 1.4544352631229598
P 4.805424855603555 2.5638542351989857 8.296130339289958 -0.07623783671781709 0.13159574466283142 1.4445383157242218
Ni 5.598489998525522 7.933503089576064 7.032659903429399 0.9776475789012581 0.6116610711945402 0.32931846286172317
Ni 6.148069341533305 3.8578457158869015 4.228974593024601 -0.941479099400501 -0.2931553826776048 -0.9923823140082715
Ni 8.550629987412886 7.235122269390758 0.8738673990656143 -0.3528348008161085 1.1722314943608523 -0.09921887099402267
Ni 0.9141484814353381 6.79076919353392 7.58485265517025 1.7647046797730317 -1.2876362310861178 0.7603860193384904
Ni 2.412210296569445 3.6456361908492987 7.4975016990017105 -0.21600197612405378 0.501440192663059 0.1843712365926502
Ni 2.855680277606239 7.451958843329221 4.072851707854645 -1.0800751866405658 1.8356714978998967 0.24603477504071822
Ni 6.181277386328734 1.2489352470568877 7.142360517668569 0.47870058497369816 -1.9242747981616022 0.37179231575521776
Ni 7.7327370015815395 4.295630774019658 10.16696855533541 0.43470952410472874 0.290752429663067 1.4048646512836838
Ni 1.2260851685882324 2.3007195755388086 12.673796022639575 -1.4045944283414327 1.0688325238472107 -0.617957188615897
Ni 5.068982664865003 5.637143794711225 6.408275070040333 -1.1400387116783912 0.99046375682932 0.7254647819812731
Ni 2.6607738916988852 2.4438085330991672 5.358146544345996 1.1820263689640869 0.673206338897189 -0.02405292718414567
Ni 0.39323752391369193 1.0398073549850655 10.751393348117455 0.8137911744325083 0.22240916520197823 0.10504627630907715
Ni 8.742749105294473 8.168203935811679 9.373212574694845 0.735623724792146 -1.5044766439510668 -0.7554153055967765
Ni 7.1517250023227925 1.3452017813461292 3.25542694625601 1.5822070060540105 0.4318003208777338 0.4395696804105075
Ni 4.974988259956501 4.3916489378907615 2.284342766079168 0.7979660344747934 0.6667094183189357 -1.6532339879948494
Ni 6.600333475153042 0.029043700784655752 1.4990157415178424 -0.3639810472409151 -0.11679673197678596 -1.5341402324537707
Ni 3.5077630120698284 1.3668835989591004 7.090714188942958 0.3127389612364872 -0.5435623186440897 -0.11587370594188433
Ni 4.698358807577517 6.740359197556372 9.194524777091875 0.5331943451462042 1.2534963519796152 0.15697201864409094
Ni 4.804808529010399 8.535644972185255 2.838474646862369 -0.7666849649733247 0.5642381018258863 0.16019438223613058
Ni 4.747039409532477 8.244435256371156 0.13737551805275727 1.0293702040865305 -0.48113696232933273 -0.3840683049090934
Ni 8.470553524824464 3.058194157432102 0.9415501777889734 2.0656098815993844 -1.226382526481959 0.9427507670240731
Ni 5.979710993653543 0.062328096486400884 4.814556607977079 0.8024479815055471 -1.732041385212056 1.6403422196338457
Ni 5.181062115775669 3.129255693732569 6.281771737068938 -1.0333212183144784 0.9318809141891049 -1.1107787863720096
Ni 7.756506970487742 6.8497065738675245 7.434074333442441 -0.5818529866941721 -0.37198951936768837 -0.34290211508342877
P 1.3565256326323267 4.545160254108522 0.002732074599513115 0.7953368243820625 -1.5350246919412531 0.6058300663350599
P 3.6238899809056995 6.94198998256219 1.9239112948396973 0.3033945439071098 -0.6541997158876991 0.16496994924790295
P 7.32110442858823 4.839635580975909 1.275500763002793 -2.1878272703711095 1.215941790764609 0.00246440238009253
P 9.089078656126357 8.667952813817568 7.099478905031901 0.04751810018562139 1.435136819904664 1.76339778803615
P 0.7520978222858334 2.4629882487220116 8.53147326905098 0.29803122271266735 0.1959949368745076 0.7015550652432111
P 4.256673413989564 1.2509958016369918 1.4861979881610696 0.28963425689822375 0.8903452568391634 0.1659719081498561
P 3.8676701457598983 9.306163600482956 5.148923903559107 -1.276767406692414 0.008234472094650334 -0.36988404298891137
P 6.363121328022926 5.408284252754031 8.622001526790807 0.42219930745285994 -0.5227135002195386 0.10697511790067384
Ni 5.967642031112933 2.2667480216802165 10.508457642684924 -1.020693502248139 0.8070340582143327 -0.868862147264723
Ni 2.3143339540144967 1.1257987130869127 3.5193122365132252 0.36210182794033124 -1.3502294804373067 0.06223869422524765
Ni 7.7190582307752225 5.543222981037728 12.502082834334082 -0.009236430996603448 1.2340300157248876 0.3140466243043172
Ni 0.3286704141023028 7.57389032082601 5.3902571598494315 -0.7584949729633647 -0.05921713379010447 -1.5166045375628527
Ni 6.133360293436937 6.7972728189273735 1.7365792867951022 -0.09146750918337795 -1.3093437979665385 -0.13632220360422329
Ni 5.155976703543776 5.263732669397974 13.28738318207272 0.591062163997266 0.24396760809904436 0.7370450306197048
Ni 1.298158584370001 3.9510214183059866 10.023124367725826 -0.7480269835525053 0.6542344257803765 0.7214983411343574
Ni 5.49550826404219 4.682361912868584 10.887320958621515 0.589558839978862 1.1614675709761286 1.502389422404735
Ni 1.8292757262962258 6.629190438178877 0.563149566742469 0.39772111980583763 0.0340383205316317 2.061976912832488
Ni 6.82164071661798 3.4618696781406335 13.000959656205177 -0.7106562562135309 0.9988303836264605 -1.4886293925061653
Ni 8.888487347314966 7.9356740310086735 11.691134101415773 0.41412527219547385 0.5700148564086635 1.3825623882420577
Ni 4.614611982143283 6.060615357635759 3.927701275823745 1.5105822426281725 0.034071230652096156 -0.08173511238696246
Ni 7.113301178746475 0.3118612561370156 10.923483691502343 1.798855871733444 0.3540254786901 -0.29330579221254
Ni 0.998909026131748 6.097769732408262 11.973908421917569 0.22898219043380566 -1.09697556194033 0.9388282920412155
Ni 6.852604228745796 7.087314273885786 10.537888617343787 -0.8238066496869811 -0.794337950803903 0.0686602814808753
Ni 8.93531896949046 4.441175839048266 8.17439387856593 1.428176843647063 1.3461236857990495 -0.06013681739089642
Ni -0.09693713441821297 0.6761728252420577 1.7198575184213818 0.21677484973433633 -1.506696020199889 1.5407844772431656
Ni 8.41163454229961 3.6175887314085053 4.518602097286117 0.19335030016280894 -0.6471965450969885 0.10579909531470166
Ni 1.8426233365450253 2.0570681953458663 1.4310514763205942 0.5990400399964199 1.1292619327778617 -0.045292039068580064
Ni 2.6556041074398746 4.830988610862972 2.22368979007954 -0.4147009421932858 0.6289075169798136 -0.3365540613782139
Ni 2.3551954872503122 6.255862103005003 9.797582870576862 1.1369636722974934 0.8677329187562861 -0.32888214665525295
Ni 5.548291577348609 1.6887532630566218 13.10112836573049 -0.8894571978072553 -2.442508922453548 -0.43624755801580994
Ni 4.05730555946011 4.477732285036363 9.244219098309012 -0.7213448462756287 -0.13953453989393388 -1.719143446203465
Ni 8.22784043287782 1.093602547772785 8.7408044569095 -0.6401393811398911 0.8360384158664826 -1.3772456040148346
P 4.290773752509413 2.984759303802764 11.854514002247534 -0.3231902384767983 0.29594605804886454 -1.229174230294483
P 0.1250342679426334 4.937070376120834 6.193195486837586 0.8743100577531716 0.5402322258295922 -1.8468529684380128
P 6.762896513276261 7.09420425326301 5.330237068470836 -0.15358561867036133 -0.5053199873334394 -0.46311841426472505
P 0.2668970115497425 2.4684064033991606 2.925705097383591 -0.2672363488189978 -0.15177916158924182 -1.2480867509282698
P 7.941625722139599 2.4130473968676123 11.490204272923368 0.9434195109563236 -0.2679750267572353 -0.3978136795196439
P 0.9476803276647833 9.206539466096672 13.372216398113695 0.28036131623673005 0.2682362508384219 -1.1172512814702307
P 3.2339300266209854 5.930993596081081 7.634882736397093 -0.6599232486350377 -0.1727832746447347 0.7864562340629809
P 4.6763182326939035 6.741637845264561 11.806448806995292 -0.723860927829263 -0.009330276261990381 -0.8056245794613156
