# total energy = -381169.7296431532 ev
CRYSTAL
PRIMVEC
9.21224063800553 0.00000000000000 0.00000000000000
0.00000000000000 9.21224063800553 0.00000000000000
0.00000000000000 0.00000000000000 13.48304536127234
PRIMCOORD
 96 1
Ni 7.213663504201351 4.3140646828396845 11.297767628580518 0.18818906767684365 0.8813294264937983 1.1207073583396312
Ni 4.290766926110725 5.526865383165604 12.8763891707546 0.7532275539168383 1.018582369442407 0.9517881946359931
Ni 6.4344553368773845 6.773014394823605 0.9723123931940467 0.01964014282843069 -0.13971940221123033 -0.36245843994880156
Ni 7.445084202812737 2.7503605220302543 5.559963121550659 0.12807770420724396 0.32766215820522276 -0.4853926522818931
Ni 5.567214997429282 7.777830336877591 9.227148868593913 -0.46722343757203405 -0.12719375894039384 -0.7240941268859916
Ni 6.951906896966612 2.129363376478984 0.9862836774388628 -0.2207556887589553 0.8381127818970081 0.7503762005109722
Ni 1.8315132101837213 7.810865432025891 5.945511055632667 0.5467859677877098 1.1652800027436834 -0.8785449217701257
Ni 7.677647219270855 7.344200954912841 10.131309105093282 0.39462062650364294 -0.5067153250190692 1.8369292815663976
Ni 3.7216162712160714 4.285755467170214 1.5810084337393144 -0.6205200642470668 1.548051186107908 -0.22040473317743975
Ni 4.9501330541752875 5.547721896109204 10.537957676497424 0.607467859048799 1.3874978778704619 1.1326951268291268
Ni 1.0850361340649708 8.597424967428035 12.198745035918218 0.22453752439889071 -0.5339178535757901 -0.2980222238516028
Ni 6.9014053934521185 0.3452453022458958 9.816236654810359 0.7704611441863054 0.35301040716202425 0.8287614225890954
Ni 9.012242953884467 1.5501805914626081 2.3159831061207066 0.9693560283164273 1.5611213890283049 -0.688288430041292
Ni 6.336243638780335 2.3220005417456004 7.343054952169827 -2.034639401359799 0.7755395871504772 0.7016460822951206
Ni 2.3331197162698607 5.731340277731039 2.9058391932114884 0.27135936984843584 0.32188334673991664 0.25265896522545517
Ni 1.2495943896796027 8.968982271559756 1.0608659781417715 -1.1108649183279127 2.6691681211811322 -0.9796790075089902
Ni 3.1922348594210304 7.88597283044867 3.542589270358852 -0.47235175993753487 0.29032022722165485 0.9414312768817011
Ni 6.054560954912642 4.127673416767308 13.624482995116107 0.4761366809012639 0.6712394449788053 0.1274503550358902
Ni 5.173189038231554 2.5249185676328256 4.715884197669165 0.14315928113071472 0.6914506298193576 -0.24722236759091612
Ni 1.47332286730693 6.234558925939585 7.431072384708843 0.2522933543559203 -1.3151105252469866 0.7311726309993278
Ni 7.401657700155435 7.058879435968858 3.178789594120154 0.8872205951672526 -0.08875859489264713 0.19717198790174428
Ni 7.7450163355060795 9.012399561976359 1.6677582619580833 -0.5324407548096314 -1.1799643442287355 -0.8020054946514897
Ni 0.41577053214475806 3.3970229701702475 11.818145917539965 2.0330280910086214 2.865466962449304 -0.556483654691448
Ni 8.434432792732313 5.431251536945806 6.733985815876231 -0.05476064068064763 -0.4826420861199494 1.116623675188561
P 2.3929255828908196 0.6162509991429032 5.504399491771807 0.6863873563638372 0.1526098850206533 0.264147425481029
Ni 3.7158217718161053 7.800814877422769 10.818661099178764 2.2966695233875094 -0.7612666221712309 0.34907584799430846
P 5.093945343734712 1.4983064640838928 2.115247460055186 1.9487177616953149 1.5010658184973051 0.45830428070553325
Ni 5.57629826675896 0.4068659802846504 13.653875570291834 0.5692705220434712 0.024669991942854286 0.34504101580330254
P 4.388223220470418 6.801839495972247 2.0809327846737307 -0.23213256313732925 -1.2234833505572928 -0.45374828590373467
P 6.621473035317324 1.9171686242073929 11.950886015002698 0.5119043254191764 -0.02620648319203874 0.7651330471051726
P 8.376119309104668 3.8612001422944404 8.267911408624624 -0.9568902917492487 -0.4756782532076066 0.8988430098975294
Ni 4.505052857021095 4.300559537974261 6.49240954311775 0.038584802251733545 -0.2889997086380184 -0.0566498872835605
Ni 0.8466205810904786 7.546400426025507 2.605841653609179 -1.3723846763781073 -1.2585974206516066 1.2955912242671366
Ni 7.896760364307749 8.091553193898042 7.900659905795834 -0.4153126076353557 -0.3915396735854741 0.01398063054980818
Ni 9.141444629694533 6.073823750215234 11.784290011745345 0.5418461072839313 -0.29417533930168693 -0.9526986222654046
Ni 1.6621369526832666 1.2814871669811678 7.6449815349746055 1.0071710422816718 -1.060539173490167 -0.11741996738308165
Ni 7.986911351792762 3.79846478313105 2.9109492231274845 0.18664949110386567 -0.8768083986949933 -0.6541477796038412
Ni 4.808633037031428 0.8565440067719475 11.212136166382663 2.7802516048232246 -0.08147774496051774 0.6876397407136996
Ni 4.7461279838855255 3.927270332591039 9.060296765045113 -0.04517171144063188 -1.6560033232098705 -0.6428282408259638
Ni 6.9859184896290545 1.3184743133895398 3.6065526212074817 -0.4799249442991025 0.04634207759964923 -0.10836402782840047
Ni 3.319584874850503 0.593416618121127 1.3528350499744928 -0.3584665451805891 -1.2595114478254439 2.5606508556043193
Ni 6.905486416081983 5.460150336020042 8.976189007458952 -0.6579141886248089 -0.7466074774971593 -0.49564004104151416
Ni 3.832457951312094 6.516278458770077 5.901394556146975 -1.9808681211756143 0.4560553367703565 1.1225058450009509
Ni 5.276614864564503 7.666159555118616 12.450837081435143 -0.22057416887576853 0.3820844417098452 -0.21974627365783445
Ni 2.9450612292135516 0.43371966192360534 10.11429317529729 -2.5294497474111663 1.706420856430474 -2.1123551081747234
Ni 2.609551422938856 4.130888488771424 12.621977483029546 -0.5492876511636411 -1.7211627906263391 -1.727261447324909
Ni 8.612901531803145 1.9015907251845892 10.918111843649891 -2.0763000143233787 -2.370661758604259 -0.2768031665718265
Ni 4.360291706669624 5.101748111607163 4.051061659438306 -1.1900001311981827 0.2644413025723639 -0.5263061026668033
Ni 4.9912196476949235 1.3127903608779667 9.000283623008416 -1.399426768097564 0.205585151666104 -1.394053676711109
Ni 5.285799468541874 8.713545261444853 2.8373047285277817 1.2172175721532392 -0.5481921041066172 -0.4126826262116764
Ni 3.5142671575524016 8.544242701869994 7.851945576977037 -0.647795097912936 0.24477956247737845 -0.06576547643158351
Ni 0.9170325004287372 2.7472007234703355 9.328892539775138 -2.155302301160211 0.08890386222125979 0.12509316765762327
Ni 7.516064517402152 8.824073725357096 12.375237749359012 0.4111679893393629 -0.5693934207745807 -0.5914586281047362
Ni 3.8288651774393005 6.181735937768825 8.514462291360818 0.07824406851456847 -0.7825234746674781 -0.646339596413332
Ni 8.78208433224891 1.3683033233329727 13.31816125227361 1.2410162172347337 0.12339418268864555 -0.27307609542922645
Ni 1.404433731356294 5.12754238556568 0.6742254723128075 0.1809634964626819 0.9864831749150172 2.0132452519547392
P 8.70421326161629 9.035577559576225 3.768066231270939 -0.48483189468241655 -0.6839221826527963 0.4758890836668321
Ni 0.08739468506773163 9.116636065490862 10.177677076205923 0.8091385061518452 -0.4757929244086 -1.1945180736731944
P 6.928599927996953 6.419494657981446 12.166614582806607 0.7243779766749976 -0.7146350383556209 -0.24801401025427613
Ni 5.961296230071208 6.136310378879739 6.813575890623372 0.7617044810395979 0.7229957516154903 2.0201250097937082
P 2.0202720221158605 2.8214421712673645 0.9578316720385498 -0.4151326304140657 0.01941131464707625 0.4516664636740415
P 2.5314500462887493 6.370614508830058 11.70927012960921 -1.1528811148586984 -1.1287202013417788 0.9115350035429012
P 2.8650068575351577 2.738356972398845 9.907894764873804 2.4755787084243237 -0.04111990996876144 0.7969643326831565
Ni 4.777891789817297 0.12486178921654591 5.216751882051207 -1.4961095029332945 0.31969585217029456 -0.31674422574113836
Ni 8.695609028802986 4.3133277035837265 13.451940490487244 -3.227380585638229 0.1197972093660066 1.9004234454653008
Ni 3.3093040142298946 2.2193301191500074 3.067865003857836 1.420432938035586 0.4648184276749672 -1.616630734949519
Ni 7.008691148638145 0.3145602497000313 5.986108479171161 -0.5518351001758433 0.4470970991358042 -0.10240112537674623
Ni 4.057448505915249 2.46592337819342 0.19510788822221417 0.3406045772985037 -0.583270435866989 0.1706870542373383
Ni 0.6469931675811044 6.159387041831911 4.696710761101357 0.8932632018169068 0.2151236872841585 -0.04995704864441718
Ni 3.4305186773535206 0.3100554639979905 12.75732095971395 -1.6755866446584369 -2.083031933730574 -1.5691977382785363
Ni 0.06968323109893068 5.6224055314598065 9.378846836192086 -1.76345358097475 -0.37479330736507066 -0.9489129299707271
Ni 0.7094761113493293 3.3042280696044863 6.8902677944464585 -1.281534231953438 0.42611021247149194 -1.1860151784085058
Ni 1.9093750685756414 7.21074322389962 9.669540933912 -1.492009621832308 0.6549635906369172 -0.7460901715411086
Ni 8.239962391566502 1.3131220015431477 7.9457473754512495 1.231861290208343 0.8002777133271056 1.0759220837041406
Ni 7.9589798379919685 7.327167521859521 5.632407261187222 -0.21978072644019567 0.989685998123031 -1.3300159816039094
Ni 5.670207848449357 3.877459747129005 2.623868166209902 0.691131555917042 -1.3780148780806913 -0.20005316610428128
Ni 1.9957121884110738 4.8630958040466945 10.101645690040987 1.9526235245076242 -0.6720359727381716 0.9934045846251988
Ni 6.409536225785319 4.759218577919472 4.957068950197917 0.2066051082901861 0.29621730943238017 -0.2980119394389577
Ni 4.847140203155213 3.29304440939533 11.760451496487326 0.2709783323599333 0.3975642825129992 -2.147786966619772
Ni 9.194230768902496 7.15233761786498 0.30000951551521854 -1.304552290115166 -0.1262761322221309 1.08528629852786
Ni 2.712396878107738 3.605228822218968 7.833892348878286 0.34899562957567637 0.7872098243995539 0.7376867779687618
Ni 1.409417553574707 3.589844380250853 3.1041345167157193 -0.8139894064862432 0.4282105466439464 -1.4503438666624053
Ni 0.22810889807992543 2.3241377815878774 4.717812319647564 0.13185491186148907 -0.6261818905185345 -0.5882084965985547
Ni 0.09210766740958044 0.18325541933827613 6.177284583062842 0.4326253878821904 -0.04075995552618141 -1.2358323590409492
Ni 1.596812953883325 0.6167134536260166 3.411857441368604 0.28523998448527005 -0.747480624130732 0.9309746003247515
Ni 2.60895262729339 7.353652713870496 0.22607022921313275 1.071318266383542 -0.9484465318572699 0.2612032552510405
Ni 3.942323133893973 2.0214235522032946 6.615698802846896 0.376715464088448 -1.795824283995972 1.5820992768315527
Ni 1.8153641522375505 1.6065595045433643 11.802464841421328 -0.1668892777578029 0.9722696024187966 -0.14903528029551755
P 2.404238214469769 4.930732075262203 5.3432092313569015 0.23749665566272 0.21599606258678283 -0.017624912170614807
Ni 2.509865766329891 2.7274588916513722 4.982781235214208 -0.4167035744456114 1.249848470814383 1.7839036212989858
P 8.580115167153732 5.5889282487579335 1.8959859979430318 0.3813095112170336 1.147094332973592 -0.7824273154092459
Ni 6.881101614950485 2.7322492568150962 9.680907917711076 -0.4596746786904986 0.7059082000055843 -1.2136347398979874
P 5.46819262215068 8.382521816390799 7.059169621550891 0.8180977722276619 -0.8087530977879684 -0.036429960692259844
P 0.8471751579805865 8.473778272759748 8.18331908717767 0.1569535067013297 -0.3787425218208058 -0.32321234996398535
P 8.497315547746895 4.593840432882587 4.766486114607284 0.5476835399013149 -1.2463833950839178 0.550507125393039
Ni 5.633248338763083 7.170402821876641 4.820404438197211 0.7748888409403558 0.6921885364266466 -1.5959027583735483
