# total energy = -340862.55988432956 ev
CRYSTAL
PRIMVEC
9.27956047219844 0.00000000000000 0.00000000000000
0.00000000000000 9.27956047219844 0.00000000000000
0.00000000000000 0.00000000000000 13.58157474341222
PRIMCOORD
 96 1
Ni 4.236657586049808 3.933540742081863 1.1544654829214767 -0.7862508029203943 1.0736512853920928 -1.9949109724219256
Ni 0.45476527768883723 2.138326245917937 2.226713131793041 -1.6040855512946568 0.4156885029175357 -2.3622683923342414
Ni 5.365349089662514 3.0543859000684828 2.8985523845588395 0.7643390904489675 0.45514902290600323 0.7152528744452779
Ni 8.541659135235202 0.6694562616275476 4.11571985782752 -2.1570038572323496 2.8438288153542377 4.486587100628744
Ni 3.3690465173073942 1.8466232613738576 10.18673776604091 0.26356867015942353 1.0077150877106 0.016363786070004077
Ni 1.653793994034078 7.797818844537926 11.274553733575416 -0.8932207786147456 1.056751681423277 -1.1720486889260846
Ni 3.9632631743864493 5.202734071334204 8.346434813328512 -2.0550848136983446 0.22592360611313994 1.7057567404839138
Ni 2.3180527738215386 1.8737566962969332 0.7593770588544932 0.37249011315319075 -0.054317125385325814 -1.2396774438186522
Ni 0.3657613010400037 6.645130397453579 4.714802716436554 -0.5306124433516409 0.14337628223752727 -0.8831963044992079
Ni 3.683605059380726 3.0674144030206025 12.498810791071604 0.24995647869262758 1.0411018907011618 -0.3494093200743273
Ni 4.445438417901477 6.536735851168885 1.288652567635956 0.006109712442163672 -0.5470824159822063 0.0171086346558286
Ni 3.482526262750039 1.8304489874097942 4.737470826843563 0.36129887242306163 -1.006377342735783 0.5828127795042801
Ni 8.542178790623606 2.142993864853062 6.030762246777071 0.8575076414838522 0.29330579221254 0.3277380057484807
Ni 6.323166766095496 4.253416472325825 4.878270526375478 -1.5060416744453418 -0.7722385478017023 1.0596326025154976
Ni 0.49608530471533235 9.063588015963107 2.8089684353783055 3.5291885017845086 -4.514545790625199 -2.4952216794662316
Ni 3.028811431310618 7.1014991831980625 5.520679652992667 -0.6015283536359124 1.3445846234467038 -0.21500953030379746
Ni 2.0174321316300325 1.3737275783660376 6.890802122101655 0.07573981403547601 1.2839240723418532 -0.7843160477915266
Ni 7.88624377661111 2.955382269017082 3.5239706358873306 0.12566420966974487 1.2773070812459681 -0.8367056171368364
Ni 0.5238228390274274 5.345741378310784 10.919558578635876 -0.8431171770901351 -0.13615431056779134 -0.17993351253627077
Ni 1.42566527852488 5.334596626141628 2.711222184775632 -0.335396550735003 2.60795709688945 0.9850423287034327
Ni 0.5729998699353754 1.7213399149660442 11.062436899721407 0.5675347702992871 0.6641398578195464 0.5247467285994835
Ni 5.537336464103105 2.7346122449900996 8.920785787273736 -1.1976046830183182 -0.6732922137427758 -0.3146755161375677
Ni 2.6980414970311934 7.253396309140548 9.057185119213134 0.7367773787806149 0.041114510652122745 -1.6148661868499283
Ni 2.180121386442401 0.28990924549803593 8.988300157699978 -0.48577471821166024 -0.45859147292864894 0.8184039906141712
P 6.17150162916569 2.909448444506403 6.817964067812428 -0.14151840309318206 0.09930114629518383 -1.4368771996345382
P 7.5844817484772165 8.53648114047218 5.847193980823485 2.0227555054380195 0.8747872544999064 0.2606640949181188
P 6.108242865188054 7.543605284442966 13.362598680885046 4.531681421864222 -0.8128923167673227 1.4847956205823718
P 1.8759837908186634 3.5285714419868044 10.126517130173333 -0.00015503752062553944 -0.6671087106398833 1.4170388247523726
P 1.7834851316828153 8.405379509626346 7.237974607533619 1.7999915279997838 -1.8079251810245636 -0.7902802357947616
P 7.962308334088693 5.252286924442694 4.173713399173366 1.3371461648907874 1.0423247073646695 -0.25734917161227294
P 0.9763582383263826 3.630358941190367 6.838907107921145 -0.14260803661293503 -0.8586435548605085 1.5012180278044533
P 5.424896029437267 2.431996497289544 11.1277640777361 0.05620534354697417 0.5968304339396109 0.5109298773210491
Ni 0.3534463962908882 7.263056331628551 9.15968528866365 -0.606548175448007 0.2776243769215412 0.34748073559304676
Ni 4.136429053011455 8.07983396791248 3.1397068191520052 0.2535511380224214 -2.6278998585599647 0.4245022445544237
Ni 4.0687810569139105 0.8766799832261079 12.35386869572927 1.3392120462808808 -0.6467224336740474 1.2591386378670575
Ni 4.2963158805506465 5.3082333947406495 12.596095847517068 -2.420041851699284 0.9941877426481265 0.3287412502020145
Ni 8.374543530060896 4.262232054807672 13.140974937291404 -0.16124622053941262 -0.8337280225657513 -0.5347107817907307
Ni 9.207532558550916 9.241690620777948 7.484194754207669 -0.8260584218356354 -0.33495174988810056 -0.28865466659377387
Ni 6.05232423357162 5.1210368206287455 7.996708592844963 2.3296832593093684 -0.4729374572376758 -0.8625835133448628
Ni 2.671956652445432 4.947629673430552 6.458161172574101 -1.882581532187874 1.004999745661966 -0.866750500238359
Ni 7.026223388363592 0.21597898693711085 13.297760535709084 0.02662865833112188 0.8399693754897728 0.9443515358522897
Ni 6.070187387547995 4.333137176643248 12.582079999326982 2.1589905486450753 -1.746948127120559 0.13914090399994103
Ni 2.6307275651119078 0.4287296147737641 2.795536271544122 0.59467739215235 1.4941279537268912 0.26841262851528613
Ni 7.066273971512702 6.210095321315168 11.382256024646273 -0.33210296758539576 1.4425858199835413 0.627962379457725
Ni 0.5883491909703481 2.133658626982811 8.742486455776143 0.10611354123132694 1.1337814179147698 -0.752097296967137
Ni 0.288190670892101 0.652701087175733 13.237716211491147 0.8927289265799916 -1.0416989008552124 1.3247760733612088
Ni 3.8149572383602535 3.169702998491555 6.954078517244254 1.5817483212500372 -1.8912628620119556 0.31988688513517816
Ni 0.7970335153927428 4.083888181419645 4.792693491421956 -0.3653115931268805 -0.2458846226160991 -0.8854344498011073
Ni 7.088600594093043 0.8526941752270769 7.501077058638432 -2.0972285369459303 0.8030871577514428 -0.8311391787926525
Ni 7.409200130056568 7.995770429277685 3.7595294954946503 0.08433475479333863 -0.20649712195741213 -0.08401182423628112
Ni 4.484820872694067 0.6702283210617472 6.995801277196763 -0.5008899765865438 0.6648718508895647 -0.6561447554292119
Ni 7.503211357555091 1.7096012709244264 10.217160805163791 -0.3404719083753814 0.6762227571260095 1.3500531027604425
Ni 8.866944849254866 5.72443096304943 1.3108557720615521 1.5057130874613294 -1.3759140296876047 -0.2765763952730011
Ni 6.983481732667393 6.537923634913808 2.076310015092216 -2.2833992886411645 -1.2892791660061795 0.4492115743756457
Ni 7.742160040615693 3.1731085971977 8.31546891991596 0.9418040868400877 -0.08495439065520853 0.8461135407142977
Ni 6.283598720092761 1.743777892272473 4.775430725010398 -0.8654886028067998 -0.4323417952035006 2.2905672671445134
P 5.416126844757956 6.974489838535908 9.94400766207362 -0.269536200596768 -0.9569699959472486 0.3257137762296004
P 0.04544571962799979 0.10822101850321027 9.80703763716303 0.8046719857400593 0.20613562485293527 -0.6736310851394334
P 7.106964844336808 4.183884725445317 1.478109642687416 0.3515160820046849 0.4401072980815323 0.2307472527540284
P 4.584566868586045 6.2942887737970645 6.6527711875752145 0.13556732771606975 -2.54338152700091 -0.07845978406980035
P 4.458049340630773 1.769231726743744 1.218075942242336 -0.032751483399408116 0.6520811268827995 0.17284215290712815
P 4.793830237584089 5.244677684826783 2.9142524729809844 0.22330853708779605 -0.253150303039577 0.6227808352567854
P 8.345034527647973 5.3192853513047345 8.899163483335892 0.7376880635203426 0.3033454358367292 -0.5673218829575326
P 2.106098332276404 7.202934059102351 3.5508479549404077 -0.17202248521931018 1.3737329628758856 -0.963860809529811
Ni 4.244062675334559 8.982911516913441 1.1384944313325212 1.196888887898216 0.9948181771432738 -1.9339182347886372
Ni 3.9245859661924074 4.0596870876168465 4.570010022018388 0.07691018019449335 1.7494881199335932 0.5627473762129728
Ni 1.3129186183623045 3.5746537394655986 12.490390517867365 0.7102070844912542 0.2153563721202549 0.07709195718799626
Ni 6.370566761166313 2.4112381204349203 0.35682044449130895 -0.30969991729984725 0.8006361251077889 0.632913295705097
Ni 2.226138726997645 7.976274072652041 1.2318273229579673 -1.0304814348728382 -0.6958377031434596 0.5981656078112666
Ni 5.580904000684447 6.595104286759223 4.539220440255472 -0.49967667300473295 -0.8045197764329112 -0.04958655267887589
Ni 7.341978993742354 8.839542307077082 9.429320550365539 -1.1827971856918404 -1.602960179440962 -1.6115990860628826
Ni 0.2103036077309025 6.220646181611863 6.944680178362553 2.1182521903854483 0.5759818726253758 0.6217984167388583
Ni 2.1958502415021184 6.500564124311788 13.0608301570588 -0.0816338109224078 -1.980259026836706 1.0546410628381773
Ni 7.544338369723036 7.020071039747314 7.87030520348393 -0.2517557366848955 0.6036939938286635 -0.12651550192644664
Ni 3.790320005213617 8.605567468448342 10.64233170848304 0.5981111004242473 -0.09987064564540865 -1.2864039013409134
Ni 8.339810135082416 8.360039576988129 11.465307163229735 1.7498884406958057 -0.11069344729252548 1.130544141924395
Ni 2.5243559630177836 3.4328527753549554 2.7763183017336948 1.0847160278466867 -1.2911910383169118 0.022058779572252333
Ni 7.699010084257177 4.197358647301782 10.52218923859622 -0.40010041867129154 -1.5345009582272993 0.6789411844984372
Ni 2.853529812889968 5.7445768889105775 10.813147074431571 1.1473321600160113 -1.0201201462431722 -0.2516940302090246
Ni 4.295248731092318 7.532729639528519 12.825094985801844 -3.8133398811912906 1.7911096521291217 -2.808649182129311
Ni 8.357237149714953 7.785282158292689 0.6105774502093136 0.26336246768588834 0.8270657800542272 -0.3285936688805567
Ni 6.023177134018479 0.8827924297322056 2.646872144482348 0.15859515606981076 -1.7675892004096783 -0.5413511699253838
Ni 1.543246589711711 9.05633139964647 5.14725343497371 -0.31380674037936923 0.03177986351475818 -0.9202615847826215
Ni 1.6543136494224817 5.156048602422441 8.76787069354361 -1.403961165632808 -1.116456553483077 -1.023299315302102
Ni 5.765056878949986 7.9080321846820345 6.629859024726867 -0.44343430557223634 2.2186188018306696 0.12803348123286984
Ni 8.063910242082112 4.538503130228265 6.583451014674271 0.13907199843521859 0.32931229221413605 -1.6212697763834274
Ni 5.218472205954429 4.598495488907364 10.292620335296304 -0.14741959906896546 1.1176233200976688 1.1224932465954602
Ni 6.090685936708417 8.719511191916347 11.300182951740274 -1.7782119702308472 -0.43962573045942355 0.42838666721049445
P 5.181001340626324 0.5610069659358601 9.027944296098871 0.06185559985421605 -0.8501925958796778 0.4855507751263121
P 4.655583345147707 9.197055934738279 4.705336636763152 0.9555114091238511 1.5808006126247873 2.106061304746212
P 8.037806838375335 0.47939787105522047 2.0529635688121317 -1.4608033714328326 -0.04185704524510211 -2.354690065766351
P 1.317799667189096 4.108942994789106 1.041323513481294 -0.2679557434835256 -1.143187027499386 -1.5899010322641587
P 2.3178300643693657 9.08830876515431 12.87097313294948 0.025394014593072393 -0.07945634365511477 0.5753432106001124
P 1.5058035630651272 1.956372623492605 3.8976808084578085 -0.2870847510034927 -0.8522296809143646 3.4316940696807605
P 0.1513700469056761 6.73542980074922 12.492468211464928 -1.6983452785111912 -0.39964507630142787 1.0471714939340093
P 8.1406243687952 2.011335460376797 12.608060912835063 -0.20580061011101974 1.591975141184368 -1.694295791032166
