# total energy = -340870.4375116581 ev
CRYSTAL
PRIMVEC
9.25640909449742 0.00000000000000 0.00000000000000

0.00000000000000 9.25640909449742 0.00000000000000

0.00000000000000 0.00000000000000 13.54769036196932

PRIMCOORD
 96 1
Ni 7.399915845204472 4.674301419012823 7.755199038172744 0.8614411722103036 0.34583600090077216 0.777202833785513
Ni 8.63864552380159 2.2987273557293864 6.360207290968821 -0.5114047600749386 0.13732416250617638 1.1369500454507386
Ni 2.2797146916344673 3.844751300452662 0.412580364705151 -0.1448569805481118 -0.4881172503019077 -0.5702051180425987
Ni 7.015719333070237 3.5746585421149555 0.6334660527757736 0.6596527685824704 -0.8001856678339316 0.7467905400422429
Ni 8.490552236141115 7.762656001266642 10.608410285566553 0.690455870006256 0.1590597544110551 -0.3001966057951023
Ni 8.9074701541057 5.520929612185996 11.866909802515144 0.13366445426640208 1.5868301066483188 -0.4213284748121325
Ni 1.2271499109326844 7.563013771860986 1.782171599960258 -0.22359032999427303 -1.8022924082188185 -1.0902143319570965
Ni 7.323476419646613 6.998465386686143 8.552453545716755 -0.31937060762039193 0.5328655010518758 -0.3544638517790992
Ni 4.39170325211025 2.4429607208350497 8.114294020369003 -0.9193673551031264 -0.15803208447748912 0.6568317541939075
Ni 4.731172795935503 6.745830215730626 8.496027402067183 0.34933835762707577 -0.4129795886268049 1.4090964299768443
Ni 0.49338881531306017 6.655728330482357 8.073475107941654 -1.7633890462854016 -0.47625418031573463 -2.166463202873037
Ni 3.971573360221157 4.483637906341379 12.212118319923087 0.8344677289452531 -1.3368646290946267 -0.8987514786249876
Ni 8.43045037247592 5.897748766343771 0.6914833731331909 -1.9197319159859263 0.5129265960361037 0.817887713099385
Ni 1.8681099524383737 8.38169686625005 11.637547095078343 0.2801108907888208 -0.31284900445179026 0.7096992916169004
Ni 0.6323552836952525 6.63026394931141 3.820015398670358 -1.0773655010188865 -0.5883216251376513 0.9826288341659335
Ni 2.908132298939272 4.629278245615702 3.2593843257861526 -0.06989132567449899 0.4739350452642548 0.651242433031588
Ni 1.5373136638501896 2.1779219618137136 5.247941449111731 -1.794465198864916 -0.4111425354180661 -2.035650873343449
Ni 4.390731329164794 6.906225270957871 6.206169537445758 -1.4877685871677666 -0.36156729559309986 -1.2106154934556894
Ni 1.106455593925064 2.05594100395449 9.00315828218809 -0.054097553175351996 0.2857351789541337 -0.23458616688414438
Ni 8.847812598072714 8.960777813561709 6.698804881065865 -2.055977757826259 -1.7691634868753339 2.5547594298205487
Ni -0.15496339442349694 2.7565308322661526 1.7541144986271957 1.82688089619146 -2.1807703635243283 -2.799412751132708
Ni 0.8319715951556972 0.40069143297997367 2.7252534262404797 -0.6425135377990225 0.714731197613853 0.9133298906597949
Ni 2.7608535752711805 3.3236062170991807 10.099302236482316 0.4467194040814113 2.735089149353973 -2.000983918088883
Ni 4.141456234677853 6.61114020830844 12.246393876825266 1.3065505514921176 3.2114124923447465 -0.5236020734720789
P 0.02339187119487367 4.165633974997196 13.47927443057254 0.560176530162003 -1.9711974308550695 0.8666872511005912
P 5.21374642296789 5.063931443232608 7.197372657216855 -0.03823487511148255 -0.8911980917577619 -0.2249843821283222
P 3.042016998778081 2.0200816754716673 6.497187333978681 2.594617442357751 -2.272935670105679 2.801156730407008
P 6.5311185524659 3.0911870434091475 4.2769922778830365 -0.15609604379704084 1.682990907542308 -0.7209779498545132
P 7.710570187799208 5.493817590212277 10.122603394868948 -1.5709504593035848 0.21693220124780704 -0.8159907531869882
P 3.3620665965122236 5.488513667852789 10.330181143714027 0.2688255476829886 0.2663017528198704 -0.8619744190059543
P 7.906139597242954 6.591979441669451 2.902497922778329 -0.7995696315164875 -0.6886838657074978 -0.126782125324272
P 4.29415921402249 8.471770982271304 9.859047512570108 -0.556697313364151 0.16795474290783977 -0.01270639182307489
Ni 0.3365861724204004 4.416612248740935 9.654720614567353 -0.9218767517885413 -0.2830280644356158 -1.4991644877095343
Ni 2.5036457382675184 2.3328557357283963 2.4656796510953076 -0.6145805588341803 -0.026683937049089525 -0.6443469914633355
Ni 3.2921529393024254 1.1722779183549428 10.0489584791895 -0.004952973129901147 -2.435305205616258 -0.020839305342854435
Ni 1.0140025807896922 5.12245046095806 1.8104591858775285 0.55665951814768 -0.026716847169553987 0.7164067855440629
Ni 5.474527233847228 8.652233932219964 3.1267936719261513 0.7711717971000848 0.12854384521038506 -0.4448507263037887
Ni 6.034132696613752 0.26307362338971396 9.141236135305865 0.15054066119645043 -0.11356999750937213 0.6525241279574892
Ni 7.049042405485869 2.4905386631173694 9.210234333665134 0.012257220100798246 0.9139430987637613 0.07740537466335701
Ni 8.944588354213113 1.6460764696512127 12.926948207847031 -0.5934273217953329 0.38110742250855656 -0.02021298461276519
Ni 1.9354780971719778 5.744582966548917 12.087452077811704 0.008680558493133438 0.4555565427570671 1.647640553067472
Ni 5.8754408206433055 5.543228301477456 2.6437229757302316 0.9740218092232129 0.7248957968516807 0.960367708774888
Ni 8.199021634549352 4.336544310853373 2.86762625313627 -2.065378739425185 2.0978044640540583 1.647918746429523
Ni 3.18884215840496 4.040441043213464 5.963571090773649 -0.7915323630343079 1.8248654084233282 1.1176893974489137
Ni 2.234617466965311 1.1632344067577003 13.256293091503334 0.39493250131710694 0.6625205770485687 -0.14249773628731588
Ni 5.242071034521177 -0.05969458166900411 0.7686651626931987 0.1783186026406671 1.2507455287073554 0.6581471305712213
Ni 6.877622967134452 1.4643361352599542 2.165896035235272 -0.4571915072573287 0.0985239018095271 -0.2354929949691299
Ni 6.542994525218471 1.0668289069774741 4.702809307464396 -1.1067215855835004 -0.6107290462985739 1.335614044516977
Ni 8.778981940716424 7.853702040233354 13.053660116348375 -0.35231698063942546 -0.6071025052895802 -2.6871139070262755
Ni 7.316793292345477 5.067226724838155 5.142432271075735 1.2227824678355264 0.3015878297156741 0.30132454875195847
Ni 7.756111720100573 8.378744071777662 4.290052145347263 2.3380768826897023 -0.39669962051985874 -1.5761338032767371
Ni 6.605262388590682 5.901821586305681 12.26485948714803 -0.18385110242312208 -1.216917524414317 1.298989451315408
Ni 2.571800677766491 7.813649558471565 8.400597527796014 0.9496868320222742 -0.33894621575947437 1.1523249852449122
Ni 4.473779830751754 2.875845944332126 0.20042994981192636 0.271733465358403 -2.595806834680162 -0.7236971485578891
Ni 2.9316250649922937 9.074252131545942 1.6376716502752697 0.5157080154359828 0.7660686715455645 -0.11131616847818894
Ni 1.7177673573898444 7.546500338197239 6.2120630930588225 -0.8476724005609853 -0.2897718109173526 -0.07867524251471611
P 4.258383193220706 1.195048684505625 2.708453969538499 1.3649906979068815 -0.13295765800736456 -0.16845662224492278
P 0.9203073575659376 3.5479260329104148 3.491984925092671 0.5730914384514582 -0.5392860598662389 -0.9898868012799276
P 0.6126345043115011 -0.02261525847940934 0.5139787715023194 0.75690603120969 1.8596262089432813 1.028008033631681
P 6.211309621365869 1.592750297377196 13.156622856267276 0.8161537611274138 0.4129705897657404 0.06177203900147426
P 0.43095618786057155 4.0996172659782255 7.486317943773705 0.12979751511182808 -0.5559601780878103 1.3928611990649045
P 4.484831983102939 6.955395315588937 3.934411654991424 0.21439632219983076 -0.7992505576141719 1.3005477969414632
P 3.2614679434530305 2.5006466617501113 11.848769092148432 -0.662015355277376 -1.9635936503658828 1.8445831985672296
P 8.46022824024289 6.717727757993442 6.242829545307456 -0.7880402907206492 0.15966216388174437 0.22592283478219155
Ni 4.567288074513621 9.176729835633017 7.390779769517186 -0.8164103572229101 0.04453870584232329 0.6893958041728578
Ni 5.288899207674145 2.528175222129026 10.995441110137916 -0.26182726198828454 -1.2278768516392982 0.614090249461323
Ni 6.034234517112799 7.4251395597413055 10.789245343157186 -0.6033278687384963 0.8848482382803342 -3.090673230780445
Ni 4.270379499290335 9.231324135940628 5.199685012049393 -0.05731863121581096 0.2514333203484702 -1.1001573021024214
Ni 5.4341785469973 4.2323819403275085 9.472423044354034 -0.23137125949127252 1.9778535027190063 -0.46520075071505046
Ni 4.04620778602317 2.365549372331734 4.60644453588379 1.1130128179088508 -0.5007989595346343 -1.1692965801022441
Ni 1.3938856063279041 6.519862759116619 9.986436064569668 0.8205755443441933 0.4626103642800549 1.9523885256786826
Ni 0.973718688802794 3.5664666201461124 11.629323701318885 0.6823700076743281 -1.7858980260211952 1.6829091464617794
Ni 1.8076285760040007 0.32188051543520163 7.320968858447336 0.23371816245689425 2.3729875785239583 -0.5331619492463722
Ni 5.975780294250377 7.000298155669002 0.8797272604909004 0.5974161312397518 -0.13220946698743036 -0.6289915920531877
Ni 4.7279608220109965 -0.01816477703012152 12.056414412779244 -0.9448482729830502 0.3532667461472045 -1.2299144508946174
Ni 8.577645788462974 2.0182026244437856 3.9311876477352112 0.23775710841295827 0.15943616391386736 0.21057206335773412
Ni 7.066314864687972 0.7022522793688429 11.240301823170686 0.7312999006058115 0.2667784353459728 0.7146064991105305
Ni 2.499656225986647 8.124961106105609 4.1460946212299294 0.21025478922763144 -0.0006517746513859742 -1.575083764745668
Ni 2.486308484202385 4.888235543921184 8.261693077354153 0.1735674611089269 0.4790147737800073 -0.10503367790358685
Ni 6.0349842862421506 3.0381200505872528 6.590707611072253 0.6256311602213871 -0.6465054325672349 -1.021283570423654
Ni 0.6274864125589684 4.408725788269236 5.416176682765654 -0.4645109237368774 1.159230197005178 -0.029295149419691486
Ni 3.7900922052820203 6.7642782388762805 1.8625903557490844 0.9623495150916072 -0.7415580879987099 2.1613976154246712
Ni 7.241186943598009 3.649135608963894 11.85042228679661 0.823682208293975 -1.0114442157357288 -1.589153869685489
Ni 6.381238777867588 8.077170266416188 5.966755295471143 0.08103911476120236 0.16827458814110371 1.9233767118273648
Ni 4.822070732358145 3.576972644366041 2.2478596856869233 0.22866645896559976 -1.1410571256405768 1.8794730684658791
Ni 8.052224244149485 8.26654713823603 1.6047105034517068 -0.9369462445271541 1.281393849720832 1.3452124868386897
Ni 8.42663673196613 0.684892809922099 8.972662117082384 1.2158587441324995 -1.9269927113133976 0.6600502611312052
Ni 5.03989254904833 4.757368433417792 4.8419849706900875 0.14195806173376196 0.5374109543307132 -0.48983731831680805
P 8.867676851796032 2.113238175691369 10.700481009010044 -0.9173734646015491 0.2290834918983603 -0.43901920722367616
P 7.020643742660547 0.9188966808336757 7.324586263086234 -1.1654298980579865 0.3924315892721242 -1.0831365991747088
P 2.2784835892368895 5.89537912563866 5.028360914710721 1.0128099857350044 -0.34764785729853026 -0.06528159481662951
P 6.590322544457673 8.136059540501815 12.642473766839277 0.5229279302231898 0.4143250469111058 1.1738996260918944
P 2.7909461609442974 7.1011282189533045 0.21744878340731028 -2.759995939897982 0.8988286117198263 -2.284501006345775
P 5.386961604666149 4.871981289709559 0.3721724368375947 -0.4462980002732765 1.3188607363180382 0.20681671008035996
P 1.1015682099707713 8.96745168445384 9.704820002662457 0.05903329991407253 -0.020665498769151507 -0.7702204889304091
P 0.3441440303724459 9.596119214801762 5.030135368316853 1.6138197478632854 0.6172326517450467 -3.276682002976518
