# total energy = -381162.6951644994 ev
CRYSTAL
PRIMVEC
9.28584331941289 0.00000000000000 0.00000000000000
0.00000000000000 9.28584331941289 0.00000000000000
0.00000000000000 0.00000000000000 13.59077032538741
PRIMCOORD
 96 1
Ni 1.0432366516282825 2.8964217104381125 0.00975849285869816 0.2130158969125364 0.6624663267718656 0.39531662412940305
Ni 0.16335655758894094 4.8709355994808385 7.396858657224065 -0.22985276596421703 -0.3966358571614588 1.9688312446157383
Ni 0.057612158381597674 0.8591095194591378 0.5217947568392771 0.8113396275682221 -0.5028501856367082 0.6748991532185795
Ni 1.3395293437353724 7.020914785942881 7.8541065878095635 -0.1460358313475614 1.0624096510400027 -0.6679047241786175
Ni 4.350018354845527 0.46865187489967336 10.665302827263632 -0.04652334037251988 -0.5376912045752933 -0.6088534265424159
Ni 0.5899268472406856 0.4173020893260556 7.827414430875194 -0.44841864616070515 -1.0863733609444515 0.8685523293337881
Ni 4.151449878976841 1.2819756861673726 8.250943606804203 1.2683480722804674 -0.46378381576286576 0.2577636334418722
Ni 7.3491972086601285 4.401981934669748 6.257937889158554 -0.3794117799736885 0.11908424245938203 -0.8248006381691343
Ni 6.767708407342652 7.054993831324385 5.531823933615506 -0.38014120194054535 -0.3267784700486888 0.07421129320609154
Ni 5.106851737617755 2.1246566914333345 12.067734474381648 -1.629019852642491 0.14048507673266128 1.148325891387848
Ni 2.3111164274716436 1.123624198186233 9.550546609551333 -2.494495599933485 -0.2874274790548921 -0.45533877031930614
Ni 4.585711632740166 5.142453661321484 5.901737578174415 1.394245995227573 0.096690191034898 -0.8822228848423451
Ni 1.0285278756380096 9.066678951610205 5.756289698221106 -0.7759404221333217 -1.2493231944385323 -1.843309988281761
Ni 7.296267901119374 1.011228349331268 2.467050810408422 2.6990787926976356 0.6957443720987051 -1.6075105178158056
Ni 3.584400564190218 6.127013068326954 7.700014516208939 0.03987626736964745 0.9063426607086842 0.6512774000345816
Ni 7.749370631198522 7.559326559596927 12.355749765656839 1.6016797700666414 -0.6255805094891097 0.40718946430758907
Ni 7.674053155152371 9.233944849282421 4.461918339661425 1.0606229914532248 0.2118892395072609 1.092200252038874
Ni 5.1013638041516876 8.4790243502564 13.061382864934645 -0.09350433710774864 -0.46983105039821027 -2.1986079059263814
Ni 9.206235892492662 6.502170428669769 1.6355536749673873 -0.7595599238927694 -0.24834002613512715 1.21092891093105
Ni 4.978270663667432 4.469712876635058 11.678168270791291 0.24402597214080557 -1.5438764859049283 1.907706866500592
Ni 5.559564462272918 0.45443153427372385 3.476192630721373 -2.784465642904572 -0.08714291366609508 1.210859234035379
Ni 3.1497395191594806 8.431276543348583 8.869187633579193 0.16948712039196617 -1.8254323366703915 0.4351949483815795
Ni -0.04951768866523342 2.0332932779432484 11.43206649099798 -1.7512233574571452 -0.3569909890763271 -0.49583955864682994
Ni 1.613805301074194 2.685651636304769 7.102658994225693 -1.1568627252142658 -1.9009523213855781 0.2043412519566739
P 6.833480036344611 1.2014302802711427 11.455714748456582 2.4467581846482056 0.796561440817783 0.8643413765762339
Ni 6.169579374601835 0.2551712630696374 6.410155148971024 2.1062505379388825 2.9449726712851154 -1.4820993046971314
P 7.270156109399268 7.20773666987489 9.222221471954315 -0.4741929269113317 -0.7537924252813728 0.13208348293252736
Ni 4.725584292299182 8.15256195285108 6.970298582000091 -1.8453205909538866 -1.7602340455961878 0.4928550220972092
P 3.906795762173986 3.5045330248642474 3.5067449127688453 0.07697754309731904 -0.12236676986539571 0.6933771574181091
P 2.5356109781918708 0.23877060640674588 7.1797184944989745 1.66021324752616 0.45432164190870145 -1.3133220658879963
P 4.956012496970031 8.098806205245216 4.696453672880567 -0.06273414580442745 -0.31919011617846965 0.39748586386657997
Ni 6.541774550891053 8.60431823563314 10.843627235874493 -0.4582986242785785 -1.2667755855870249 1.451366651499965
Ni 7.250135830968064 3.407523818569814 12.035116092171402 -1.1014341119323159 0.21472465207352698 -0.7591266930100926
Ni 6.208570631156857 2.5183021660417007 9.876222496018283 -0.37503653372412826 -0.22338926972706044 -0.3827287601620634
Ni 7.137712124582814 4.807169712659371 1.6361516832841638 -0.211235665083662 0.25408772725218176 -0.9652618036423958
Ni 6.5336122945176625 5.067024755154194 3.749721077664224 -0.2233602162613379 0.34940237809579183 2.177410960133792
Ni 8.293846060611186 5.326935512709586 13.010580944123289 0.5232508607802472 -0.5149883636611389 -0.04921657093396685
Ni 2.6993296836745113 3.8516842814276036 5.520625206441093 1.0985876436224564 -0.6316107748435896 -1.3852232229036723
Ni 2.305777067500427 4.206514930506082 11.598227373302237 -0.5218532091017722 1.0608718742392376 0.6796731775684552
Ni 7.699747083918208 4.071331621878309 8.757715726145333 -0.5684737371737887 0.25611812741864926 0.5409642188996102
Ni 4.666034178394119 5.410573104467407 2.4836316124338205 -0.012747529473655464 0.08087713526204135 -0.6799048339632872
Ni 6.225795870716174 5.829346071392489 7.694116148463346 -0.31898159971208934 1.2666334035822056 1.0431091509391777
Ni 6.195217588307102 0.08670563442649937 8.723724896276398 -2.543942541710703 0.03363157201151627 -1.2348483978611249
Ni 0.30337314772109447 5.832438257254081 9.56689712265971 -1.895748408587135 -1.9121080808920812 0.9161966706846286
Ni 5.2289605786986195 3.3742340698797078 7.829683891009046 0.20973182684462588 0.5976611573710223 -0.9573613178483964
Ni 8.002967015222737 3.116821204206502 3.692476638682383 -0.21614081569476326 1.0462754644823016 -2.7065434765057965
Ni 2.625590801011154 6.066915089659626 9.921126977668386 -0.32045484182350614 -0.1599565551937116 -1.5405646479228758
Ni 3.331760622039109 1.2827185536416288 2.3816470512305563 0.3275480012248617 2.1928833447377785 2.261426898135131
Ni 6.1744080131845 6.2123406835887085 13.37523415838012 -2.10303897298012 -0.4764727240844439 0.17467560657144113
Ni 1.6385335021234977 5.7459220540335165 5.953845088571774 0.30219898093711184 0.6672007561330574 0.3819129491289875
Ni 9.042331470141459 2.1090564744739537 8.903015032603792 -1.4364637662462034 1.090367055484877 0.007230456310168193
Ni 7.355511582191307 2.2042827988301723 0.38892733756249676 0.6635333345837992 1.8133751483955414 0.7391790462435721
Ni 7.221461146461773 0.05381610558814843 0.09578161779322465 0.6528208332623014 -0.9829710479967007 -0.5142106049548499
Ni 5.315773928908886 0.8042691853408588 1.058315004186998 -1.1027908830705264 1.1038920865545052 -0.06903077744641659
Ni 2.886040137485382 4.006646436557449 1.5592964715663018 -0.016639151218577796 -1.1017891812788896 -1.0319546769842551
Ni 4.893165908647956 4.856932547591109 9.611923248858723 -0.04678713555686781 1.436636544378642 -2.2248131035668393
P 0.1317196890290545 2.073036687815956 4.624762318693129 1.1423917852916003 -3.449372975017763 0.9886588424100973
Ni 2.846324585142959 0.035100488158605996 0.7309685944873127 -0.6293924270360322 -0.9794113556699003 -1.8462127637508527
P 7.141027170686683 2.4371624661660665 7.192059380415055 -0.215094633818436 -0.6573770851744163 0.4802213924935987
Ni 3.1817942506736365 8.114619996603446 3.0984101624414047 -0.8458350902419305 1.3292461933174204 1.500567024484016
P 3.873738159569584 5.385120607630704 0.1289747937116778 0.44666978179039846 0.4784781845502469 -0.01443083071334934
P 7.385848432671245 7.428173307016993 1.1759926407839245 -0.9774915129393682 0.38247370672846387 -1.0872812174707018
P 3.0332300416658224 4.130640303854239 7.7715155106061005 0.5655444793421357 -0.7039312787848716 0.5085248674239823
Ni 2.130181768273115 1.8775325402785774 11.588836599843297 2.146370802998536 -0.8914960826141549 2.193488582421945
Ni 6.834464335748001 5.704135758606605 10.855532615733791 0.9347834325478804 0.44068965294756357 -0.4549747021116681
Ni 2.410326378658561 5.36178528309563 3.7975598858376385 0.2564117473996681 1.1005378253702918 -1.1026530719410816
Ni 1.6015387019055385 3.096039486614185 3.4308405714180314 -0.5788617652763322 0.5031502333756301 -1.641669680196018
Ni 1.1690691159238566 5.443825709783801 0.2006652193147735 1.3882774363489638 -2.9769286553664216 -1.488980605197997
Ni 8.179481612949441 7.910229296905277 7.3766898052980086 0.26317554848606284 -0.1825696646075372 -0.6592228801339034
Ni 2.5018662231737823 6.492550294878151 1.6082774384813852 0.8875535530266392 0.6603125136536564 0.17936607006857497
Ni 8.818124780567505 5.979999595171649 3.9104450986412695 -1.029215937896853 -1.0015704082654426 -1.2187394081144043
Ni 0.30612918605058503 9.123118307966822 11.995758044800963 0.30406354494967636 -0.6109352487721091 -0.6857373814846641
Ni 1.5181982571374197 3.4466636486196887 9.323064803000252 0.008366883907456556 1.689435120505755 1.0040198982472
Ni 3.8938420105916434 2.0417062520892 6.135010036687322 2.2878683801561115 -0.3715395763144633 0.5896282597642168
Ni 0.5855392862208597 0.4371125076957831 3.1596363710852593 0.2942473301902029 -0.4924716706158615 -0.03667884347827231
Ni 0.8958090298560804 7.940826151001204 9.957074334747643 0.48378776968861836 1.8826283262654093 0.11843426758020895
Ni 5.394304306781196 3.612583098994813 0.2887470157373325 -1.081537373008389 1.5056686073766392 -1.2957555177591429
Ni 2.333337450795332 1.4174839993151338 4.813470157425406 -0.8703929820869526 -0.9582864007658269 -1.0489825790008191
Ni 6.097511943755554 2.9965973893415625 4.77029284265295 -2.2798367681008864 -1.0068907920370918 0.9644254237840292
Ni 8.189853900058743 9.289743482442491 9.387131551148794 2.9115197909433084 0.09169710869568079 1.4044504465644008
Ni 6.640520209906559 7.458881591234059 3.168253633786631 -0.3473074432399761 -0.5387620690419689 -0.12754291474969645
Ni 4.88833727006529 7.351546527047465 10.07928253435319 0.19923272708551495 -0.09393782510074145 -2.412940207657496
Ni 3.69309136151733 2.920527759977727 10.044082687669903 0.8769256409991478 0.2421300406696733 0.06963267269647364
Ni 2.9599090219567343 8.262422766450147 12.081651167927497 -1.9823339070878638 1.8889470693945856 -0.6092210942944798
Ni 1.0603597469098882 6.526369336643665 11.787655793484543 -0.29976440335369015 -0.03144613432442327 -0.43812112088943894
Ni 4.678755783890756 7.764525127673349 1.5570808693243325 1.358275747780551 -0.6579386141048411 -0.1584663438014303
Ni 3.873988877342146 6.362650631161024 11.666385464065245 0.08023641635424891 -1.0385716680801405 3.365259077985978
Ni 1.0415466281243497 7.809106461972149 0.15027001844557494 0.41827297581526035 0.9510328045272074 0.035983360073144476
P -0.2535945268555286 3.974201699619309 1.5449851296747557 1.3354515507971838 -0.3807101870701379 -0.3823847465590834
Ni 0.2863893400909119 4.0597336034364835 5.300563717373491 -0.29591134815618714 -0.8752032589914024 -0.7136248519235516
P 3.5307005316449223 2.1569342831897664 13.711049257286327 -0.8566812889278148 -0.35152225265227205 0.4872083653343932
Ni 5.666388805070961 2.8663170060438796 2.258188048515231 0.06736238860505818 -0.3945028699788561 3.0979103719588323
P 9.104723052135553 4.116451535095945 11.277811917137361 1.1417767774154206 2.2798203130406542 -0.9319009687937629
P 8.863755415173694 6.316732135408562 5.872639459207798 -1.0204093953488167 0.8562213185722609 3.1132907110696446
P 1.0906130247989725 7.297437917391328 3.43359939550055 1.5369913287493207 1.5205923185660069 -0.35609264563177384
Ni 2.9316522004047134 7.339177783601099 5.354546039559003 1.3360477896202863 1.4213636773799714 0.030255713560747893
