# total energy = -340865.40314890357 ev
CRYSTAL
PRIMVEC
9.27556740137198 0.00000000000000 0.00000000000000
0.00000000000000 9.27556740137198 0.00000000000000
0.00000000000000 0.00000000000000 13.57573048062711
PRIMCOORD
 96 1
Ni 6.4002434930762995 3.1813062581970866 13.516173993333396 0.5572830106642919 -1.458568568565043 0.17829314871937035
Ni 7.761664888816765 7.071609056855518 12.685800161383439 1.1348098591792843 -0.6856065123337548 0.2983356413269636
Ni 3.8509558420191463 3.31002330611867 5.555161394001657 -1.2664873649226447 0.37615907736434573 -0.6777960151504004
Ni 0.8419172754996009 7.828198533317846 3.4748844572784203 0.8830178699398147 0.3405068753783749 0.7716394807651227
Ni 2.87043561893126 1.1213326108156056 11.202231602065474 1.6126635227716548 -0.11326969266013395 -0.9270770650425583
Ni 4.334556096215846 7.1398772324484305 5.905007967213328 0.22690756729296402 1.2261657824854624 0.5131405118191227
Ni 2.382383092413283 0.40290931127069046 2.7717565682705585 1.6305902824534049 -0.9167245181636404 -0.27592230662877
Ni 6.173687760894655 2.7330273644158507 4.891716237170644 -0.058108216996641864 1.6744461032960902 -0.47492054910597564
Ni 4.560870663646755 0.7870903245332761 5.501551397469815 0.8877718396850325 -0.4266133773601556 0.7156601371860255
Ni 5.849738571685077 8.284927468942172 9.009900246583033 -0.8976243069990799 0.19490273225159338 -0.8047907707061106
Ni 3.296870551636231 -0.06951202917266985 7.699394295063305 0.19458442968022618 2.074116376408499 -0.5654861153003744
Ni 5.053245604543305 5.4097984129389 4.33861322936861 0.43518903484430854 -1.5542997381207813 0.1863018779564598
Ni 5.022107524996374 9.430191043484642 2.2263522813573995 0.4052873621888698 -2.7247394306885333 1.9266235008994368
Ni 8.767090010201795 8.580484146536273 0.5863753953929765 0.3827760684602311 1.7735248491678228 0.14150477624642724
Ni 0.6406532327730103 3.9998565244638526 5.293747152214616 -0.4872266201668383 2.3445630046346784 -0.9438694540095487
Ni 5.963716743109767 7.273612362298787 11.37716787446558 -0.8160275199621947 -0.27152212067854525 -0.848075549536675
Ni 2.314587970754506 6.487266865822592 12.460932582456946 -0.7242813031961333 0.28859758810359326 0.9782731283003991
Ni 4.885051742039732 1.3222135726112199 9.3912290228898 -2.409242447090935 -0.42035068427989536 -1.082349327386723
Ni 2.152831351982113 7.0967551199033965 10.29233183844691 -1.0157132754247282 0.4656236971850819 -0.7603402537022196
Ni 5.891126153138281 6.22410046936578 7.548119994937318 0.3465181145694613 1.1477607629129973 0.36590448951587307
Ni 0.06659300813203266 0.7436426395747483 11.274928861061326 1.251474179343264 1.1414559037408922 -0.46976008795095875
Ni 7.57427987749502 0.7753789932148506 12.659857327101397 -0.5875839756406783 0.11210344026617469 1.4299640174544725
Ni 8.984731922173548 1.9749816238817712 8.841967955078337 1.4020963445099273 0.1301520702377694 0.42292384432371033
Ni 6.953967036333111 4.798510698794912 11.759596733058398 0.36902863696715155 1.0930019220045628 -0.03743114826326457
P 5.322422568633839 1.1404310039604166 0.22129277527520158 4.118056743454249 0.24890952548535197 -2.0103324491833185
P 4.429584283573101 6.459356683708587 -0.07508386247140121 0.9163427093441896 0.8021800725561411 1.9155160781323655
P 6.2771381633929915 8.586383407361966 6.67416862008613 -0.7050360818132761 -0.876783973214961 0.14962714824324552
P 6.901671387692779 1.7024747311176145 9.44982185419454 -0.5231169063055442 -0.8489234993592669 -2.0471807283599195
P 6.771294013218053 5.117785002067149 5.504130932745954 0.25872368336229634 -0.34693977548791216 1.048058010304021
P 3.4171468332820605 5.443190455348477 6.719063293549072 0.1931574674257125 -1.2323783390540775 -0.7800436456684179
P 3.769210267087035 8.577989018922892 9.956100870527742 0.1977836533438142 0.5318100632041679 0.22235260093242998
P 1.3837198596161935 0.8684825003498866 0.730495450432711 -0.09644362224173067 -1.2165917656437821 0.43612594483628114
Ni 5.205114468535529 4.095237183379875 7.270115473413118 0.4919777616985786 -0.8471784916437023 -0.1797962156274581
Ni 6.697033821126087 5.41246050076433 0.7893313016016522 -0.1983760355121745 -0.02480060398344761 0.11728755557027541
Ni 7.020315169487473 1.621489752707054 2.609295933937364 0.04819224343451055 -2.385473369695795 -0.7377009190361489
Ni 8.314052750377193 3.153256942573042 3.59102476344913 1.6646417156111588 0.29401361691284206 0.5665958034247854
Ni 3.477623532312739 0.5699307420629933 0.5666295676481131 -1.5621246334818388 0.02571823070171055 -1.0257593468068205
Ni 7.147687260145338 0.6496783597909321 5.166964060082586 0.33665587706340083 -0.13852538190312916 -0.5009485977386211
Ni 8.109155467925094 7.561590901379382 5.66619735546737 -1.2657772262294975 -1.096315302648512 0.19979194202309464
Ni 1.6126037591991722 2.595934479189865 6.719131005190626 0.40702979880127327 -1.5969635955378947 1.9534509055049258
Ni 3.4528855942276437 7.096226412565245 8.171978885491779 0.15396279950412192 -1.8727460341546909 1.0719949807355924
Ni 4.300542590794758 4.191239305307409 0.5689410390282428 1.0559037316006847 3.0426789622893535 -2.067499899533246
Ni 5.251770572235576 3.1199391047021527 11.073193619514067 0.6224296225649538 -0.341916868352024 1.5423680196802017
Ni 1.6153864293999705 4.959924121575873 7.692701045673651 -0.9895075635636378 0.0632427100097298 0.6833863647539843
Ni 5.482045806918954 6.5747725680703555 2.4721807873497714 -1.1265923563654983 0.341622734150373 -2.694165157446102
Ni 2.54711716830053 2.83864824967081 0.6475811540162639 -0.4333275561555376 -0.5506135690639163 1.7200546451638248
Ni 6.015307448632563 8.323866300618674 13.679041825072641 -0.49527802971640505 -0.6819743148978061 0.39608178443020176
Ni 1.3440575336874847 2.469128198139496 12.315984219254107 -1.7041351457200908 0.39678883779955537 -0.585156082925476
Ni 7.825239627337664 9.09639120176424 10.044330067027715 -1.1447158054390865 -1.5160849176139568 0.20462330197346695
Ni 5.603861832742559 0.648687729199448 11.482977053737462 -0.46637703041133877 -0.5356281513986776 0.77903603033951
Ni 7.545887365879544 6.30279438264435 9.423457909155445 1.0281131917509776 0.6666500258359099 0.4838903567047538
Ni 7.551814453407244 5.429564646931903 3.443239931754944 -1.0944697647993409 -0.9664074872110646 1.2778634679700702
Ni 9.533335352260892 5.454441718527037 11.167789565433463 -1.5116417942409386 0.8780201596149072 1.1150131361683313
Ni 9.478516749305168 0.01972263882652325 5.409874472591055 1.194217254603324 0.9345152664881583 -0.056942735933630965
Ni 2.317648907975384 4.67330909089367 10.54350956412195 -0.015056894333122458 -0.26963184563436793 0.7107817260478018
Ni 0.1675566310275897 0.8130674784144598 3.0525168608502824 -1.303184206123046 0.8404452866849268 -0.7510045781235906
P 5.701746894839299 5.245092163753661 9.821959470828071 -0.1710647492917312 -0.2864072653204939 0.19561698470979857
P 7.733328030605303 8.807327421305335 3.186007115722968 -0.512881087510149 -0.899671933556728 -0.07793579324553028
P 0.2902612562019822 6.911642622578971 8.236368018824779 0.3245071575160089 -0.6144149797905935 -0.7965043623276024
P 1.1254602382801229 0.1596955877103351 7.324405369030689 -0.1631066707869191 0.4586063853269844 -1.1129004607007027
P 3.668171512096056 1.839790229959664 3.8913611408914686 3.065875712120791 0.4533245681027548 -1.608186460836908
P 1.1536394118468716 3.173069554402724 2.441065896721181 0.4389356463709344 -0.035864317996776945 0.8344227346399306
P -0.19886630857023618 7.582590785828071 11.062645444339573 0.49089892681210295 0.7178093223185443 -0.45058865722883046
P 3.733944560075587 2.199403975576137 7.479046700099641 0.6498774343632615 -0.17268120184923164 0.5014435350971687
Ni 5.987981627260727 7.730016653066353 4.315195204515427 2.048667854428407 1.8375188355212806 0.7133142626616682
Ni 3.5372747058505145 4.041847017793895 2.656607820248066 -1.210057049849058 -0.39483582783824256 2.295553407505195
Ni 7.6170216917792795 2.599199478892135 11.10460811096761 1.7052322354390117 0.9277681775723119 1.0523828629316199
Ni 3.7273496316996955 8.185372804724953 12.287257787214536 2.045751452112561 1.187289417135239 -0.9637656787128434
Ni 1.4067325421767936 0.057018767527820036 9.340713355621245 0.03807829492896023 -0.23896861222255616 1.377388300240286
Ni 2.348258280184163 5.909222785010805 1.8185501083169724 -0.2567148804623837 -2.674016193302053 1.5002590063252936
Ni 2.620106607667464 8.647898969934275 5.178082682648242 -0.8861918967924222 0.8629192994177266 -0.1452336471612402
Ni 1.5308025308630444 8.992254407283038 12.53130909450533 -0.2678457002682226 -1.5051613287229173 0.5714215069482029
Ni 9.149549478166819 4.728953219342295 1.494850431868733 -1.1722021837848133 -0.5719308424844537 1.2779220891221474
Ni 8.468463119819479 6.9149168978485775 2.108962556266531 -0.9287464823251812 0.9426708057157571 -0.6532172973697717
Ni 4.843005595305673 2.347330723450564 1.9053536501174015 -0.3299653524171027 0.8218754941025394 0.4699536920190035
Ni 2.7548991521941235 5.579967971285039 4.366267405824141 -0.9871953704906934 0.9010109640831256 0.6257910828380191
Ni 6.062631393180803 1.7227882235834406 7.25425981860897 0.04520076490635441 0.1373539873028473 0.2610651870112794
Ni 8.033077264635274 9.519978535297062 7.781337439579673 -0.15198227873898343 -1.4830832658769555 -1.7009392644906125
Ni 2.547599497802002 7.8962348197273595 1.164440810009636 0.2902901453146678 1.4897239111219247 -0.6732227939574212
Ni 1.3412006589479988 4.7618629322504 13.409604217539965 -0.3569256830560305 -1.4188681646516275 -1.1744051049734032
Ni 1.9461624361688392 2.6667348846655043 9.348356423106104 0.4940143325126331 -1.6950347260807197 -0.8041924750004794
Ni 3.997481979225838 3.5992540467896235 9.363588759785273 0.5752771332488673 1.2019624457663818 -1.7868560190590903
Ni 7.452788496528177 3.7408641333082384 8.635359330452745 -0.6634644290190768 0.7884928048770355 0.8169150647734705
Ni 4.261177083020801 5.39210990602916 11.742218957654414 1.1282990546439602 -1.2731436938968976 -1.4862588353914599
Ni 1.1639631182918322 6.893323377090384 6.043874340913957 -0.1534354662457422 -0.4285890130292877 0.6439533555693425
Ni 8.18375885600849 5.439767771001495 7.07010455983362 0.9670034689238507 0.12785556089410885 0.11034069193879706
Ni 9.093515775890081 2.177550738932536 0.9166495939689678 -1.2483333197214372 0.03224317630442189 0.6854162506998196
Ni 1.7592690299159035 1.9763265811454904 4.371561899659526 -2.5912847784400923 1.095609277720423 0.8706043267668103
P 0.7909127858324391 6.841528609086196 0.5035622026604917 -0.8545992095878057 -0.5079556251840736 -0.3129528770195062
P 6.526873538347285 3.659693643550958 2.3401161871766276 -0.10811025994638154 1.7070705741993313 -0.49768535360631705
P 8.829143555679591 2.1242626045872526 5.626881935757027 -0.2454403359898289 0.449246027158007 -0.23006591041628766
P 3.9299929512891483 7.666432638978118 3.79448433296415 -0.8089847541828004 -0.3614433684207259 -1.5380727347389576
P 0.32686450002328027 3.811608885379862 9.887584109730225 -1.354462544682048 0.06596807936069284 -0.9678935848382879
P 0.6111634215416858 5.744757700576302 3.5689646816539367 0.04926747877656031 -1.1790022374257825 0.6334511704864381
P 8.63318792013939 3.5308652888213423 12.9585500740118 -0.6159471001644038 1.3873685513814495 -1.1604278168577047
P 3.3648233579397204 3.2510585245637587 12.174158012016564 0.1720332838525876 0.6152801560043663 -0.5140254855272373
