# total energy = -340894.56445659057 ev
CRYSTAL
PRIMVEC
8.99638965246262 0.00000000000000 0.00000000000000

0.00000000000000 8.99638965246262 0.00000000000000

0.00000000000000 0.00000000000000 13.16712562538787

PRIMCOORD
 96 1
Ni 6.316437281545849 1.7469729585110303 11.292613995265633 -0.3625448290150208 0.7250516057032546 0.49202224178326875
Ni 4.582401131632447 0.2783572982052763 5.994478979955038 0.16790229240334953 -0.08377142609070087 -0.3861205594524318
Ni 2.933335883808467 1.7958053625916433 4.682072134729188 -0.4608357888781354 -0.4023516765993136 0.4527650960548589
Ni 3.655485093085341 4.189303877339452 4.888571668683638 -1.1426918330305225 0.3369890920331035 -0.37559831976486924
Ni 4.865958343168342 4.626312510467648 2.575845440884422 -0.21360905041184503 -0.07158028334114769 -0.2509226992606388
Ni 7.048878360805815 6.022453254179184 2.780673445605604 0.15508534314433936 -0.5629412373913337 -2.3011116183192626
Ni 5.120187323808363 4.435750980763238 11.498588140053114 0.18925581837846117 0.2031904261816823 -0.31909215714802464
Ni 5.513419523949038 7.774707093529441 12.307746833358367 -0.23515078113836277 0.4560941604280919 0.13295045891851295
Ni 1.6173709663987776 6.351559187502135 0.5298360824695713 1.2497055174786156 0.8636811172844158 -0.7675403709950845
Ni 2.611301112903969 1.5757356741944526 0.3649826363872609 0.08600648606880672 -0.8138335976346693 0.20602095365194195
Ni 0.6876813408623464 0.25004655900091366 4.940450250365889 0.045424193771070154 -0.41195500401703244 -0.6610568480188486
Ni 8.512447046408322 2.2412616057846315 1.2759192872910396 0.6398375336287562 1.0436822498338283 0.9908864461890353
Ni 6.915201004093614 0.6345630566594043 4.6604906951291545 -0.8667152761250493 -0.5076175251183644 0.2915674693651946
Ni 0.7565945867167867 7.6923541408850165 2.691452648953233 -0.17113648306993107 -1.372069973351166 0.6466370730490928
Ni 7.5853240908947726 3.8153329478576925 3.886553767707468 0.3507468079388282 -0.38408707396217073 -1.0962980762573313
Ni 7.404703571969484 3.689761338396161 12.60517917695276 0.8266906561029956 0.23475200303804733 -0.6278160836878479
Ni 8.010178601341886 8.875091521074774 6.839834647803098 -1.3677098966102574 0.22178335869252128 -0.19595842720961737
Ni 6.762145423654508 0.7483565925353908 0.3694007634403171 -0.5848179828597669 -0.405212028866244 -0.75374280299036
Ni 1.7334513845734545 6.583540096054581 9.023431193956942 0.7590045656099316 -0.5833167157238922 1.0089715858255204
Ni -0.07412305521388814 4.847416783697055 1.431253653277975 -0.5100371903034506 -0.9344851845811712 0.144127558581255
Ni 6.454891721265937 1.898463167117043 6.758554064828242 -0.09460245526793384 0.2605034009705384 1.8025487472039987
Ni 3.377694567440322 4.140318534631469 0.47189753258748535 -1.1405526752003323 1.8688508128653427 -0.23632654661401878
Ni 5.721802901937106 5.448186701180335 4.671748777381638 0.7303275093902132 0.35489142623482106 0.8362818993358566
Ni 5.304082528637362 2.894975277507853 9.013437104477731 1.7717718710324581 -1.356078483018916 0.19442733527707162
P 0.10315350560587953 5.438362643469201 12.406368857399139 0.606120086771653 -0.5010447569968532 0.08915171656600776
P 3.891316456491601 6.107739029913194 12.67135752029421 0.23341425806323027 -0.14551852539151067 -0.09801893714865055
P 2.3106057787126644 8.408232866439674 1.4320570308911655 1.0298947091314328 0.3472976730479632 -0.3726515784317195
P 6.184199347208907 7.710157996388984 5.653003010594717 0.8494760294286272 -0.3620177528669572 0.46789500971776193
P 4.5600181136971925 0.964781843406226 12.655964697268802 0.5478851143891595 -0.3421513529603333 -1.776913820244714
P 3.9123860015094336 5.897358453379456 8.26941587220882 -0.15854424822721727 1.0092862888524619 0.42083250901232033
P 4.7465132751915 0.880997565137406 3.8646439598780784 1.0538054543107591 1.105407237647451 -1.2382491960125577
P -0.07960545518565038 5.620719465634644 3.5558221867394604 2.475343966705698 0.28407116098814944 0.8544084337332383
Ni 1.513003847802759 1.1518617702404823 2.6342545019554198 -0.6065612880741297 1.1677557179776858 -0.04205013509251468
Ni 1.7759323374232434 6.628764947807205 4.909125720563331 -0.08487905733258284 -0.369251551611235 -0.4205586865256435
Ni 6.056252690828201 5.642076895127528 9.11053154152276 -0.9522070273409665 -0.36144593952388715 0.5964805067993598
Ni 8.507463046433992 2.444454066831927 10.241640439667968 0.8915930132033354 -0.2493921215487253 0.0878903333550809
Ni 2.3643142260894625 5.038320176215589 6.8989157391955445 -0.4048579879609349 1.6796500160945331 0.9134869850629495
Ni 0.49610951657830205 9.028057137615425 9.190811725946816 -0.599500010351974 0.17924779932315582 -0.4849013144677713
Ni 1.510673782832811 1.0713080955651308 11.187395818190241 -0.9909874905432738 1.445706367890394 1.6299202529695735
Ni 4.08759969013766 6.87620165411398 1.6626785849379786 -0.5296207688623331 -0.09578824804591891 -0.6184667812624639
Ni 5.702451667379737 7.914672926743548 7.823300193640167 0.24576789453257675 -0.24245811343305343 0.6687452178020418
Ni 5.586290281696453 2.8624983101661043 4.82167001559862 -1.0937616829887227 -0.4815138860527772 -0.8758478345539368
Ni 0.8366228722251691 7.658545707846155 7.110089797313643 0.6995645171757436 -1.5093496557726522 -0.732770314503751
Ni 4.878868162596432 4.407862172242623 7.11900432001141 1.4814305607648808 0.1178943359163389 -0.6421623251071908
Ni 7.901448233670869 7.211569074769301 9.118353002854317 1.4740466095959839 0.1531734708336072 -1.421110937939217
Ni 4.566576481894459 0.3450160487644695 10.180465888358507 -0.3588444973452981 -0.7021471903012552 0.6509264444530661
Ni 8.128328189180996 7.365020496361602 4.691064926018609 0.21115673221661052 -0.3617860964721253 0.08091467336819613
Ni 6.977042187890617 6.073300849585157 6.894596572430787 0.9258226238101669 0.2064585554099928 -0.11223250964487122
Ni 2.129445476396655 5.453143711985128 2.6608262390026742 -0.7014601915365598 -1.1580742290238635 -0.17257244418550924
Ni 2.449725951281308 5.229862312413144 11.299619484038214 -1.5034700570634236 -0.9063506311284842 0.947789100778929
Ni 1.158878954319863 3.522068631678655 4.041965502647073 -0.5027920787052631 -0.1637075375957116 -2.2754553512037394
Ni 3.8950679510571162 2.5052696621865587 2.4156278344894253 -1.0222011971419172 -0.36130375751906807 0.8826882545145378
Ni 1.1561800373662547 3.3282234196806884 8.159075150755482 -0.8627593768010948 -0.2047197183420152 -0.5879519005030583
Ni 3.6742875478621424 2.4772459078182636 6.991164720669863 -0.07047290920958185 -0.35268079173674743 0.024484101184293318
Ni 4.1195818560379145 6.596584861330353 6.0848711065652745 0.1354770819951086 0.9100753882782391 0.028593238256660432
Ni 0.8611992100047228 7.318716077827536 11.41272479609103 0.1532197506905103 -0.5325834510350828 -0.5610969850937433
P 0.10039251356233862 5.654347970876598 7.918538675460098 0.18174305494118378 0.28367341132909857 -0.26645267657543786
P 8.526499407346774 1.6397449879441874 7.994723703226543 0.17641727185289616 0.6397927964337498 -0.1638970278986984
P 1.7293400344141252 3.2541561420838416 10.228763007243321 -0.005145034536049204 -0.9886696410433747 1.7270645008227548
P 3.7532128759754833 6.148555650641592 3.834793938371175 0.2921248845305614 0.3022730287081568 0.12773934703121873
P 6.885279011467947 3.871353467424748 10.299812895686033 -0.6194592270827203 0.6440166047071102 0.24315899615481995
P 6.1349351164157175 7.776794255973564 10.159991004709452 0.14466389070069927 -0.6044337002081654 0.34845029859516763
P 2.632577574888245 8.35333689560329 5.924245064071299 -1.7558983943353117 0.2766059629593559 -0.2737021590489996
P 6.610070449708548 3.837050232944391 1.530309303309293 1.6964403481789943 0.5763981342271879 0.8969542775152488
Ni 5.140024363417382 2.842364389692189 0.3625806002985499 1.0425064843581724 -0.9790681133978686 -0.676699439652112
Ni 1.5748810171591434 0.9993459731920982 7.018078320531242 -0.01199573890929547 0.9857264992546507 0.04307086304754518
Ni 6.9759266355497935 0.7169232064157038 9.212432749662167 -1.108154204264969 0.006054176613879896 -1.0293871733673952
Ni 2.71510145893973 1.5312215372396125 9.100156005114108 0.4525979743493754 0.044962937863935466 0.039171270882822865
Ni 6.340142768788374 1.8879733765573536 2.5717241946962623 0.15268624678454348 0.6627473483473941 0.23553181862686534
Ni 4.080762433855187 6.568660067250357 10.402792770967897 0.6537999093461192 1.4324189067528685 -0.4690584338982438
Ni 8.027865503777864 7.2216360350062585 0.1627491904974807 -0.8186927254991837 -0.704146223009155 0.8704125224709783
Ni 7.673992509210638 3.965536672715819 8.13520323030082 -0.13364105722763434 -0.8234497805681948 -0.2004221194079258
Ni 3.0064405476918608 8.248394008057168 12.228691957231254 0.30837528495115274 -0.0629665735302077 0.7032869603326534
Ni 0.2625002614638452 4.919450877188851 10.107296450468226 -0.5963843475411277 -0.48890066543515154 0.019403344227276263
Ni 8.648715363395986 2.493844247082952 5.907563058381047 0.36800148125421783 -0.4997021269260297 -0.004080083606644585
Ni 3.590486176452616 2.5945048530626824 11.414515977309243 -0.24537734396237743 -0.24698068389375527 0.03795822441132818
Ni 1.1065109690300237 3.2801826979064677 12.643851058342024 -0.6897845549708443 0.7028025644970669 -0.5922168464269995
Ni 3.2831245173859 8.127644463552748 8.01889790238001 0.15316627174475556 0.4776860276662548 0.4980116265974842
Ni 5.614035147979542 7.551497665076219 3.521890503159717 -1.5082787913059765 2.117037344141741 0.2577788029505238
Ni 2.999279421374954 8.541406425320535 3.639512002914904 0.7702035196495446 -1.0574677336536948 0.11346741049323684
Ni 3.520251360929892 4.044426015269779 9.43860378965248 -0.6857576931996383 1.6045313805828236 -0.731532842552224
Ni 7.4966826617484426 6.206735303771533 11.220471945095692 -1.4592933625462092 -1.0711496020161617 0.33023403269745705
Ni 0.5491612274963885 -0.15427009306822917 0.24010015038788396 0.986154845041321 1.19939571348047 -0.11049701501100326
Ni 4.628669564607133 0.2862723219912239 1.566242683629629 -0.8814266141932948 -0.42359875890354787 0.5094702620563871
Ni 5.957796200360583 5.63036359554887 0.3593113122287461 -0.05554122760041403 0.20486627122220846 0.31938552001872733
Ni 7.966735034778645 8.703764272859743 11.190121724313386 -0.34541948218864377 0.7509822095260873 0.7966406307951507
Ni 0.022098732016141716 4.859966747531332 5.758734881530278 0.10955316304049521 1.1483351473592287 0.6468741287605633
Ni 8.029916680662605 0.11278504057432169 2.2830345427535907 -0.5188704723243646 -0.8314330558839875 0.5679749431604992
P 8.513643566257755 1.7089452186346945 3.722833866745673 0.6716351377553271 0.39304736847925215 -0.6881071672684214
P 1.8416059832943696 3.282323838689663 1.7170194785209052 -0.6730813832835504 -0.26704942961917233 0.36749985902745097
P 4.900306559597925 0.9206275620452002 8.095649702706712 -0.3036719659382125 1.1192559706050855 0.2686039185904858
P 8.490153992371521 1.5349640354152823 12.41577008478754 0.11720759426195944 0.2571406551458926 -1.201045333268751
P 6.264465137409207 7.758045779535834 1.3340539584717543 0.5022266931200964 -0.56620499574427 0.6569248281283461
P 1.8639800048397792 3.281622120281725 5.973924928075344 0.05892377091940174 -1.8037360826438806 0.4710669796878403
P 6.891432542122174 4.144528845079097 5.985156920797277 -0.2684769060943183 -1.330777285249966 0.44854360177434366
P 2.3174790205545195 8.47592170363616 10.100621129202969 1.4534692996652645 -0.9629228710965738 -0.276398217823924
