# total energy = -340858.1799402547 ev
CRYSTAL
PRIMVEC
9.34683446922206 0.00000000000000 0.00000000000000
0.00000000000000 9.34683446922206 0.00000000000000
0.00000000000000 0.00000000000000 13.68003703821711
PRIMCOORD
 96 1
Ni 9.128221169634912 5.540803359126178 8.347763311595054 -2.6454810619768376 -1.2121339869827445 -2.8500493423426527
Ni 7.356790443878652 8.351162755221427 0.16100015509663348 -0.553514287650479 0.9036142060339277 -1.5445647702212044
Ni 5.064797129925405 6.40475929180855 8.958399472348091 -2.561376420916434 0.2050174520880921 -2.4790808080403113
Ni 2.5611541006144427 2.6054020140795293 9.796684324689979 0.4610052245764641 -1.205782333733104 -1.3030805906656462
Ni 5.921406450866424 3.4843409221071764 13.65424994755951 -1.4043077503389492 -0.26176889794652336 0.4856528479218151
Ni 1.709601417017024 9.314017541383748 8.000947156397604 0.06081147486041785 0.5606141319200539 -0.14041308584414527
Ni 1.4709580442686947 2.3462236464256665 7.350078482184676 -0.7563771552894135 0.09769652081222528 -0.34273987847395165
Ni 6.3737278020104755 4.7097389362629105 1.9630576527267962 -2.369434056844745 1.398634868323888 -0.08367989481815911
Ni 7.771958128773501 0.8987999961818429 4.000015115977538 0.005104925326733144 0.3238939494120422 -0.9202417872882795
Ni 9.170085640359485 2.472013342119189 5.091723490109228 0.5378935503940865 1.1046356495887493 0.6133731687896404
Ni 4.70322419277217 6.556860325990501 6.587265577892049 -2.6168924517058674 0.12386906544253505 -0.18168546223037096
Ni 3.6770165638835377 9.137427801397294 4.458159544875866 0.048741945290393475 0.3541859155273642 0.6580980225008408
Ni 4.618224081861419 7.018500470908251 12.969605553004918 -0.38826125994451843 0.7360543845716614 0.12975894856440875
Ni 6.0143700645807785 5.637711336905228 10.683670857029718 2.220781356699627 -0.864661478919814 2.6540520914753
Ni 6.781567568832527 6.9024688701994235 6.335662819419312 2.8151484167004095 0.25119652174731577 0.8876461127404456
Ni 4.841744276750325 3.882562796458679 9.695028155098452 -0.0003237018880058941 -0.8040397514726992 -1.2909388130967898
Ni 6.852968035870928 7.684798899144871 9.31351935511681 2.055274818221964 0.796499734341912 -0.4421358984757869
Ni 7.200015992558437 1.377358845823537 9.202807037794756 0.2981435799208156 -0.9340946340109719 -1.2642595040333904
Ni 9.13939998342964 0.34460469420762385 6.011364122677446 0.46327242334408597 -0.8221621721050228 0.36156421026930635
Ni 4.271708894727673 2.3593746422527424 5.178372382586359 0.6739540156964909 -0.6262407687809278 -0.4742073250890349
Ni 2.8494291633711386 7.948127261217512 2.079447237188414 1.2986518654703312 -0.11146914911628546 -0.7847639339622227
Ni 3.6852511248811597 5.4770766430288065 11.314813037502029 0.8046419038330723 0.6787874325293922 -0.8461737045282718
Ni 6.136056500026905 9.079028780837543 5.189180127060309 -1.100214637702918 -1.5762826701497756 -0.28602005718440415
Ni 7.982617079697904 6.255350145898239 2.779619527526602 -0.8444173839587974 -0.28336025096405393 -0.002549505894731093
P 3.169118936131248 6.976374288823935 9.864127342095697 -1.548976526135655 -1.410445744915887 -0.9550810064546518
P 4.088118375868097 4.743780106698028 13.338719516052453 -0.523726257754769 0.05849851045652506 -0.2533593337265894
P 2.448431279239507 4.457869793013294 8.9025577456464 1.0300402335703616 0.93557841764535 0.08808573719533862
P 3.1801762410803818 8.33451604337493 6.679646883830975 0.9429016907796406 -0.13665079058823562 -0.192502607450533
P 6.448287499034344 5.777530630847819 4.517394172419938 -0.5230377163281766 -0.3201100568895777 -1.319299880737986
P 5.6659013890832375 2.394500045463937 8.075120829165852 -1.2092844333490915 0.8111727629730545 -0.18519244694236492
P 6.66321795322312 5.310011327170133 8.15480633010697 1.0065588626189699 -0.8797176019219881 -0.5260747033822876
P 5.2994680981062094 8.316009311507404 0.9641923181472927 -1.5717156196043833 -0.6372270925891026 0.0307521935811922
Ni 1.7647477392485431 1.7903767588347848 2.9248057737107764 -1.192305639402908 0.01981369229181749 -1.600342796422773
Ni 5.744452184343185 1.11442305079051 0.50887717598447 -0.4370101472134474 -1.2619856203975492 1.1304837210001046
Ni 6.503144069403291 5.813777654172198 13.387283797586441 -1.9330160346893421 -1.00197638545461 -0.11815273178404814
Ni 0.38917881218896133 5.348417469212389 12.685251487227225 -1.0105695264402594 0.32178050261346514 0.540507848088482
Ni 1.5443493870079978 8.106144841496505 4.039181155646476 -1.2190584820167198 -0.09192516554608685 0.7192455405444388
Ni 8.410225401014811 4.313330347761055 1.1265888902848396 2.3659553542675256 0.2514073522065412 -0.2340917437462291
Ni 6.629513268821958 3.3596167655211784 3.651448298720094 -0.5420466533305116 -0.8223856009697385 3.113808274136012
Ni 5.197353933635133 8.790847186423612 7.776649304896891 0.5371142490259008 -0.28862149936299325 -0.24028553126176685
Ni 7.005891591469213 8.597405104236575 2.3796011916271502 -0.6689321370018673 1.116959975482057 1.0047266945062374
Ni 2.5652854013646684 5.940717010481733 5.469593567507017 0.20749753819746844 1.7086453748856187 -2.4184757927637444
Ni 0.8018565004325432 7.330899712932667 8.877810132532433 -0.5564003509490225 3.2389346090244158 2.5762453676084665
Ni 3.9219503560999707 0.7688556326524035 2.125672940786414 -0.04981255264675292 -0.5877834932459941 -0.051599726454162755
Ni 0.4251557120027477 5.214000645481631 3.8479206245795807 1.357433968605546 -1.361436919117352 0.028728735393260197
Ni 4.360634676034566 4.882851653898498 4.359745792094868 -0.630325737483579 1.4571002115496325 -2.6821377939679225
Ni 0.8695004747752088 7.529538634977454 11.696431195444706 0.7126354914270888 -0.611922552386043 -1.171936588828253
Ni 4.809656594679002 8.036968921015918 10.672726648775328 2.5785493331512948 -0.22869705509321905 0.838664283525104
Ni 7.737916958338383 3.473367738666532 10.175005854183324 -0.8402804789722884 1.317140411192822 -1.0333245607485881
Ni 0.4544281275899801 2.136256361237727 11.095371801091401 0.23331989857721108 -1.3001775580862382 -0.16555616076867616
Ni 2.2288741420838494 3.401191484383178 5.0437340388832475 -2.2346180054724027 -1.3218319031312202 -0.8258907859095195
Ni 4.089950355386297 5.869634335808732 1.5234769713850818 0.10410293855920136 -0.5650935078476462 -0.6045010631109912
Ni 4.374458643929552 0.24604232676162932 12.650477524984826 -1.358979201605479 -0.10959301513949513 -1.4542347170763792
Ni 2.292311106318649 6.3019721552695644 7.734774552654614 1.7346081174979675 -0.2879576405267492 -0.41309066028337244
Ni 4.36555111086402 3.0050819945781706 11.862178607670389 -2.2518636799267284 0.4488423639616851 0.6679970267821076
Ni 2.4693214538475483 8.169320094371564 13.23992254306612 -0.21002930348038668 0.5693114025837357 0.6906227346014235
P 8.239907386827907 6.399665267127842 0.4632225639607659 1.7740298138286994 -0.6104449393992519 -0.4331293241018025
P 8.538099440752001 8.049633881460613 3.7505873658409503 1.6824710304830959 1.0262123751838392 0.8617851858132834
P 7.1757703044451215 9.337851968788897 10.862783307587407 -3.7494803635331677 -0.7002263191294585 1.6260175754810575
P 1.8101079259925366 0.9874836944809745 4.807261001053928 -0.31947113775399816 -0.06702068899492328 2.0627130196675636
P -0.03436550558451286 5.994489348074602 10.531425881599906 -1.1561245614966604 0.20871598398560182 0.5843420716646129
P 2.6116083120391442 6.138636226287227 3.0874472329063685 -0.49962473672087504 -1.5696227416310968 1.9618198462949117
P 2.743912751223407 1.5444708958535927 11.547059436871502 -0.1411389082665763 -0.8571877962505883 2.2196703830236353
P 0.9773049919538347 4.80952573899913 6.2790135262361275 -1.123096170286782 -1.9543600475827572 0.25632792943661015
Ni 6.265407339579785 2.259774776202053 11.286084607669691 1.6636929785446446 -1.4563929010699628 1.0417402956161093
Ni 8.00117989257109 4.6195700259972385 5.589047044244482 0.500896147234131 0.5397416593464188 -0.4391850433775791
Ni 0.17994431880830172 0.01411091570727529 12.717344777399113 -0.7094969457981072 1.2870150525623512 0.968629691673364
Ni 7.918366940881046 3.1545191809913105 7.390625983959685 -0.5918712901621226 -0.4879853527097338 0.8585461100506956
Ni 2.8521210516427793 3.840193596683175 2.9850526634069974 0.7609434345038573 0.8239010091730005 -2.2265010327922234
Ni 7.315823269244627 2.404407689797057 1.747036422977949 0.5550577208781989 -0.8100707881581274 -0.49012631031213655
Ni 5.5097438288252745 4.270671396122978 5.9558635554268475 2.658825344494227 -1.0990458142057975 3.553735337885938
Ni 8.909869774100928 0.7057187017978803 1.6779661217246853 -0.2638401786532553 2.2530019072962295 0.10789505861178192
Ni 3.079884709293229 2.2787301561148534 0.36153087639898956 0.11266471208628338 -0.7354010672583787 -0.9528330909607398
Ni 2.1082719394138003 4.113495030928872 11.909553037200975 -0.947867005204716 -2.185390378794843 0.39673741573632965
Ni 7.638513375807501 7.103995964035659 11.75987937588064 0.8577020168828454 0.49383435529134306 -1.105034941909697
Ni -0.0064661399525025144 7.937060609434103 1.388605891508484 -0.9159477878986161 0.26756982089901665 0.8004726029467311
Ni 0.5291934549679327 2.44328117355314 13.340716934537348 -0.5042817758769121 0.5443094812227594 1.1370590602247772
Ni 0.9331561549320793 6.052178009229337 1.603095175119408 1.2692888389271817 -1.9056870078570858 0.13145022022390265
Ni 4.845268033272577 0.9464604388412903 9.982349840758943 -0.8432678437353864 0.543781119523115 -0.4412218713019498
Ni 0.20053446003606668 6.679341242350132 5.70275595663559 -1.0329982877574209 1.6358211918350407 -0.27262178150062727
Ni 5.122766196108435 7.35512670737743 3.0904980396142276 -0.05698438780484379 -0.537998194292751 0.734230186878729
Ni 8.959221059080999 9.13083828323234 10.15106580755085 3.1555030827716366 0.21659744361620759 -1.2276606218634343
Ni 7.647654579729947 3.99583708105593 12.458436533255844 2.3003649699612256 -0.4988372078225732 -1.5149204649922101
Ni 2.7089368973606374 8.841011645985741 10.471835139669897 -2.1590288580821784 2.6346001533982757 0.6540523916765574
Ni 2.060603084603504 4.310292626621183 0.701061174277886 0.31245613988874577 0.06792057510137335 -0.7424793142613987
Ni 0.5010875242984111 4.0299623729995355 9.775481031133673 2.3081361292662117 0.1988311207717221 0.8220004497161779
Ni 3.849568471462533 1.3478415431782595 7.339134273930289 -0.5601533902335514 0.18102623137981724 0.19552982431263102
Ni 3.128394779188413 4.102493806985398 6.883302251831974 1.8334675482700424 -0.07710995491012528 1.9890396012428135
P 9.154439039780575 3.1442283164528524 3.1043967821834255 -0.6941235486658305 -0.05862192340826679 -1.5066584820937343
P 4.827892268352509 2.7439688322290663 1.6869811433843973 -0.3851944480937366 0.9999215598081104 1.2506048893644333
P 1.5093174521395685 -0.03632647141572857 1.357008918236679 1.489122787202816 2.7238716833715992 -1.442073142013181
P 8.747664812066049 7.90467382866593 7.250774910780553 -0.2711238567988621 0.3681290079710176 1.432163596208953
P 5.471814375331121 1.1045714874630488 3.6445942651451153 0.3418284224032758 0.6824553682992828 0.8254554981443138
P 9.248486886271007 2.102663838847883 8.9057992277735 0.5927089555720696 -0.9663452665145615 0.16891042195288974
P 6.846640229065718 0.8214427916590089 6.758376203625603 1.1065832602334231 0.20101784401039574 1.0916276673648555
P 7.414039803822389 1.5685296472813772 13.125064904742425 2.847818139019289 0.8171235812398507 -0.47640896072604405
