# total energy = -340877.1536790265 ev
CRYSTAL
PRIMVEC
9.20942225353476 0.00000000000000 0.00000000000000

0.00000000000000 9.20942225353476 0.00000000000000

0.00000000000000 0.00000000000000 13.47892037071174

PRIMCOORD
 96 1
Ni 4.355725209481502 7.762916759581409 10.439666663594211 -0.6754570826045786 -0.7477999551433637 0.986417097563772
Ni 8.025431342290178 7.819333680601368 5.779640038652396 0.1440059454017262 -0.15070006959245014 0.09609832308716998
Ni 5.55962693986578 1.0957186466066977 3.2900292795782105 0.602061343321247 -2.969071878326164 1.0581501044327002
Ni 3.462733576001208 0.3978249408181133 8.999767040134328 1.1282021240547797 0.05188126225032355 0.5890597888552564
Ni 7.221697429757556 0.8019767547574658 5.3902205375690055 -1.037409529451239 1.3530759487471664 -0.33505150869075845
Ni 3.188246744300283 5.770329312705419 7.050162729966869 -0.5422130037050468 1.6096810431045632 -0.22333450522972506
Ni 7.0559922942838185 1.343046891940032 11.758470672267357 1.8544171539385161 0.6584428074347692 -0.5587642231955087
Ni 7.768829208699074 6.151083668345178 7.408338344949653 0.7832266713820898 -0.9755194768146619 0.35525780843530425
Ni 2.037446542907367 0.5243485891094455 4.537044920467701 1.4781212938859898 1.1762778965160838 -1.4651482786650896
Ni 8.265659123028934 2.956869218393421 -0.25742085123372177 -1.1302376664275695 1.063910146844929 0.38807202675184777
Ni 2.761583418486757 3.864402529688033 5.6900047313903555 -0.42061345102297887 0.660280117753824 -0.17404825740008736
Ni 5.4913206546543805 6.198825313556975 6.775758783066659 0.7125930682249276 1.728632616640823 -0.7296158280351692
Ni 1.2123651894795013 2.2492632558455075 -0.13214047495311354 1.3040650660661024 -0.40346779248162773 1.4312855644793736
Ni 7.3663406164274 3.512768367366117 6.886744294050633 0.1488218787331308 0.9275012970641704 -0.22412486234150433
Ni 2.9956777239726087 4.315268217310317 3.311312254517343 1.61308492657979 2.0373665704829755 -1.2365424977340962
Ni 5.198507072573156 3.1204101396262685 2.708818033409406 -0.008814512967836433 1.726625613513123 -1.6187634650218057
Ni 3.806364750342983 2.0651945323022636 4.675689089450245 1.5376194492516229 -0.2538846101024402 0.03519891649863616
Ni 3.4174140088547476 0.20803624508330948 0.2717516332773322 -0.3147205104428903 -0.47988792041357997 -0.6983866948175586
Ni 0.6733561210080461 9.533409778230608 11.984256236952652 0.45707683605633537 -0.07042971467647226 1.3493046546301923
Ni 7.987359590495123 5.844004691118685 10.814285702096605 0.5640259858150802 -1.541080925437662 0.9200319852703187
Ni 9.331447147155242 3.2560741395519965 5.191460022627926 3.0737312036094675 -1.3429604575797194 1.7673891685837302
Ni 1.1503397302778329 5.942794164148573 2.8722235761344193 0.9611994606475639 1.0112282430701809 -0.628532393028582
Ni 5.432472446146784 9.4872705724993 6.952494964573322 -1.478843516763995 -1.6559015075246837 -1.353489125025185
Ni 5.87696521353632 1.0286187957168156 0.7793510460467518 -1.3197673072927076 -1.2266013273609842 -1.1648958799313873
P 7.23844015950197 1.9660274729580074 2.0102732214640944 1.454433720461063 -0.046661922832913184 0.8352156628548713
P 0.0032067208454374095 6.046538306376754 9.0345970752792 1.738112273996484 -0.7108912550424724 -0.48034943343103076
P 1.9213986124841713 5.961802411779196 4.965391728677971 0.6190853886830693 -0.39046469535374045 1.3093643667918289
P 8.331755146887936 8.914840510495127 10.798474965889119 -1.6810137292112792 0.3537745390215585 2.0627744690331182
P 2.642302980835679 8.293582091447561 11.772678048052125 0.11726210164897868 -0.43480156959790284 0.45541590341414473
P 4.361370585352419 7.580293915339525 8.227222678110733 0.0828885092651153 -0.20810303299195124 -0.45905992792463524
P 1.5200980356894125 0.06395575411609603 8.096059322863825 -0.4789654085993106 -1.0720242913116313 -0.1573610265523935
P 5.754590409991885 2.4530493525366017 5.671740605081707 -0.28058525932207806 0.4006156677448133 0.626254909848315
Ni 6.338578296984639 6.642949704054445 9.446607289268558 0.22478974961901285 0.5859207290056426 -2.2255651512415153
Ni 3.672349237009252 2.140021088503237 7.145593526683342 0.1487491165136664 -1.2797378021746477 0.14667089382839898
Ni 3.589298666692897 3.32485010530078 10.259911633457063 0.3662207352047112 -0.8816202182613396 0.1890205624392035
Ni 2.827458416210519 1.2711581414532878 11.561840296704652 0.8854102814313912 0.5459467597158663 -0.6396999796096273
Ni 5.262355997390552 4.443573888817021 4.674839980714032 -0.6373646466082313 0.01933032489749574 0.6764199607384803
Ni 7.30502428274296 4.109640236158891 2.017686806416929 0.09519123789186833 -0.48105751524164897 -1.5954792976828844
Ni 6.574680256532252 7.707227382923281 11.696373379571737 0.7719163885755932 0.3878082315674999 0.49995589480804864
Ni 6.253105648602949 4.114558067667977 9.41268069845148 0.42660489271972335 -0.8219482563220039 0.19638805854786823
Ni 5.052592985625682 7.774631144749118 2.016513526015698 0.2642045039712095 1.282725424048062 1.578624945129707
Ni 2.2071946147715327 7.057511848963592 9.050637126101998 -0.6139136146741427 0.44171089512322637 0.15555225547842888
Ni 2.800723463268805 5.903626491099621 11.981048595164985 0.04420291976945936 0.17293651239314733 -0.9216970316775674
Ni 1.8699731983517118 7.1153930681295146 0.5135818534965767 -0.0925903099339115 0.20149118410238845 -1.6229037124424246
Ni 3.2022266473542005 9.039351900013546 6.6329630065105265 -1.0416148257818383 -1.1525134471066345 -0.5100554451358958
Ni 0.946977267012615 7.86683588083332 4.341560197039321 -1.3860814571389095 -0.9599398772088502 -0.7290051910343638
Ni 3.26481388131627 1.670727346855335 2.285768484907051 -1.2102498825861545 -0.8541253552751805 1.380461539848971
Ni 0.6444993171680301 7.230547684589449 11.310471877807581 0.910227083364755 0.15755900149581253 -0.9912890809440928
Ni 8.297772378594816 0.5932138862545554 0.42189192411903687 0.26741504048870723 0.17488438014813754 0.3348131674277073
Ni 2.140030297925539 4.611609008133077 0.8328089796811875 0.6066363642864392 -0.37158714172294716 0.48733820604403805
Ni 8.919122891865397 5.55685490375298 5.059299286945749 0.6045319163489266 0.3459411590200687 0.2133694235972132
Ni 6.305967732614467 9.034369602548349 9.44078417154722 0.0014809554209006754 0.0602471177165156 1.2276089426898922
Ni 0.25202689259164057 8.139932089766695 1.933308237404676 -0.9795455672549195 0.27664735772025256 1.4209577001908045
Ni 2.808091001110131 8.335982271724397 2.3397384624214586 -0.5118616451066991 -0.02000523947733329 2.2066343757752835
Ni 1.6102214423334402 4.574292428966758 10.176868430678551 -0.0521730824591295 1.58236975688412 -0.9014076853009122
Ni 7.929386277106183 6.175488637444572 3.004869648371894 -0.22129742019503823 1.6002124414924956 -1.2013268690649117
P 3.3800882202661264 6.227927088030214 1.8103541611974667 0.29494641313975656 -0.2107240155545661 0.1839536894392574
P 5.171937889232871 1.8049730957466077 10.168726380421653 0.3406832530552391 -0.2852723803851023 0.5238458140517688
P 5.613087636326905 3.984917029927533 0.4581567872585068 -1.2085550113822348 -1.0479968180487822 2.50979803461851
P 1.4493052064565655 0.5848176559421336 1.3245046410778734 -0.044779618208535786 0.2584048665702969 -0.48695716855553556
P 4.084038042160281 8.95111642494136 4.551777233323663 0.25198250798372085 0.7418151983148386 -0.6436815899651946
P 2.8397529949832325 3.845596889348047 8.088511280345386 -0.2753790325307902 1.060587767339915 0.6076617202271599
P 5.598361770066553 5.787127298983643 11.263687091572926 -1.484091652536812 -0.5855196369124819 -0.1885366808242495
P 6.862474703459073 5.8283670920504695 4.844094427542829 -1.4361166673194297 0.011474062077870563 1.1713740314565635
Ni 6.071109045077578 7.928723198700465 4.45956789252831 -1.4359217776998043 -0.27556338062745445 -0.4363614578858549
Ni 0.8203163983289881 2.540704634003785 11.007560164172586 -1.1323369721587595 0.15002798322608998 0.47021028811449983
Ni 0.5440254407991685 5.2065837359317095 12.71354670525205 -1.0088980522751076 -0.7783588017668273 -1.6468088011947961
Ni 6.265050269328199 1.8154810465927997 8.245055803455664 0.004818504434565895 2.9119759046441205 0.714765393285898
Ni 4.350070624188284 5.431219964713758 9.271920204224013 -1.7054271250586368 0.29337958287326893 0.12782136522206372
Ni 5.6447864678892135 3.560666572757042 11.844870709474824 0.23600078784348386 -0.4326768099454161 -0.8100882716596243
Ni 5.4850398286446485 5.513625875468996 2.3309775389858913 -1.1479952475213069 -0.12330136586452313 0.052536893556451456
Ni 0.9069172009426316 4.904615988082636 6.9301197521492135 -0.23388862659648754 -0.23887965205317566 1.751958950071589
Ni 3.8528170764325473 2.670787724014708 13.912672429230689 0.5969422769271268 1.0528945124607156 -2.0371876217029494
Ni 0.2631795029989487 0.7388507695907491 5.746158262932487 0.15284436962896256 -0.36408286292610204 2.357769218912307
Ni 6.873001073149869 5.367693369676919 13.092277750812137 0.7669965826764726 1.1116262219739694 -0.19386734900854355
Ni 4.480153714199207 6.978043743922583 13.308330798009038 -0.051334645718234165 0.09085352974846288 -0.6781390003121159
Ni 3.9704398180693268 6.827396013912057 4.656131039308214 -0.9632504296393217 -1.1181763643876612 -0.2805443787818136
Ni 9.534791191575858 3.7735331598375708 2.8164200026397515 0.13839939784822614 -1.5565674511090353 0.43649386969866116
Ni 0.9668327814949902 7.656649235642575 6.668170627969767 0.7439882947067574 -0.6024346675002658 1.2266764035732938
Ni 7.465093251768082 3.3137159137380756 4.282306773950452 -3.3536734300309083 -0.06901200839333921 -1.0598676013444392
Ni 1.6589577051538158 2.056915261653073 8.8730389426679 0.1556360734414868 1.099312437603623 -0.6809600147006788
Ni 4.935918814485973 4.078714996069922 7.225132544276074 0.6010424151384295 -0.8983257039414787 0.05303440201816028
Ni 8.823805371043235 8.186016038964194 8.98988717188911 0.7383192693464381 -2.065149139912882 -2.2901360931443655
Ni 8.66805562107759 3.8754538364500233 9.163563062364933 0.2543399524723039 -0.2929520084175471 -1.209103170576221
Ni 5.097709945481506 0.37875314817360917 11.897479534373048 -1.664409544995695 -0.4687966955964249 0.18243673857409873
Ni 8.839783718736612 1.3138346043991722 3.5055168682457913 0.32042990212284167 0.11808742576375146 -1.1842166917471864
Ni 8.563022159727177 7.248948110348162 13.340802300102455 -0.994194941736978 -0.06892999020249418 0.4423451862731156
Ni 8.587233730958237 1.2548758828239557 9.060166115357525 -0.5246274294127997 0.8363423202601468 0.40068842996427767
P 7.858160605025159 8.582002779090896 3.6655517624083975 2.0305400344794444 -0.053076310999689236 -0.8241658327986128
P 2.489610759074185 3.728121498468094 12.237403916238405 0.12707985907034888 -0.32721118671073324 -0.25746924212990496
P 8.014205056504457 3.5005014168603084 11.14553020344265 -0.5625203478038312 -0.13106686874255494 0.3777022534817495
P -0.06276405487026145 2.3583028158971415 7.244003571514401 0.3662760139226789 1.0164673799819333 -0.09499531983097834
P 7.387356518119784 9.09357697852571 7.520698822683265 1.2792672902961324 -0.39494432839164884 -0.21993216441639546
P 6.374301646092772 7.854034783834016 0.44004737924452597 2.015604496215535 1.2885929385724324 -0.832257608667812
P 9.11634267045541 5.046137180592219 1.2060788378163894 -0.4347761156766061 1.3156915945614374 -0.6048504760306099
P 1.906101762041117 2.71117104080748 3.8453473140036722 -1.6302431835266311 -2.0607528106173993 0.9358445268225432
