# total energy = -340866.1911637771 ev
CRYSTAL
PRIMVEC
9.34101653212207 0.00000000000000 0.00000000000000
0.00000000000000 9.34101653212207 0.00000000000000
0.00000000000000 0.00000000000000 13.67152189918365
PRIMCOORD
 96 1
Ni 0.13849831757795192 2.4777886963835964 8.796025169591461 -0.3100524155432595 0.12431283784817299 -0.3031209785307489
Ni 3.614599745730009 4.239747275146437 11.235625922310355 0.7844374038607393 -1.902070751260737 -0.17815842291371897
Ni 0.6004891140536561 8.261465884112688 10.25451654063418 0.4263452113004335 0.0934868536062519 -0.2750720428133327
Ni 6.175943834726678 6.252988538837649 6.3903836823666795 0.8807858952855024 0.7665337841074412 1.3783684047653681
Ni 8.104228553329474 8.28502392773149 1.4493044813127067 0.637252032289767 0.004880210910436757 0.303405085430071
Ni 8.356903049716689 0.554067998443826 9.432051246826468 -0.5884882326225026 -0.7156706787089868 -0.5966705113229789
Ni 4.030573892610432 3.7869882052799557 4.4364093001792595 1.1756649455224333 0.8181247688108555 0.5308217311489697
Ni 0.32157943871808126 2.035416836867673 1.3996635173145335 0.5351602106233235 -0.9433976565794527 -0.15509125668161033
Ni 8.990074512308592 5.444719721910133 12.514418554288428 0.8954398977532515 0.1318659676050826 0.6741627892731873
Ni 5.854547479932043 7.355620808802146 9.082470242939442 0.853204129012492 0.7254017899538218 0.6609941131017133
Ni 0.06409712113713238 0.7439101473283202 6.492633251305806 1.078163057219517 -0.2825308130842231 0.7120035142700447
Ni 3.871720565972319 8.212462911541623 2.6853881176389627 0.9460888302583706 0.2659348563987549 0.7256671278000664
Ni 6.834952548963944 5.006822209298811 4.469986518098428 0.757350060725644 -0.842504997427433 -0.5205835983607293
Ni 9.3296391442002 6.477369096239397 3.91916078648255 -1.3961249574178407 -0.30554938546658345 -1.091706857342223
Ni 0.11855244504059072 0.8085639930489896 12.992634696428626 0.3139954593514076 0.030216118572064087 -0.44184973469393585
Ni 2.759513754092964 0.83415183955374 1.4804754533808817 1.1549752783835656 0.7578408843191335 -0.8300184349246479
Ni 7.464583766301476 8.499549712723312 7.431169082069448 0.537656494682616 0.06986947129762805 -1.293188785473231
Ni 2.21885571893984 6.488111265217042 8.301539779009206 -0.7523484937459947 1.5422608046783761 -1.9271181811476679
Ni 0.4311710466280156 2.151049280149645 3.703492595172497 -0.9337192529494241 -0.5486919265611712 0.8301678160183187
Ni 8.972083714525162 6.027982133330247 6.229811608692143 -0.6541927739091636 0.9047300648059258 0.9918601229562144
Ni 4.597704368531074 4.271207818726183 0.30707190598835915 -1.2638355291220944 -0.3864578881871925 -0.43034199116465244
Ni 1.8216570152290394 7.19269479896903 12.03024190951811 0.042369466105146386 0.3521033219667226 0.5859011886216168
Ni 7.359600081832126 2.2954520542587002 2.5357394286622155 0.9630177448032252 0.09667913529130447 0.260030575099178
Ni 9.075862407865714 7.906740782437846 12.913353752967005 -0.5416820709022413 -0.6058858592736597 -0.7345847420046704
P 3.5071687149370563 5.948125783252084 12.885368067526114 1.123352509271962 -0.311940633704908 -0.11762925518041031
P 5.475573099417229 3.5203675712548064 10.568838009529973 1.3683269613689661 0.04607365442961098 0.6774658855044914
P 1.0500983931555616 8.985665552519505 1.2670164124736227 -1.8844743783352125 -1.1299142216498799 -0.41040874257583504
P 5.985134890634196 2.5614561811946976 4.351754469923866 1.3005537104787344 0.8186821839762224 -0.36158452198428054
P 3.805539464053523 0.7233729884463633 8.836984592852396 -0.07232641747855287 0.15828019593255324 0.2450335874697135
P 1.711853366244503 3.0476841131889194 10.974664076082298 0.291632261164859 -0.46593582910886205 -2.1853890932432622
P 7.39475032693028 6.63520425207876 11.704340382464414 0.5548857140767088 -0.005975757967460676 -1.4155894939003557
P 3.7765356078138814 4.013694675790776 7.060944431712339 -0.19095531756807113 0.411454153121214 -0.20788783165735167
Ni 2.1518339255358376 5.451753507336364 6.183588522632161 -1.0146717215340912 -1.052539186003826 0.32335864573386247
Ni 3.9159315970777047 3.0482258921460526 9.081950882421912 -0.7390916287360884 -1.5526331490516359 0.5254365555776563
Ni 2.2723890845145216 6.650943864885136 3.2149677072203593 0.24395115303881215 -0.8439232179311982 0.34478647659033523
Ni 3.174768642702711 6.263385090204709 10.208115041159004 2.0182226505646725 0.7477022532232349 1.1631626992903645
Ni 6.868393388042178 2.5791293844170493 12.302824914376677 -1.3354631207614098 2.3981512222737793 -2.606182007266899
Ni 6.175280622555015 4.762872222324743 2.033406650116378 0.8948331174071881 -2.382759570309058 1.2090422354312984
Ni 7.072102275924337 0.8645428367439729 -0.023434742200970245 0.1337151049986794 -1.7316575195100756 2.0044644204383157
Ni 4.845035803478975 8.489489437950335 6.821132515048791 -0.17312394581360507 0.8909042146664269 -1.1507926077607857
Ni 2.7942810175145247 2.0961801492151344 3.517901542898199 -1.2837152987651568 -0.24054906933579862 -0.7192141730858711
Ni 0.9358577613324326 5.786890497405883 10.193691577577802 -0.725688467956305 0.540360009656708 2.3145716004789105
Ni 5.851754515997855 7.2969498841512 4.278051981517418 -2.0428656459243335 0.8180581772389783 -1.6445950813729289
Ni 1.5569326075538574 4.122909840735669 3.930480230280037 1.7041688271715036 1.53984113949329 -0.37047951048106514
Ni 3.976041038270005 8.047098896401407 12.770896712595379 2.645877783194624 0.6626643017152846 -0.8790745690213506
Ni 5.445354911032289 5.7026065055056305 11.201638633766736 0.0403524356751176 1.1031102140831581 0.4168311011624112
Ni 4.992707933363835 2.2036111800080866 2.4174672141166935 -1.256620242320578 0.3670082641030131 -0.7702757676483766
Ni 1.5378675928726633 7.701649424113347 5.248046487657506 -0.409440722235611 0.2781239422657791 2.201859837204776
Ni 1.7147117172942068 4.128533132670053 8.646143889303806 2.5761733767199506 -0.8853681153395462 0.026651798259573454
Ni 4.4094361809272185 1.8512680375413306 7.066194082986632 -0.3210564799632471 0.20292328856322472 -1.0777861334960728
Ni 0.44904227940021596 6.341382577998914 0.9321680598140242 -0.26651618282352163 0.4477043937024999 0.6831187129148945
Ni 8.092402826437562 2.4222003071784086 5.4583688152232925 -0.6887599703610718 1.6735984105838146 -1.144065316339281
Ni 3.840063861046024 8.853013777170343 10.643621253545739 0.46214885126260413 -0.5248824828463993 -2.310607216514524
Ni 2.1417923327958652 4.8758237938705555 1.6425785196601457 -0.545410684706738 1.1693767985208763 -0.3155666604932694
Ni 8.281847982120707 7.026714276739661 9.027510504144859 0.2541018683195688 -0.2936284656592814 0.6271640519261457
Ni 7.154368608260092 2.9285768117680924 9.381849821838156 -0.4098680395810167 -1.3539655504409713 -0.5362418737232765
P 6.235091151219242 2.7680514431760668 0.6354291862805093 -0.10912096059908304 0.9108004393697217 0.9866600668125137
P 1.9661718815361229 1.8686049641695994 5.649728879289411 -0.500484513618009 0.6278875603557316 -0.7480652929896084
P 9.001844193101489 4.34499250807785 4.650053293213264 -1.3774011557560923 0.4596358550327632 -0.1814167819500166
P 4.4341151465262945 6.708577936704327 7.810731946623906 -2.7560657516056404 0.3446476370196258 -1.6572068565996687
P 0.9183424212889698 8.24075685052709 7.640289220811389 -0.8810522615730118 -0.21247056593202762 0.3713840245732056
P 7.749765000116694 6.152170947728325 1.842306266309024 0.3974784076674122 0.5972983747149648 -0.4591267766068286
P 7.513465305658011 1.6342201780938876 7.365081390315676 0.3275081491258618 0.2816504673617988 1.8383840117350532
P 7.636888156702901 7.662538588018217 5.12228184377549 2.0678943067581868 0.15405921587267016 1.37524091487998
Ni 5.918636194154323 3.63929739336209 6.334741115265778 -1.19786025067255 -0.29403701395160975 -0.5764729533291814
Ni 4.323760377568123 1.1268535257549608 12.371483253871881 0.6771658377655692 0.16709393756944127 0.848395651880255
Ni 4.1063855825430995 5.960343832837092 5.342105853327416 0.6813832182810265 1.0928767092806082 -0.5191260399785963
Ni 2.515862679646971 0.3406295077728719 7.138694382569233 -0.7212941955433513 -0.6992919802406472 -0.6393199705623892
Ni 2.134057971131961 2.179483334382646 12.986879696161559 0.106233611748959 0.3527502115221022 0.42933231895321544
Ni 0.42397099110804276 3.7896317129501065 6.576753775417269 0.5344176760303442 -1.2009610010850607 0.39948721056732495
Ni 6.2534182255967545 8.648324082555444 10.919403556556343 -0.24385499378058 0.5800239039052333 -1.7031403859069894
Ni 6.568061025460229 7.98944614254921 12.931755555476537 -1.1545289348747665 0.10802695620395589 3.59457756871328
Ni 6.477677349783973 0.7216439662917876 5.668008314482762 0.3459223899669913 -0.8697962290432183 0.3754594801941598
Ni 7.691794651703421 4.760677083446703 10.761264817680654 -0.2952960831696914 -0.432654441347913 -1.41525447915844
Ni 8.941426498364613 4.285592984139725 2.2008686575630114 0.09461299679089512 0.40797339366146507 0.5035955484431649
Ni 1.8239642463051076 4.759462751301403 12.295742555664633 -2.1630130395409073 -0.052095178033342536 1.9418004657501913
Ni 5.204347344256447 6.643256208303743 1.3400295338622001 -0.15462871522289498 1.9110829820616766 -1.742387247222754
Ni 2.7261383021302463 7.438961358035666 0.7443332953758743 -1.8463014668099171 -0.4863910116394204 1.931276940511048
Ni 7.336677227335481 4.626026330566049 7.740473491001857 1.8258195448064816 0.6862606009779859 0.8064020810572885
Ni 5.917683410471088 0.6990956865568857 8.56046434953811 0.5490979037503382 -0.5715089244556867 0.5479331940182757
Ni 8.384599163646008 0.24147835400755827 4.29434831890733 0.032186097814241345 -1.1147110315468802 -0.9851364310791357
Ni 6.751910912258497 5.268622878808772 13.377283744468587 0.026333238577890137 -0.213481009474413 0.3625949655266658
Ni 5.048679304245617 5.0558158408533735 8.767710680369689 1.0510219780283512 -1.6155241321489018 0.33326047822860666
Ni 1.7071268118943392 9.150506470735593 3.402978082768752 -0.8840658515883549 0.3390310621637968 -0.20009276109296506
Ni 4.445371071411566 1.2301745092869012 4.782653692971665 -1.6094049066250413 -1.693722435027199 0.0645359748998566
Ni 1.9073047955386284 0.9536617387858165 9.876663082099641 -0.2855567443947405 1.0297363291766974 -0.18042999255671505
Ni 6.352900051346251 0.06826134629385773 2.5519124646342974 -0.7899403359568395 -0.3367510078803684 0.08684312303748916
Ni 8.928797444053503 2.664207362719998 11.274699394339477 1.0405681296848788 0.11175119913307852 -0.36185911580190583
P 7.762861105252919 0.6800110557410365 11.44801261452315 0.6938199013824825 0.6974487563843215 1.3642018834569989
P -0.018457848608544804 5.199564743807269 8.521979361548633 -2.2952039945855764 -0.7903702244054065 -2.2943948684207194
P 3.5117738360726904 8.411108968479535 4.755392870411352 0.41564710815663897 0.07611493798670763 1.4120987071382778
P 4.4537406221976275 5.8176784877974645 3.11152902688049 -0.9414438752871914 -0.6301455031519728 0.9401364693296776
P 9.741092239093511 3.703470176732891 0.07677568283570417 -0.19027577500254328 0.5730091631502969 0.16177149691526335
P 2.269446664316297 0.09932116026565546 11.909590538069452 -1.1022581504955082 0.08113501690911834 0.5919409670577934
P 2.9136405263809144 3.072932880794636 1.308926751214492 1.6179216858468008 -2.7941620442567303 0.3051714333018744
P 4.751803117769518 -0.3470066197389921 0.9648831019100295 1.2203100950356338 0.7679530330524709 -1.3245097070736995
