# total energy = -340887.4160675464 ev
CRYSTAL
PRIMVEC
9.16941907116977 0.00000000000000 0.00000000000000

0.00000000000000 9.16941907116977 0.00000000000000

0.00000000000000 0.00000000000000 13.42037166974530

PRIMCOORD
 96 1
Ni 6.598937541268808 2.444732195092747 11.518128271398608 0.9909031583595836 -0.15732888776287743 -0.16819154150899418
Ni 4.737893891626195 0.7144142034543904 5.966844549064609 0.47377023755161624 -0.6655459941384538 -0.29278360116048285
Ni 2.896674526187164 1.8255396586915174 4.980863326394773 0.5150824660368419 0.5597474130443842 -1.2386721424825893
Ni 3.845388478603246 4.562345361988096 4.715784588170286 -0.6084160818946811 -0.748901929958291 0.5096522961602061
Ni 3.725369951341137 2.8116740106611693 2.438011927797277 -0.3250838559550853 -0.4698649889599392 0.2158785631723121
Ni 5.494701070639522 4.348670387521833 2.6565494452391003 -0.25726483942858275 0.8900668063667961 0.18884212787981025
Ni 5.479296446466526 2.999096938099285 0.41366000614069226 0.22072175019722634 -0.2434665000929097 0.40092497145511596
Ni 5.739203632290078 8.000299870053903 12.104961010675481 0.9306095036758488 1.2565827042144229 1.5410770687829203
Ni 2.359062311968758 6.5406292048901875 0.47984120580201073 -0.509188212039594 0.9902269582281655 -0.9155166138984685
Ni 0.934739757630579 0.23129768113178792 -0.09177671627828318 0.12257580055240826 0.5410858320791391 1.7007549163939484
Ni 8.503398390589478 0.21741334665396034 6.66952189600624 -1.2827444502114553 1.5769922946222905 0.8953704779678967
Ni 8.82053192133188 2.69336099536107 1.0996132494935578 -0.038435935378695094 0.03997885438578276 1.073541756397422
Ni 7.009745858053665 0.8123014206546286 4.839533235142856 0.07838085120274887 0.20104689747611829 -0.9047969134881192
Ni 1.0345030379890285 7.675326485937744 2.4311944646588115 1.011172193021265 -0.8674369847824221 -0.04873706019438703
Ni 8.005333881167578 4.070855326097172 3.507682439054574 0.6257921112792836 0.0042852576389152 0.3589884791223301
Ni 8.110800540237697 4.351668787584076 12.406865053150662 -0.5313385228843882 -0.15614618030868593 -0.0362677240827827
Ni 8.674939884058768 7.577552969534973 9.404217715956268 -1.54448403758194 -0.48839827187743623 -0.6174964469293945
Ni 6.930302010532929 0.6919353724067122 0.3345645965476789 -0.4768190516802691 0.14513260280700166 -0.17895237956992407
Ni 2.1229222605835427 6.873955929852538 9.324769283725956 1.2319062845136657 -0.8737223035705017 -0.2806148270084328
Ni -0.03503726751633009 5.347972025391735 1.2529672000776468 0.9861191067073791 -0.2741209917539731 -0.046748311899132394
Ni 6.597552958977068 1.9356735521092874 7.096102530672033 0.5494524588762795 0.8606857821015178 -0.5323746774583864
Ni 3.7180710936972656 4.55435879790793 0.4980269148033814 0.10196198095679859 -0.5467898244424518 -0.9223770884637276
Ni 6.384400641402388 6.052467668150929 4.643824820560264 0.751621385771983 -0.9578400572570277 1.69562710824908
Ni 5.674366669476236 3.111642388753661 9.113734185033149 0.3200010421155392 0.5957868231664448 0.19624510521210073
P 0.5156560400623111 6.2758805657551235 12.537620053296202 -0.08304637499921826 -2.0151614951408456 0.19024749286776912
P 4.410600644464936 6.304727558402888 12.607674415606729 -1.225138883882845 0.007805097866715591 1.4065983461453389
P 2.6968270357999944 8.68070744870449 1.2624758877368116 -0.555845763997133 0.1016897011320184 -0.431113065002722
P 6.800628084905246 8.013485494792455 5.7909173224155905 0.0023906117193636246 0.21699982126094886 -1.451490321562023
P 4.729164604594831 1.5331268819791133 12.484354897450409 0.19844262708405178 -1.6026300497950527 0.5489521222010932
P 4.205691634706639 6.5178707065584165 8.195592909948973 0.16842834011014865 -0.4114649517544914 -0.9058130134574595
P 4.896176405003728 1.389093645961602 3.6136359942815894 -0.0467987055210936 -0.9479467094027157 0.9981405566482875
P 0.6566083512452234 5.629986680787367 3.6137441934275665 -0.4234126110346708 0.2149722493079588 -0.37235590156817167
Ni 0.8462191020926713 0.23141596663883057 4.5611551713823495 0.11437783812264818 0.11607373776783235 0.278539689646959
Ni 2.289402234681705 6.790074083462914 4.758863436281685 -0.23115143017098252 0.04385659217363415 -0.9480176718499673
Ni 6.319068529954415 6.096059086792848 8.974524980430765 -0.18168237690657743 -0.45482634945926187 0.5189216372772741
Ni 9.216183188260809 2.5539766548529093 10.003022048876156 -0.4340495219232266 0.7748888409403558 1.5559748118303591
Ni 2.657728632541867 5.43498064371171 6.779046023050496 0.23877500815451136 0.322452074759193 1.2328858748181153
Ni 1.1340829299644661 -0.1561964705207728 8.936921192494182 -0.9717132156946943 1.2450839595462042 -0.33852506906165564
Ni 1.5676955921768483 1.3135376321607175 11.350386585225323 -0.5886823509111797 0.31889623908713466 1.2789405030843328
Ni 4.501451249409009 6.525224580717192 1.7053670851876783 1.0709135747459557 1.8477903926506176 -1.8127339152671167
Ni 5.741816916747997 8.18388081086792 7.64643089536848 1.4203910290540571 0.35901239038173005 1.332426647927931
Ni 5.74450355655912 3.072397274789124 4.8697831489206616 0.119514130907949 -0.15192417180753834 0.19668347830109997
Ni 0.9388751656674963 7.930529759737042 6.607989591854273 1.4596939404187377 -1.689941370718212 0.44210555945848373
Ni 5.134352067440375 4.802299891739959 6.922858276066478 0.08065884860364818 0.00901737300726189 0.2795539898440863
Ni 0.7369838117516595 8.065292712993305 11.454381552521772 1.09125280052394 -0.4662505321358035 -0.8348238267330913
Ni 5.014773672297495 0.9997784476657336 10.24252177543815 0.14764199949241671 -1.6601602828010376 1.1601318828838407
Ni 8.736283298176232 7.396301061185206 4.542446805489395 -0.5980861607235829 -0.8105603262000364 0.5375839895734676
Ni 7.799407065883566 6.662793376233536 7.154829909505835 -0.12733028451825812 -0.005756957088435246 -0.9700741374293744
Ni 2.7138821554200967 5.249932595833597 2.567410770850443 -1.2771600141451425 0.1994474141994823 0.7246898514884617
Ni 2.62591074808931 5.5414376000500924 11.412053679838806 -1.543703964882806 -0.3306742055586692 1.4814264469998228
Ni 1.5365562447414352 3.358675710089781 3.622064524364814 -1.0974252478832391 0.4932432586745635 0.054674508724744546
Ni 1.3745234389313101 1.1569147836494422 2.397428995578669 -0.1764005596823478 0.2969071364105532 -0.8644197952226532
Ni 1.4160425688451943 3.5791177158891827 8.197821078802567 0.4580571976917337 0.3579093871255385 -0.07592441924245633
Ni 3.650978453772378 2.8502680958660136 7.582321984435196 0.3189890559112571 0.5243348378730454 -0.9576636795801635
Ni 4.454623025806932 7.160115162704237 5.810295972848453 -0.1990262675016637 0.30725428397283217 0.3750943835452572
Ni 8.540497860472776 7.699469566561255 0.3606130824706829 -0.466385515051771 -0.29652018538477964 -0.21243688448061482
P 0.6118955126411878 6.2213408606473966 7.983241999608055 -0.19538455698401833 -0.3544597380140412 -1.580954107483516
P 8.883571677992204 2.2122324031103164 7.972304716445228 -1.0588404456315055 -2.215944597432616 -1.595768032567897
P 2.217220567128239 3.638553890823325 10.344798393585775 -0.9480667799203478 -0.7371383616644596 0.18577737291155746
P 4.455338240500678 6.306809016550072 3.710276170477347 -0.8937658524849382 0.014731906893535917 1.334677905855953
P 7.376641826526334 4.228587674325669 10.214633904033535 0.2650989907610209 0.49570508995149465 -0.13442781479498783
P 6.520933292554715 8.002298803428733 10.091073230153551 0.15977040732483452 0.5069996890287075 -0.9395605422215496
P 2.7475981096368267 8.848370277873078 5.6736899663429226 -0.20207019653431005 -0.6111656196153603 0.06707185394783287
P 7.144343761765217 4.224021303588675 1.2373837722312144 0.6955219716752538 -0.14521693499069185 0.5126206347599107
Ni 2.788970528844301 1.9363520891264312 0.17595198408072493 0.7801169221085145 -0.7634068084426853 0.018512971202522956
Ni 1.7628758482163664 1.1824241077263913 7.029939669849016 -0.7746415008162401 0.9648679106380867 -0.14338990908428206
Ni 7.284113217877703 1.1054009868614119 9.233296075221558 -0.01768430465364051 -0.34042845673195565 -1.002452810870396
Ni 2.709691730868276 1.5135410026734473 9.444546655264405 1.3615593036278293 1.301131180248759 -1.5747392369220556
Ni 6.6281146330059935 2.141050202244265 2.5815160883297996 0.9145861316643991 -0.34111622682759957 -0.6543082164411054
Ni 4.2269646871360145 7.11004096472285 10.58666016252096 0.20193444228739416 0.9732147399408851 -1.6165384323460288
Ni 7.65516293322559 6.577031798918042 11.390930088941586 0.7617199076585656 -0.5193646383519636 0.17556006605892346
Ni 8.279059381651074 4.4266104503018715 8.01060629717917 -1.4352435206858571 -0.8528961108537698 -0.22125551121350928
Ni 3.3774271722527436 8.870972896079289 12.405805068296853 0.15018353496734782 -0.038638024087172165 0.7804329106870366
Ni 0.3640057675564022 5.260422411341875 9.859598579232157 -0.153796963350219 -0.7753390411038971 2.3589095031643375
Ni 8.951590429251302 2.7135520563306756 5.468626910342896 -0.45702130022805165 -0.6001124471249922 1.0263031351254326
Ni 4.220812006885967 3.1446981447915485 11.218451480835103 -1.2502973854263435 0.35866272035179525 0.26504911135969195
Ni 1.1887876846169028 3.701300226070831 12.838625492694627 0.3641139732743536 0.4944213381430646 -2.1273752357326394
Ni 3.4587690895376526 8.609928702281064 7.924259710921867 -1.3955883681880803 -0.28174739795097925 -0.04742322647896994
Ni 5.587908216305297 8.213681423107348 3.650032169716037 0.6656647791045052 0.24888792821879716 -0.2972555208889074
Ni 3.201786948423139 9.010705674515174 3.398695639972544 -0.07284320921397133 -0.08696550754796636 0.5470168528515934
Ni 3.903311699377541 4.846661541590527 9.557344264945423 -0.01661832528297138 -0.3311714569100619 -1.8298276375246099
Ni 5.589393662207693 5.1388725910816175 11.249854907542055 0.8371432188948873 -0.871759523417176 0.14056375248939665
Ni 8.179406134322432 8.705409863896186 2.56945096661145 -0.9282379181198789 1.6457862734675526 0.3425231344774553
Ni 4.810249778143523 0.3564153223835415 1.5718740964837732 -0.282498674294707 -0.011023090583381016 -0.7617201647688817
Ni 6.417676463499889 5.972730399217375 0.12595756004594788 -0.03465127152528226 0.19640579915968112 -0.0499058836915076
Ni 7.944788206516214 0.1296390818349109 11.15046390560112 0.2461209069966213 0.2969372183175402 1.608369266271675
Ni 0.44111324707756705 5.059447082399183 5.9391721590100355 -1.0995014136859773 0.6994346764660986 -0.6091341910076283
Ni 7.258301302968784 6.224210888841532 2.5259154814263503 0.06100302204593365 0.6779675077312582 -0.676057435192739
P 8.661130738817974 1.6979013441152657 3.550064411310529 -0.15217125482133795 0.23901232097629804 -1.1454765948645111
P 1.8396605641834303 3.520130842493419 1.345070347677691 0.39298643333432964 -0.15836529944719177 1.584063342536459
P 4.808149981158037 1.1007062442563083 8.157680112587018 0.7323363122901259 1.2834173079087638 -0.5579047034086907
P 8.43598482099432 1.7330110500428857 12.633924628751048 1.4224898205646148 0.5408726876270684 -1.2303803347874422
P 6.521731032020816 7.924212029942284 1.3038739813179077 -0.5658735805467803 0.10009124629664698 0.21948093581158973
P 1.9138136568542743 3.450039802506288 5.981835632433913 1.116170389701226 0.05350619944825624 0.029336029959955927
P 7.068457648874912 4.351311180237204 6.071899501214865 1.0862810583409614 0.1426563733523672 -0.16945472449213397
P 2.6986334113726613 8.70328255865325 10.340128408412378 -0.278789600874236 0.6756769119248686 0.7574868434138244
