# total energy = -340855.59432748525 ev
CRYSTAL
PRIMVEC
9.44836443370740 0.00000000000000 0.00000000000000

0.00000000000000 9.44836443370740 0.00000000000000

0.00000000000000 0.00000000000000 13.82863640404582

PRIMCOORD
 96 1
Ni 8.189039092383963 5.105886636882021 12.661416680122137 0.7917287953158301 -0.3209695766763956 0.25803154239127823
Ni 8.881727026687564 0.8405850708720284 7.4861318072184035 1.7755837885793808 0.4711510547612143 0.17108428967575698
Ni 3.545744373217821 8.056894268830565 6.212777635809384 0.8740030680357141 0.7517046895144086 0.03305435935180759
Ni 1.9175266445384473 8.702888386603288 1.939410946005227 -0.3189170650227411 -0.036575742241504755 0.4685784089380317
Ni 4.478534141937189 0.20774024174075323 9.938419810753146 0.7436180558515322 -1.0113650257583615 2.1220088292144035
Ni 0.2974571852593631 2.6589492420687333 5.960653702617031 0.12022426960109615 0.47778861468239003 -0.3500109582140682
Ni 1.494863514491426 7.191688650181085 6.000120465270032 -2.206188032266484 -0.765301968582869 -1.3660006272286345
Ni 3.959233141498051 7.08794560981098 2.2069120921486136 -0.2007933867044155 -5.339178535757902 -0.6782007067879868
Ni 7.553598797570568 7.902706411289605 4.886860323946178 1.5588091959553605 2.25097896332893 -0.4995722862163848
Ni 8.135344037882751 7.548704544846368 13.011502199549582 0.3045219726433336 0.6911616378240291 -0.2385515792897956
Ni 2.389689755323081 0.6325935026400324 13.570648842051453 1.084098963087978 -0.12992915559368592 0.8700888205829725
Ni 4.848739953210546 0.08600468117239722 7.77603597003042 0.3340876021155924 -0.5417548331217057 -1.4553850286307386
Ni 7.477870157446124 1.0702067795702612 9.206524943815685 -1.9788636891510758 0.07293859714125503 1.2628294564550833
Ni 4.427021659596768 4.108385020849826 5.534441766926747 2.08423958088543 -1.1885137764606435 -0.21987508592621488
Ni 8.501420913942836 8.5363987587015 10.619812225497325 2.2964283539109807 -0.7066515059295121 -0.10540597364134105
Ni 6.805978073038207 7.564511658374527 2.3546986828543517 -3.4994719485566828 1.0351184194242173 1.9736554054772588
Ni 8.786326892022995 7.392220734772627 1.7139210070295665 2.5955402112823363 2.475365563972253 -0.3714295330991603
Ni 3.3292540012688026 6.604869638222388 12.054477376317525 2.0461972814007274 -2.622012289430936 -0.4194551690488195
Ni 2.448061750168847 7.842775436328988 10.389565035080285 -0.06184402988999028 2.2878041025770797 1.0024854638805445
Ni 3.113793501032019 3.9457314288670053 2.9761024876154845 -1.0818988701128658 0.7178607443817702 1.3950805753137265
Ni 8.645357296183107 1.9420640467097738 11.66863074272826 -0.6401951740784909 -0.036636163165794974 2.110678748913565
Ni 3.052860999452164 1.9890224174419617 10.300840169816581 -2.121699011283469 0.721079508429384 3.0552084622149316
Ni 7.931949098898482 4.100316117709928 10.457712307664385 -0.20426489019278365 -0.7041385096996712 -1.01833245821513
Ni 9.10795866226332 0.1778172718999405 2.7874658937184758 -0.944480091010354 2.89253630786227 -1.703095648711983
P 4.738165745428093 3.698902359046547 11.183770919953703 0.5140311419541922 0.4097937346996556 0.09822154007775988
P 3.6672597868972314 7.977357937880152 4.03021775789118 -0.06662576754934978 1.5259921494253395 1.782874151593207
P 4.701241537616948 0.33856701846977555 0.3194747086632298 -0.46090340889127723 0.06729656836412927 -1.3755291355443602
P 7.544953544206392 9.301073780853901 0.9694541465113707 0.5557043533232623 -0.7229397015665744 -0.0417472591401152
P 9.088570618653169 3.0707750982264552 13.592484956860138 1.2014538815610794 0.4052467387589214 -3.362953055560621
P 4.0699963165671535 7.39627408307124 8.827800487260207 1.3840672549223583 -0.08000913083479125 -0.026679051953083083
P 8.209797148822316 1.9126512885429123 4.020896946477237 0.8829075696141955 -1.3064577346679953 -0.6794489773727912
P 7.177950728441729 5.871931671862626 3.60282950084151 0.6878037770953896 -0.3695706255135506 -0.3745863335605871
Ni 1.6530763752380029 2.619870807189794 12.735150770536006 -0.5398465603553992 0.8796988328689108 -1.4384486578867164
Ni 2.117189479611404 6.309069696066932 0.8188018669036059 -1.8413163548905 -1.9735319925255173 -0.4324143003126489
Ni 6.637286976246962 0.3682188202542474 3.0503619070862356 0.12919664830303557 1.0696763599047447 0.2119450324458608
Ni 4.25512756729683 2.5669788636568387 0.7289035147898135 0.41261603463979907 0.4548453756226553 0.572589559114375
Ni 0.9485023986042024 5.921677310072881 11.831352362934272 -0.48235335123493694 -0.823810249231407 -0.6359065740054661
Ni 0.3684966021656209 9.3119110547432 0.18681400441728244 -1.9647884420049324 -0.5816064179010049 0.1112601184292729
Ni 0.9662653235491748 5.835111396059137 2.781879075888709 0.21535662923057103 1.0876547987600365 0.8158933083771756
Ni 3.2849600692783607 7.88962987505352 0.10340100958127137 2.5986458467908538 3.0069285441626215 -0.283322455747583
Ni 5.940082723792459 5.798933609030255 10.353015927333137 -0.7218282136699503 -0.36755410930415405 0.0506587026971321
Ni 2.134517779797085 3.918775245426576 0.9285266667325741 -1.620245963104603 -0.7022379502428486 0.4883782172727783
Ni 2.800211737202927 2.3692151498147003 5.414920902957913 -0.02732722706004326 -1.3553930269161172 -1.5302432113922098
Ni 2.0853484918111076 7.860897399118592 8.177578226448722 -1.7768462002315721 0.4981314400048002 -1.1672029307980092
Ni 6.866967264804057 2.711501044485721 5.485931029934741 0.8071042493306357 -0.07679319500065483 -0.845072758154609
Ni 7.12290455784098 5.740986790579448 0.9564172934054808 0.5701616663991729 -2.5300966369665456 0.9644897013630616
Ni 5.408650023550479 2.3718134500061194 6.966839310307165 -1.7861893320093691 -0.749728025404012 0.4482273560855055
Ni 2.3649822825937705 5.746013320404302 9.525455426693366 -0.3593296645118328 -1.4463010640515994 -0.21992702221007288
Ni 0.5776011877159775 3.6957466053595147 3.3761509576328295 2.8200368551409625 -1.3731668059597706 0.57271142940422
Ni 4.134358574399681 1.6530858236023354 12.486525566655953 0.8567769339654147 0.48421174459991445 -1.985358038626168
Ni 9.193409669285836 0.37545815700575697 5.249515947281489 0.1480376922689386 -0.9875478687341057 -0.27196357909133806
Ni 3.6419003770289833 1.7484481648095733 2.8025530418845035 -0.09480094443198511 -0.17293265573840538 0.716252776464702
Ni 7.633021748148993 5.739852986859556 8.189125072499387 0.9605883094261263 0.059282182700085 1.1671052288778803
Ni 3.526186259049686 4.269583564725451 12.946189436265211 -0.051772247476285026 0.301675504333474 -0.1986377738139934
Ni 8.014584493349934 3.992245726475569 4.075644548765082 -0.9323727662238589 1.7506178626626625 -0.7093251961069331
Ni 8.478952703560312 7.8726700610768034 7.373497856011478 1.5418651119018543 -0.6549759319320914 -1.0743948484263368
P 1.0548815326230563 9.618907308632586 9.493774116250288 -0.12882152435180397 -0.3108512572954711 -0.2700169968879285
P 1.5600950218425376 3.653559658615205 10.3548139510656 -0.10526507718810259 1.0771420721541707 0.07663790036971317
P 4.190170062511359 2.0751537066964136 8.67972288693303 1.878342811516178 -0.19081493533546492 -1.6571924584219653
P 6.3649945645505985 4.716963615866115 6.8860387882090714 -1.511816629255906 -0.9039152822141142 -0.8039322793605574
P 6.976738361618254 9.31746669297067 7.233496717515665 -1.4922513055294686 0.5351123881045237 -0.27812702758957264
P -0.15369937710497408 5.669547707861929 0.8912150759837995 1.5046270534860022 -2.3345691266467603 -1.9432513392641046
P 1.5446941879806733 1.8020959774891234 2.1663389260322834 -0.45384598782386354 -0.29075680053844116 -0.15097080675533353
P 8.053587341314214 6.206224250308409 10.491841689305998 0.29066424082463493 1.232850907815122 0.6758304067835974
Ni 6.383258252805191 2.275024405784684 11.265719418318186 -0.6315547247946737 -0.43199418205609474 0.19449058441483924
Ni 0.7363516603930698 4.201942724469569 8.256234914679787 -0.4238196166651023 -0.5396832953046576 0.24948828080695742
Ni 5.985548252960123 2.9370335011008777 2.4067223217051565 0.6141635259014198 -0.8499043752152975 0.4053590959670696
Ni 4.362753885407565 9.072206051629397 2.284670240931664 1.6770056364931505 3.485414956242985 0.4639090284868204
Ni 7.00298591773375 3.2293375484533318 13.857675977924243 0.10080112787947801 -1.6508541749087633 0.6063095770746396
Ni 5.376714552106857 -0.08034700061013683 5.19064791330827 0.4208682473462622 -0.2151378283515456 0.5316920495690649
Ni 5.875559843766279 4.818420152067772 12.949936657559453 -2.0453776137129096 1.5181302301787598 -1.30180918015239
Ni 2.2421535462721525 1.6120799223995796 8.08052840737171 -2.372009016660773 -1.2389827317444726 -0.47152360760928475
Ni 5.093622659978525 8.259287681195596 12.176280020272642 0.09810584043550201 1.5980331744529899 -1.500775540950396
Ni 8.829156327541911 2.6467703004442282 1.6604177543243028 -0.6275733715494224 -1.0849132314591572 2.849979408336666
Ni 2.7995409033353242 3.6286348735062486 7.193836263393847 -0.7001239892236394 0.9598534881426307 0.8968722593244038
Ni 5.75082253784951 7.285359734172818 7.049423683591222 0.3968847399474713 -0.25962922589570125 0.9133779702889109
Ni 1.9032312693034774 0.3434546573389427 4.16439681428535 0.7464503830940048 -0.5230194614957315 0.16446729857987158
Ni 3.62114232059063 6.042304577505043 4.89623593587325 -2.3848529625029764 0.29088638413777 -0.4958722116569782
Ni 5.734656386476718 6.7377703309223795 4.796517898708761 -1.8898780658492869 -0.18207061348393158 -0.14670380394886345
Ni 5.089418137850592 4.90356881143165 3.094309084105677 1.534216594217661 1.360107401672651 0.12281388470514333
Ni 5.80128625174903 3.452082737590421 8.963915513506091 0.5513396485966634 1.2600205262513786 1.420615486360037
Ni 3.7944158740831035 5.599866020910241 7.40238622995789 1.1051755812526192 1.7426903802854699 0.2870970922986668
Ni 8.446176327691104 5.966301934814958 5.608272230656806 0.38238988876540597 -1.098208663016483 0.8124369743974589
Ni 6.924715667603882 8.03562600071826 9.17849448135066 -2.080766791845481 -0.6146546066052253 -0.17873435002184704
Ni 7.945762607552498 3.187188395166352 7.565923244005792 0.05743638774059785 0.3307325696004304 1.0891709782942467
Ni 5.94614857369388 7.408065641758116 0.1691380044241683 -1.2558687088665341 0.8064861561306625 0.7772802239906678
Ni -0.0008692495185837611 2.2899528214299267 9.648460847428003 1.5386180657194664 -0.11932721170812352 -1.6338568690198187
Ni 0.885922102284771 0.31993106466048626 11.62957876326945 1.309374394094158 -0.6062596976733108 0.36395147955456025
P 0.4294810697493045 6.183434795538583 7.666070236910975 0.45244293682874975 0.25804388368645237 -0.13843462196153578
P 1.9936710126935184 4.612143461962113 5.064198563774464 -0.15756131548865768 -1.3535981397992236 -0.19125690796888997
P 1.706922603568534 7.762313165673995 12.506341621170362 -2.0259547291016076 2.3007791746805086 0.7217485094719506
P 5.136744994791744 1.9131992936741935 4.381561799447705 -0.5001163316453129 0.5013129230565753 -0.036484210968962975
P 0.3269625373966823 7.968580407415322 3.6369314822265575 1.3320011303547383 -2.292738820874535 2.2044641075968423
P 1.7875454964171777 0.06255195122643405 6.523452137933386 -0.3729860789530028 0.4976969235705428 -0.9597660706351471
P 4.671394154690795 5.375410677828982 1.018755711598002 -0.0024978267211892466 -0.6714415336872823 -1.4492300647729364
P 7.076154051124105 0.10436852208891242 11.630878858201594 -1.7382387722720194 0.8391710479581934 0.13503048137599324
