# total energy = -340897.01231989264 ev
CRYSTAL
PRIMVEC
9.00666359584088 0.00000000000000 0.00000000000000
0.00000000000000 9.00666359584088 0.00000000000000
0.00000000000000 0.00000000000000 13.18216258002812
PRIMCOORD
 96 1
Ni 6.429460630747469 1.8440602689922896 11.47417560172125 0.2102840998036701 1.2448934408019527 -0.4238532981165152
Ni 4.598315916915453 0.3509023038429468 6.0343986567854015 -0.22926938265692126 -0.9069059894113219 0.32449944420652505
Ni 2.7368457677803404 1.4383010810386907 4.71150265450203 0.4364391052013257 0.435011885836496 1.0575263548057723
Ni 3.3033648888271845 4.297952702801124 5.029495511343496 1.3144767483177298 0.9173058445884072 -1.7283341115637978
Ni 5.191467741315802 4.416615491669045 2.8282985261777576 -0.2833466241172991 1.0670738892848914 -0.3544522818148734
Ni 7.415879401115854 6.175409679278974 2.42769295095966 -0.09016087455681247 -0.4166750352005211 0.22194559530199842
Ni 4.958402315316928 4.643583406619451 11.474030594442254 0.17323604591143715 -0.23082695695202826 -0.6158383425006814
Ni 5.7354431841435645 7.950019567629098 12.398838383897553 -1.1434027430546179 0.10273896833213919 -0.3339117386593604
Ni 1.7735110754285386 6.530236186318107 0.4476491789232152 0.5625126344943474 0.48201216584543444 -0.48046281908044347
Ni 2.8960835747772906 1.6765723584201575 0.3042856159778553 -0.24031381339654095 -0.6956530979364794 0.8169649441747994
Ni 0.3356297048992404 0.1443371832471908 4.933819528528609 0.37629945959695194 0.3680225643001404 -0.3129143104720869
Ni 8.536479441203728 2.2607445395186994 1.4471375183941604 0.4861914940341046 0.810779641299694 0.177292732479314
Ni 6.857799523573316 0.8191073903967695 4.937945480982529 -0.06386517408507711 -0.5955343408360066 -0.10923126092470221
Ni 0.9292534784560743 7.610513394849118 2.5857202624102085 -0.5049008975181497 -0.5823728637533842 0.30416176109043747
Ni 7.725681598359865 4.0055693923632285 3.7966075986655556 -0.23861945641325355 -0.7326998662771317 -0.46565429331270125
Ni 7.68920461202855 3.96923651264458 12.617503956625686 0.18822609156236617 -0.477762646540461 -0.01564284874357951
Ni 7.810947679742225 8.613576478980532 7.182551881215192 -0.1025888159075201 0.17571896023429093 -0.7001854385891941
Ni 6.93430212157287 0.6905651925642027 0.5604936633047082 -1.3752643119187475 0.3813781596714399 -0.34223851335750094
Ni 1.6175967271862188 6.508142841263609 9.046522280080074 1.4463092915817155 -0.11815350311499652 0.6171074390210921
Ni 0.21632113827330668 4.665334498468863 1.37301448083627 -0.22467739241086465 0.5637107685675066 0.06657820214086599
Ni 6.229377605722736 2.049430205369239 6.992069058593064 0.9165959630055763 0.12092386677128207 0.42093381047687506
Ni 3.2490817291682124 4.383002624264485 0.24553785332519631 0.21657790323218185 -0.05335141903794682 -0.45628930715803356
Ni 6.028817227543546 5.6520144620727075 4.750455572572228 -0.38660958327370837 0.06455834349735978 0.30657576984856877
Ni 5.367701121944158 2.843277507898155 9.344834676962886 -0.07361454016235709 -0.4133829947128106 0.18563339113452546
P 0.15901804441263365 5.732597078543393 12.381359152447386 -0.5458871101225243 -1.6376734145524312 0.7349331264830247
P 3.8425668001103546 6.288884630090885 12.496188705418366 -0.06812266380985042 -0.10886693560674798 0.14986497528566448
P 2.5053294878676358 8.573325700730003 1.3872116841829496 0.3004390608232116 -0.07436890182987838 0.16073637078252964
P 6.262711266565255 7.674856997404898 5.878743700445882 0.11488408833510537 0.20213601677523899 -0.7195301616643931
P 4.843828551583432 1.122068126204418 12.69111361437595 -0.23530350466614314 -0.2689160505142659 -0.31205684756779806
P 3.882943671646968 5.873335199139227 8.215677406081584 -0.36351387779650945 0.7571667410702443 -0.7147227129734207
P 4.884520656335255 0.9644695319265537 3.925621745654607 -0.8412490135331447 0.026576207826631653 -1.079675637209302
P 0.24423548981321902 5.673549394003121 3.5036865904291457 1.0953092299815008 -0.040690792851142826 -0.3035346690293998
Ni 1.5349695981483213 1.1301831298302245 2.756745990323313 -0.6133037490042856 0.45922756385075103 -0.924695452184259
Ni 1.8774659831411407 6.565389193145545 4.746462018068696 0.4928089993506222 -0.6097499702147564 -0.1593960547045513
Ni 5.780557560571602 5.38655206821365 9.153258445417148 0.2883888145268969 0.5633693260676877 0.24875165975124905
Ni 8.643613701058293 2.29955425164256 9.981572447030675 -0.24929210563575133 0.02758228049364282 0.8159971809448914
Ni 2.2807033053730685 5.132789329970489 6.934529089487819 -0.7059765913496744 0.29499037900381453 0.9104420275890385
Ni 0.5791905956319123 -0.12177909436684223 9.049672810899505 -0.24245194278546633 0.504795225178221 -0.2468868386283684
Ni 1.3996985221705383 0.9864818170114263 11.294700722974218 -0.8168888395212255 0.5440834812548824 0.7645995431992059
Ni 4.089133214383461 6.926547384478731 1.623725761556209 -0.024695960084783274 -0.36126030587564234 -0.6186071634950702
Ni 5.515131193365713 7.6453151418081795 7.969368582378619 -0.14916897765990436 0.5158615102947116 1.0082863868330376
Ni 5.210309680922002 2.896245694716541 4.929957471309136 0.39217370762504716 -0.056962790538288996 -0.29442113676390586
Ni 0.7380609307665623 7.286822922809331 6.848383957768191 -0.0860018580831164 -0.07290003059383575 -0.1889773679060939
Ni 5.057133358320354 4.430341646525569 6.885346403250928 0.08817701135756427 -0.013999913823517824 0.5598412583097713
Ni 8.130657206607086 7.034933570530841 9.129319635054184 -0.811593138339925 0.12289256046187866 0.08163509647398845
Ni 4.7645969346065 0.25970533468301327 10.360955621534583 -1.688631393657537 -0.04460144075945867 1.2912586583300536
Ni 8.107834321825964 7.250634149703351 4.635836775522273 -0.4184149007097633 -0.5554973795187788 0.2777616738303539
Ni 7.2183722817925435 5.992628454437565 6.956741322497767 0.4620994860819074 -0.39113626749946834 0.008292836136411524
Ni 2.468879521526196 4.98356693255389 2.4087240174010467 0.02622216692132258 1.7184266226420988 1.5317786742001296
Ni 2.255781868044982 5.162628405455834 11.11477731239526 -0.007308617846271284 -0.040050845274298766 0.9343854257785135
Ni 1.2373534163379571 3.400339632488732 3.8732885285982843 -0.5770987598386385 -0.28339958884242156 -1.0246362889459708
Ni 3.7594713245812894 2.6385380379516232 2.779920134972813 -0.75559039772206 -0.4927094976582804 -0.39506954111560344
Ni 1.0962550292104556 3.2197110001740348 8.203206780087921 -0.6472279125555562 0.6773694691359431 -0.31760297419700784
Ni 3.5730514077700404 2.4645383098196048 7.05887688422545 0.5945807186734857 0.49420845080131015 0.0632095427789492
Ni 4.201482332283911 6.745864712184283 6.174814338835394 -0.7609652888807281 -0.11011134953681036 -1.2879794733581496
Ni 0.7574603828305178 7.384338066268381 11.262773002271533 -0.40900774846325044 0.5477447321565535 -0.39352713632914804
P 0.14859463298516923 5.406015467586976 7.97433845918297 -0.08714471343830797 -0.42690185513485196 -0.9214715459303228
P 8.444233195770313 1.5598279888333657 7.870291683504794 -0.41687789523994656 0.2185121441404172 0.7304005287199936
P 1.7759789011704596 3.1243664625682817 10.365266210585983 -0.525192043667018 -0.1802351029370896 0.2162367178426792
P 3.960437002608606 6.130862722638311 3.6761759011271495 0.23193433108359413 -0.17220760464692278 1.1118663630092336
P 6.927033744296482 3.9173040921047377 10.476655218179538 -0.3060996015430987 0.11940074525853629 0.5412367558347065
P 6.298701893078819 7.72079098019248 10.111772771575241 -0.1769014105781663 -0.9781062637052316 0.44653325621253426
P 2.2565924677412337 8.524275412443497 5.7153105896876655 1.0109796173944845 -0.5664482221033277 0.4544370844406431
P 6.984595329393626 4.115910024349634 1.6755446981385764 -0.07962706490502415 -0.5838350501212074 -1.4747081544393827
Ni 5.282786300430174 3.1374531443310967 0.4509555250175919 0.3340094405794893 -0.9202477008255506 -0.014567613401529749
Ni 1.5056979424503525 1.139559066316866 7.016575288743404 -0.29873750475107264 -0.8357576514012703 -0.3161384738363394
Ni 6.653492373464785 0.6698003303452281 9.08318210167621 1.1892794509820743 0.6212620846194139 -0.8633787555526486
Ni 2.5884249633967005 1.350828367149868 9.237307726588803 0.997688042491901 0.42479226499101685 -0.27306221147215554
Ni 6.268583611031432 2.127157709576461 2.6120323285505305 0.7765016939534305 -0.2513374182005542 0.32449353066925407
Ni 4.0328866021269025 6.711405218430306 10.216043813169382 -0.009493541312732038 1.2297262461432112 0.5907849990764793
Ni 8.10578980925875 7.5631023192816995 -0.020340648377936282 0.5532672046366794 -0.6528753406493206 0.0860548228082389
Ni 7.416545894199438 3.9051180766710907 8.33065196633156 1.3765948578047131 -0.6487746882173858 -0.9386398301794932
Ni 3.0561229748072014 8.446791088145151 12.19850947696496 1.2512787755030064 -0.5251305943014634 1.6450843623045217
Ni 8.986884659094198 4.97763154144467 10.173807966329365 -0.25633230031198434 -1.2793791332836484 0.6433105797790212
Ni 8.785018314737712 2.4319972353467545 5.81852695101035 -1.138504277311736 -0.00621564189240865 0.20622587057389644
Ni 3.6865353652452426 2.705025226370825 11.441971376455509 -0.18626845361536307 -0.6755511849802817 -0.5801866547353427
Ni 1.1779094386128512 3.1546288512283356 12.557208849219517 -0.8107588153640876 0.37498819698469615 -0.05994115644032257
Ni 3.004550820799026 8.197225454995914 7.932840258066542 0.516616129072549 0.1835600535452645 -0.1133069736559726
Ni 5.746494360002459 7.852378330883965 3.5506419288340045 -0.398447713559217 0.16493986734091592 0.05118706439677636
Ni 3.167580433041775 8.301252416014849 3.5576419075443004 0.7902121015609874 -0.040475591516543195 0.2147598761868366
Ni 3.3394095553204988 3.949340793433253 9.083643242836747 0.0436349630811313 0.514406780126056 0.028630262142182953
Ni 6.989143694355926 6.049766726360001 11.389915564628572 0.6988669768880867 0.015472127493670124 -0.22887060455660585
Ni 0.7015830437689182 0.2403716312610871 0.5031698541184642 -0.3349574063150554 -0.22812755574299423 -0.18638518169888546
Ni 4.602513022009377 0.3108199501959711 1.5862751549230631 0.5427760752973684 0.3540830714009128 0.4063831663562098
Ni 5.749952918706465 5.561902795839421 0.37449075500386386 0.5093604759514002 0.9384053455711839 0.5064682420052696
Ni 7.908048516689856 9.01044609026524 10.956486105710264 0.886845214105705 -0.9003833578014558 0.7295487222426597
Ni 0.18120325743270654 4.8426847053453885 5.563346563965077 -0.19751702994598888 0.798316990056309 1.1983634155612135
Ni 7.889170550430489 8.898376178926831 2.5931156336390093 0.32232223404954813 0.11206075995369733 0.6067173540360196
P 8.443107362858852 1.790308502467527 3.6825030820895566 0.11764493890969416 -0.48889629455977734 -0.4493717541025938
P 1.877456976477849 3.1508640659724123 1.5866318187894137 -0.3123352980401653 -1.2086696825832282 -0.13176826568495373
P 4.635558469626561 0.9743318282309463 8.313159224886453 -0.28846774739394837 -0.020381134759513288 -1.302970290340027
P 8.392453888506429 1.52661141461364 12.447335663057949 1.323242924546134 1.0208490539893966 -0.7648651381557666
P 6.417760975131573 7.678468669384863 1.3318729435861925 -1.1688234971205678 0.3125582126842488 0.24535883201961617
P 1.8296586143888887 3.1279781345482465 5.955595756981152 -0.255447840824502 -0.17446631877411242 0.664630681413036
P 7.0361584767385095 3.9388570373617346 5.948806534191882 -0.7558487935897693 0.341642788755031 0.052885278034805694
P 2.3892606180277203 8.339530735004502 10.22364994031921 0.3228228278350505 0.21508126408199732 -1.8026312796154762
