# total energy = -381174.53597478307 ev
CRYSTAL
PRIMVEC
9.18200884036053 0.00000000000000 0.00000000000000

0.00000000000000 9.18200884036053 0.00000000000000

0.00000000000000 0.00000000000000 13.43879806954158

PRIMCOORD
 96 1
Ni 0.48943320636699267 4.284518130857683 12.366045735251701 -0.4140329695919837 -0.10594899062900463 0.358142329071951
Ni 8.936068699699884 2.080771743462431 4.8980920962758026 0.757746010612482 -0.5474377424390958 0.6661869701565624
Ni 4.782339102268552 0.9855509151444307 7.641649699550615 -0.502807762434547 -0.5985345611149111 1.773473169994281
Ni 1.8995556176759636 4.174067746935641 5.064504987465951 -0.7989003733636048 -1.3502744747426292 -1.3152696765326704
Ni 8.950723185753553 8.745431832878916 0.928597669126204 1.6288067081904207 1.253178049408248 0.1046572684007746
Ni 1.6058139739773982 5.1642923045621005 6.99888612813963 -0.06157046451362945 1.5626419394378894 0.40694752350011204
Ni 1.7153002469748568 7.750212262462234 6.117824636800674 -0.18091567394388197 -0.6235843049946873 -0.11676073653252796
Ni 7.648448058870249 1.8193415887506201 0.11509831677941461 1.489814413953202 0.7209571239189067 1.141375428211944
Ni 1.3234763852153346 5.972804907926592 10.953131075064961 0.04370515419743441 -1.2131210334863622 0.27997565076253716
Ni 6.797780853079447 5.127031712829152 3.639226752422529 1.3485207252763163 0.8575935163294393 -0.36740961330648986
Ni 7.11483561713532 3.9286693795983325 8.418949900382378 -0.630483860327998 -1.5354800343111168 0.5227479530018998
Ni 6.565641306457361 8.86170361038368 13.225335765511801 -0.6565175653875983 -0.8122780802220914 -0.24409513481584416
Ni 5.322599318378703 5.429027982443912 8.344270786365025 -0.8575109839179619 -1.342815704471739 -1.0631136190855628
Ni 6.824693320888533 2.9932614145410468 6.00528810047801 -0.5893762916544107 -0.4237262856203477 1.7452455426071556
Ni 5.929172002082587 6.01417903960443 0.39031893051629124 -1.315374834651967 -0.04547587294461201 0.5994375325451547
Ni 3.752631906778199 4.391194709160641 1.7459819293986245 0.14073473084962212 -1.7970915807441694 -0.7352933380359208
Ni 2.1645943018483584 5.553655387961733 2.9890973735477266 -0.9257665737612507 0.2812411477385221 0.12335433058964562
Ni 0.810334313911514 2.4519544494270615 0.422509216986812 0.1317816354213924 -1.5287573708753026 -0.3086380516942362
Ni 9.214880397080615 3.353012519542759 7.08251494613976 0.12079171206879197 -0.023027828353740985 -0.2943208637406157
Ni 8.349779073447477 2.5295791518692377 11.076056136150232 -0.15338918638883905 -0.11144189542277581 0.12203329778537692
Ni 5.642197498873717 4.153105220832555 10.50242023623276 0.5729667399481359 -0.5534595231531436 -1.2256322785794955
Ni 1.141268602477867 7.954567050438705 12.088252322647508 1.3617894173607645 2.174242075487507 -0.46610166526276503
Ni 6.930580246434213 2.5667295594965203 3.8072786321844694 -0.984075336804473 0.26912945207665256 -1.0484269636076653
Ni 4.881725165579898 1.7256116428634969 5.522486140870391 -1.7052422627413408 1.5011712337269179 -1.5920206497103226
P 4.6479053113463955 4.903862988810095 12.188868775138797 -0.8761566240436073 -0.9139515834041937 0.9167751688959179
Ni 2.3324230587963237 0.5787860886565068 2.4872794737037993 -0.9189804040773528 0.9572934407249384 -0.7128110977730047
P 8.526468468892805 0.6367319098266141 9.910939102201691 0.5281927781665549 0.656810671147985 -0.21618015357313092
Ni 8.705848192918161 1.3847938400188426 2.3834107536935805 1.2340451852335392 0.1719497229998458 0.702298628277455
P 4.469838614580234 6.227624016298402 2.161778179747694 0.7418524793106772 2.277217328200168 0.6283393031811695
P 2.895114922418451 2.3723005230388567 4.405816139982609 1.0826095230266453 -0.6132839515099437 0.550125059463272
P 0.9316157954205905 4.981276505049744 9.061163469465908 -0.8272375297454012 -0.8322069579355345 -0.06057416203863116
Ni 6.976866752823025 8.504642833961997 10.755177983627725 -1.6067242744690846 0.9129750784235373 1.115646398876956
Ni 2.951887282863208 4.228425239064537 8.64910246029894 1.163001491122152 -1.2578322603508079 -0.480377972676121
Ni 4.656609855694063 0.19608363444442492 10.640020901991955 0.9257827717111669 -0.4703025907179901 0.41785928531660943
Ni 2.997953421040686 6.362076171238169 12.651284838796322 0.6220892085063995 0.010242246553298489 0.004548538602630876
Ni 8.934498576194136 6.410851002013286 2.6817121829649846 -1.0420472853335667 -1.219956054130325 -1.1711264342221315
Ni 1.1338679033805885 2.5054947427722625 9.215588329959523 -1.6013725232388678 -0.6534342984765843 -1.4170681353284111
Ni 1.603959208198676 0.6700910660180822 4.812487309980717 0.6795263675779458 -0.11914440627335611 0.6838789881196867
Ni 5.04166657696389 6.172991063905339 4.861162975060734 -0.18813481740014049 1.0764941541575266 -0.2683316387657056
Ni 4.672834465253483 1.9378721404215515 3.112479698671515 -1.1040044437626535 -0.054184456462203455 1.3992331640295192
Ni 3.768783060267173 6.487355499381184 7.0610804647840695 -0.8528806842348021 1.1826927989034923 -0.12635043710349209
Ni 3.3584023587116207 1.6319735170644294 9.520689954952323 -0.12195462202864157 1.4327683196724872 -0.7466074774971593
Ni 6.695658551144044 6.36852194141967 9.75584211866351 0.551658722498979 0.2722366302470666 -0.1367142968363194
Ni 6.382937695244394 0.9668379811987061 2.0628962087197733 -0.2248028622451354 -0.8134967831205409 -1.4757486798887551
Ni 8.8475265887879 3.8142982779163175 2.6817259559781936 -1.0492394322066316 0.3226870735881346 0.3760899146893071
Ni 6.6380414458891766 7.684689447625781 2.5325412679099104 0.6108763705097157 -1.053720607906437 -0.8215199105353336
Ni 6.190225694433369 3.7133788191344435 1.7791354085928481 -0.3963828606103883 -0.818433815410842 -0.36138808970275826
Ni 7.999944537955766 4.829736631722835 0.6968208118519384 1.734635114081161 1.2062754713194386 1.1163897048008837
Ni 4.8016029567426095 4.123548334487468 3.9895763986082313 -1.0975347768779098 -1.252169919858708 -0.32904489748536236
Ni 7.687554234373115 1.6619986858586 8.032167879657987 2.0788842301107873 0.46564760844448194 -2.29524358957426
Ni 2.609637086644887 9.063138519559985 7.865553902474995 1.3390984035211517 0.053501828572882056 -0.28702612985141535
Ni 0.7319566867472819 0.9541392630206212 7.208194609866699 -1.2427200872997177 -0.5298233717914423 0.00523862269112001
Ni 3.759518413382366 5.7756396328448725 10.146910301098336 -0.4051968593575925 1.0806937940611712 0.5358726633093158
Ni 4.974509364560048 7.959975253625177 8.92951641821624 -0.5236874340970336 -0.7502386464918434 -0.7115396872597487
Ni 2.0824979611178756 1.4666881765556028 11.75923064651535 -0.09052160033034087 -1.1186720730771573 0.7726761495597532
Ni 6.473619214208072 0.3794777327195704 6.3276041555794675 1.346349171546294 -1.3407809334298972 -0.7295363809474855
P 6.285388033694159 7.136248061669878 7.339706685586926 -0.06453468934827596 -0.7150271315877169 -1.0595701247086784
Ni 6.75299101412594 3.779021000085369 12.724673880576495 -1.7220883877644018 -0.29980039879794823 -1.7452280591056588
P 7.736999351791038 7.1669251530892435 0.707805248986026 -0.31512417363921214 -2.2558512038195664 -0.522546635624371
Ni 3.1635784958753184 8.099064323011751 3.7532544469752156 -0.2508216549064003 -1.9907522130585458 1.5320846354763227
P 5.618250819908824 1.8137405633792305 0.04865454645976451 -1.3142625754243946 -0.12952574950768014 0.5892917023604044
P 1.1302685559288101 4.492077439907293 1.1267325643377903 0.2421207846982927 0.6557387782400449 -0.36312615543978755
P 7.458297838515975 0.4359461686728637 3.8755744136802006 0.2773811505624836 -1.089673371851962 1.4582404958016628
Ni 3.9160624815083027 9.135648843097465 12.811703714638202 -0.33929408601719635 -0.4557275211172926 0.38531297594947184
Ni 4.27687869953146 8.508150361325718 1.711189461632609 2.408153327791814 0.23200503642052947 0.17714643670943683
Ni 0.2830923498858804 6.199903531714426 5.0064361273778495 -0.5527514413425255 -0.43027539959277517 0.16913513636918615
Ni 3.6753469386618276 1.7961570165165892 1.1466409958299983 0.4195487572038903 0.31543990510741804 -2.23435189629521
Ni 5.291251940316533 6.857463910315565 11.634128531142284 0.1613475220039673 1.6726226769341062 0.01011086318175678
Ni 3.9120499436602745 8.668468235070739 6.000960619727951 0.6499653660913773 0.08529171938996924 -0.34971528135052027
Ni 6.3966923444351185 1.5388771297848898 9.676794204856472 -2.175320910373983 0.7519047213403567 2.080102933009237
Ni 8.69148753114627 0.45418163816069934 12.137478908255858 0.7533761636795605 -0.6095301408944664 -0.8003538179806796
Ni 4.258927872316597 4.282819459228655 6.332737816702655 -0.04302638296285494 -1.0893347575656207 0.48937889062315076
Ni 1.5272618886458607 0.07594347662987909 9.81493201813079 -2.0324791604836867 0.5068155980423594 0.5623905070941863
Ni 7.682081757125003 6.07007910921266 11.910484041167527 0.12336024412691657 0.737663123819678 1.5109679081023655
Ni 7.4826944359123395 8.562131391093587 8.356472757866728 0.21815218969783723 -0.3696747551915827 -0.29047886428670616
Ni 5.380308243721627 8.607316056425732 4.111882592300008 0.2981011567186544 1.7643256991670582 0.623671465391855
Ni 1.751771185950528 7.019921192112281 8.839745754526072 1.677341936786647 0.40730387839826626 -0.10331540966089947
Ni 7.5235727391146785 5.083977273539896 6.575133667160546 0.04107594410470345 2.283262505952984 -0.7469990565086232
Ni 1.7967538470889504 2.965091011525599 2.5842671963151336 1.2523110734222627 -0.42951435305703445 0.6253928189583359
Ni 3.0180803843424666 3.469715851461385 13.06326412808492 -0.1840663037577217 1.4074619796972148 -0.21677382129307182
Ni 0.731010021639429 6.472554101186628 0.21187209858557968 -1.437022209852835 -1.6271367766871654 0.5464661225544459
Ni 2.455856803169423 2.393501781370887 6.796671666415735 0.773923648813609 0.27162599324626124 -0.3806340824165638
Ni 0.8389922815945371 8.225013937797572 3.195182051983164 -1.037829133487161 0.3877951189413773 1.4269720247056845
Ni 2.1234956304346864 3.480789354080886 10.876341935424088 1.165007465808587 2.2044985603792036 -0.017307895150828256
Ni 8.77706385321406 7.384869314097938 10.20510036370267 1.763605533171582 0.09332538832772314 -0.899341803910819
Ni 8.26630543139616 4.642662384318423 10.212935371816453 1.2771116774057103 0.3637095387470833 0.018797335212161176
Ni 7.023327717379142 7.149920072781353 5.240942795870008 0.12212200084444129 -0.127857874886954 0.029925841025154918
Ni 2.392271392190943 7.346102872920878 1.5218362396426572 -0.5483088321901395 0.42734305643732856 -0.738091212496032
P 2.9749341249651557 6.014830962229625 4.936003692433066 -1.0473293596681124 1.1213727598377718 1.4556719637435382
Ni 4.665801046508426 2.2548626304157864 11.678731975317035 -0.4744009291570797 0.6928961040166325 -0.16753333909970503
P 1.8808518657390443 0.307050047261339 0.25462720438777403 -0.12513379108757158 0.1256454406166675 0.37131640456006376
Ni 8.564821719673615 8.67605257434413 5.6503694867106615 1.840889037545094 1.0329982877574209 -0.2932345726549724
P 4.967200485550825 3.0005427475238533 8.100974180843306 0.2430096150611492 1.4808533481051722 0.4634398021598857
P 8.399114006759733 4.178006828713225 4.80203175655383 0.3774909088018918 0.3676052742570637 0.5062155025645153
P 3.0237089557402728 8.035983922517575 10.654278725265224 0.36208742976262803 -2.0516197379678793 0.6606279880115461
Ni 8.995669118856753 6.724499240802299 7.6965608668104855 -1.0734031739370287 0.006243924027182795 -0.7083340358382575
