# total energy = -381175.95675324486 ev
CRYSTAL
PRIMVEC
9.14887165664141 0.00000000000000 0.00000000000000
0.00000000000000 9.14887165664141 0.00000000000000
0.00000000000000 0.00000000000000 13.39029845160869
PRIMCOORD
 96 1
Ni 9.138350526281538 9.221147815426905 6.136237927428729 0.3642530699553791 0.20254353662630276 0.2466233005543366
Ni 7.580288522000343 7.400202130891241 12.285933845170478 2.4923081053638625 -0.3917610455676608 1.093270088064285
Ni 1.3287363855278564 1.7842678577750248 5.327156541207814 1.964073675326095 -1.1083377810306847 -3.1317643443938
Ni 5.181216484052 1.63290892389426 0.3180129515176864 -0.28893208862487657 0.18737119976123862 0.020355166617584297
Ni -0.19884798236328913 6.342775536480049 8.626659619814491 0.6450676716794439 -0.07172529355944422 0.0022021498576413685
Ni 4.761813906261742 6.866456954234822 4.684944171109447 -0.697661900836392 -1.5163158026778403 1.8898436130669256
Ni 0.020788066342110337 1.0949735639860636 2.3595717842593804 0.6371795271806188 0.1300019178131503 -0.6381737727730881
Ni 3.444513610394848 7.315867831295443 0.3531263212127042 0.7508443983966424 0.42212783078497623 0.35044418909674485
Ni -0.1088724884595314 4.278369226370098 9.881624993044586 -0.3109782697916386 0.3177209878321109 -0.21380599691399954
Ni 4.014515765712382 7.652271844762303 6.983630214013866 0.9938496425824175 -1.214334079957857 -0.964658879951074
Ni 8.495102503903475 3.970994582898625 7.441765455155043 -1.0025829086903573 1.4616261244444442 -1.242638069108873
Ni 1.3481777379514917 2.500038986347045 10.072999262092644 0.7307386287857027 -2.2871304735488223 -1.7665394189889254
Ni 8.627889228174837 8.480903454980425 3.8731300169031493 0.9341671391201203 0.3908295348923269 0.932827080152458
Ni 2.307866935684239 5.696307111253458 1.9622545828223732 0.4701141288562678 0.2405729805951986 1.7519484085486279
Ni 8.098123810720432 8.681776082657292 8.135182230544986 -0.011956915251560053 -0.7419167568897095 0.9771827234496977
Ni 3.07456983317032 5.6893173732526785 12.08731549948758 -0.8444873179647843 -1.706715247742441 -0.07419715213870448
Ni 5.1594879136961715 1.5351440806006278 3.0486227180603565 -0.19566609278017916 2.9766466053496283 0.7240586456623659
Ni 1.4562076153248036 7.970433008001995 12.693774993757089 0.5778811465306176 3.649762955636173 -1.5347038182667245
Ni 6.29167908787487 3.1661774857904903 9.609574143317893 -0.369131481093603 -0.5133742250964837 0.8412523559672545
Ni 6.0094180972988696 8.36872913871398 11.012302028952174 -2.3425799127663787 0.7311795729778633 -0.36019175540181186
Ni 7.056780932808417 1.1616596900170655 4.243385770653629 1.0300600310647035 0.5846634595597737 1.5561951553712812
Ni 2.3195134493949627 0.5716635904234785 3.1923277058528323 0.6385751219765649 1.7481596309301572 0.7020417750716426
Ni 5.890555955798695 3.547722032367098 7.344980456023561 0.4032960427904538 0.7649674680615858 -0.2931628388767725
Ni 6.717174814236488 6.1207598662379965 6.77033616319085 -0.17596552902745824 -1.763408843779744 -0.2395882480844261
P 5.244782844823491 0.2123041429019635 7.442743469542848 -0.8801014676239681 -0.2188157914237651 -0.04387356145449863
Ni 4.2506572939036555 9.179703426495578 4.6985220116421145 0.2519511405251532 0.01972421790180474 -0.05575874292785882
P 4.426644990478268 -0.11704243091332267 12.676742539259637 -0.07187210354995364 -0.2539074929205756 0.046596359702300395
Ni 1.1081753858906782 3.4008185990182445 3.5295487135650703 -0.3283998077021957 -0.1850024424187459 -1.2037596468761202
P 1.8247516151748302 4.215049885135284 8.76747173436633 0.6249287348377237 0.33655534692979455 -0.7518463572985955
P 8.09502234320438 2.694919103041567 11.303273660301135 0.5955417970351743 0.20798579068779666 -0.9701384150084066
P 0.8834434156323541 0.3740726630357223 8.324480620597786 0.8286752906331923 2.0851929459376346 -0.49756682575058186
Ni 2.938626748152532 0.9826345680285015 11.287418665595178 1.4312475121525867 -0.2632735075165079 -0.6302329206594566
Ni 3.533184475190083 7.69750386658934 11.158081980852735 0.29661557331206334 0.7666967920478667 0.00021520133459962938
Ni 7.610141290451319 3.011177300961675 2.7735591448733787 -0.2966004038034118 -0.5524387951981131 0.44799389991846067
Ni 4.379290430410156 5.307040916937769 8.394498765712406 0.2655116528184073 -0.3180578023462393 -0.6021526174834727
Ni 8.062543848567246 0.49502532172592106 10.720272788031366 2.1480754443944683 0.22177513116240516 -1.8524978254286157
Ni 3.7501774148530416 8.776393714076226 9.038933396753691 -0.2615392984342205 0.3255952483738651 0.6549522777830076
Ni 1.7559338020310251 7.748710101655263 7.365306504343368 -1.4403517884467 1.0760961473881596 1.4569642001924004
Ni 4.574975647816809 6.54159881688967 2.445644369483645 0.09983902107652483 1.7122084096465287 -1.8089675062461492
Ni 6.0233701266852435 7.696717063620666 0.6798682112468096 -0.1283893219103918 -0.14894657723645316 0.5265148762434997
Ni 8.26455093633848 2.2146490816398052 8.81073583388451 0.5180207227295595 -1.687295962675565 0.5595797771182686
Ni 4.908680744123681 1.9360201931401264 5.918445376376677 1.0581107665543326 0.05172133963369156 -1.727478962652354
Ni 0.9089458955762993 1.1598299156713114 12.048001882781886 -1.7371763924457762 0.09074168676094696 0.6011817689297712
Ni 1.1881914180304973 2.5010362133654804 0.5389206933933848 -1.3643654056180567 -0.18400176906837343 0.5884442667584446
Ni 4.703453253503921 4.469598943244841 3.243318027545957 -0.10739137950248602 -1.9423308843323648 -2.560085212908836
Ni 1.1890605608447304 2.4472042521134 7.323890476914401 0.2225354063671974 0.1581840366743211 3.538633706357809
Ni 5.993453316132167 7.334156425881254 8.586595795627037 -0.38206053045044525 0.931701451188447 0.735837640575165
Ni 7.551222556518042 2.9008144612975273 -0.027876612157561043 0.03264066885315668 0.40554061585025636 0.9899032563401596
Ni 7.026543911744833 5.369628348434282 0.6295393529796751 0.022226672608684304 -0.29374776484596504 -1.7146735833575695
Ni 5.9954386212973105 3.813972497417752 4.805416514033886 0.12943216135260935 -0.9159189915432098 1.6539477262324227
Ni 2.9956699633814106 4.948094083531221 4.505620795902526 -0.8707400810137261 0.20116799643501482 1.0930438309860915
Ni 2.577118230661929 0.623643820037656 0.7100366157724275 0.5368980192500366 0.2642343287678804 -1.0206770471879067
Ni 1.25122714424172 3.9286078601792354 11.75632029898677 -0.29621602388079954 0.9022029275086978 2.0099735231820026
Ni 5.546704760744618 3.909678844572411 11.941548356007441 0.174947372175589 0.9101391516366389 0.6922677264040142
Ni 6.913710876713917 0.500431390030451 1.64490400961785 0.20489301069508584 0.8174398269286889 1.279614389222906
Ni 3.0300239767229407 2.947235836449304 2.066859122620434 0.6578787074011831 -0.12604910381298937 -1.3370404925508588
P 7.794436162555654 7.568614561674433 10.027218307961881 0.4237203720830767 -1.3332476011673298 0.20250985517488995
Ni 3.1536709781372623 0.8651987356308417 6.789136179706299 -1.280248166152163 -0.666466191959878 1.0173734367359704
P 2.8010460150952947 6.990854163130902 3.562328206082079 -0.2563112172660618 1.8170042605076966 1.90394739945816
Ni 0.46367671274729194 6.455032192592053 11.278112433272675 -0.06481468248253999 -1.5144751499246756 -0.8112977185866931
P 5.896036129964228 3.217539251675803 1.5708832331218936 -0.7945593227860897 1.285707132384205 0.020779141528880343
P 1.9371363554910364 4.4636796232363265 0.5262229743210255 -0.22154116077472813 -2.0601002646350652 -3.3804869506793267
P 8.515778954010495 2.4956566767889643 5.4875454114848745 -1.3214367245753305 0.669307518063415 0.030205319938786685
Ni 1.0279397808293687 4.232688909828352 5.608445921606219 -0.6320275506660341 0.172144098398839 1.2413941693994426
Ni 7.001201537056141 1.2338808834439727 6.875663463855483 1.031024708970818 3.014735698911866 -0.14202079665089734
Ni 2.0722651909249636 8.466137176010191 5.250683867088547 -0.21104771744257203 -1.2310362232038865 -1.397122802554736
Ni 6.955603560359953 8.351913512476502 6.022206390201344 -1.3745896544492262 -1.0225709217765098 -0.6068145417355162
Ni 4.466250456192111 9.02003731708509 1.9350458383010123 -0.9452820180863591 -1.9501904895860998 -0.4107231884924604
Ni -0.012103042409989334 6.421712001755873 6.290012163445888 -0.006828592886059207 0.39765170002048283 -0.9910687374031706
Ni 6.688300975060492 5.546476038951398 2.760329876353578 0.17987694826672246 -0.20912813182235596 2.1859215687079643
Ni 3.3874063530638687 3.4115227789409053 6.801374625417873 -0.4829375058731812 0.5345935394865761 0.15012259982242532
Ni 0.641102611957667 6.248139607317656 3.7720743244486785 0.5449491716892872 -0.3694405276935896 0.38041708130975127
Ni 8.254532921795478 7.068884890105578 2.1386988080962515 0.010370544601046656 0.027684353289145872 -1.7258907922296274
Ni 6.324358857690036 0.7288878659695572 9.257463346867082 -1.704883593850341 0.695424269755125 -1.1692793537110635
Ni 6.200894833710289 8.152541299763154 3.5947325948582085 0.5379146334400091 0.7214798291915961 -1.7666031823473254
Ni 4.460989854948068 4.870054207684817 0.6505488220176217 0.04357325660526044 -0.4266737982844458 0.2947237556059892
Ni 7.254982089940482 0.6407183593450587 12.648904352363337 -0.5768534765970517 0.17197183448703285 2.4070366976888673
Ni -0.10227889660460714 4.354002948951837 1.6758088983176338 0.6718817065484944 1.2607491768872867 -0.40924840371914684
Ni 2.436856878188162 5.666207323265807 6.814215981776374 0.11098886704575725 -0.5257638570100881 0.7502484166838563
Ni 1.5975393857908367 7.9912832866718615 2.012561483797359 -1.4464265338858704 -0.6039055956188374 -0.680488474380899
Ni 3.577108208359906 3.6545259609287553 10.450231030536312 -0.5377014889879385 1.5807458481274517 0.37361188546245977
Ni 3.3514055428111598 2.9475468980880826 12.770742621836881 -0.3463710474686357 0.20190898836609744 0.2022234342827227
Ni 7.708903360763387 5.043123414177951 11.758731026687302 0.3047312604406623 -0.7966306034928217 0.2602295784838615
Ni 1.079109420408377 8.140812446206873 9.953075851471931 0.18156102083736475 2.0439974455359313 0.11106805702312485
Ni 8.074958867503188 4.6314516329985045 4.529777476815169 1.260942009624383 0.18429770304223742 0.49592646193368134
Ni 2.539864024982379 6.438591670095453 9.374213013885084 -0.2537758524387178 -1.3276323118630813 -0.06111203681997217
Ni 5.292896761245091 1.8259684151147568 11.239173920307858 -0.5426583187725815 -2.0962345484637765 0.024910390088434518
Ni 6.96276712692358 5.275925604188223 9.43234037041382 -0.7740159514170993 1.0630298011225046 -0.6190712476156822
P 8.625913071881424 8.705974848379887 0.7167454834111342 0.8066275668045335 -0.09520949272431346 -0.6408045255277158
Ni 5.528699781182398 6.33815535625702 12.217308158332978 -0.8892790203581781 -0.4623949058351392 0.2695367148174003
P 3.1449155078928297 2.5026281170462865 4.123248276434464 0.5412691517345388 -0.2435660017852515 1.0888061387556605
Ni 3.789188203904515 2.112675757350939 8.946728322809632 0.611394962017347 -1.1937364583121635 -0.9689636779740152
P 4.913566241626844 5.4387297766016784 10.41846889255554 -0.2597161291825527 0.012202712713778985 0.4864159513400848
P 4.678659811118955 5.238955013532265 6.157327906537889 -0.006440099198388908 -0.6367750926533485 0.15920527884998387
P 7.4366878313455755 6.741940810006267 4.673281189429612 0.8598080074822547 -0.888658870275676 -0.5283897246687094
Ni 0.6605576876888957 6.345858706252644 0.25337251320523746 -1.5181194315454822 -3.0890686052974865 1.5250377559318704
