# total energy = -381170.26428480423 ev
CRYSTAL
PRIMVEC
9.20737010980769 0.00000000000000 0.00000000000000

0.00000000000000 9.20737010980769 0.00000000000000

0.00000000000000 0.00000000000000 13.47591685093386

PRIMCOORD
 96 1
Ni 8.291292066496984 4.316737385421212 8.54893269810268 -0.604908582962055 1.8483298100938554 0.9881577344039627
Ni 3.0996335397099077 1.2727163614320671 1.6646124194415985 -0.05088033178963495 0.5122804778116726 -0.2261645184793524
Ni 0.5682116720067478 6.160946004845342 6.937361175898268 0.6079244869702433 0.2727547075340657 0.32130279164609826
Ni 3.3264294813049156 8.260115911160808 0.4700436121784022 0.7049355516796697 1.7175735306131839 0.4408074094723505
Ni 4.99481416029797 3.358609239987708 2.5268154204158924 -1.3265077113403347 2.608274371019553 -0.2656854593921102
Ni 4.158333789318561 6.026638096431639 0.7057946419836769 0.3059815879079956 -0.11247676444519339 0.006568140135820946
Ni 7.660071598326014 3.8059309041039078 4.407662927887644 1.16173779391838 -1.1072077811912997 0.7317195046417333
Ni 1.9546510244027002 8.975390461453442 7.652555622070574 -0.7180106396960731 -0.13660116829722282 -0.8220904383268228
Ni 5.338755472342526 2.217153147448886 11.403280055477442 0.32953340708600665 1.5285087451996062 -0.2680513885211255
Ni 8.405960654375525 8.56871012919013 4.89873801496826 1.3460622364334947 -0.7271455121178058 -0.19517861162079933
Ni 0.2042249944033055 2.0174729109528275 11.70977683458604 -0.26932022793122007 -0.11292542194683779 -1.3959503795131896
Ni 2.616541242551462 2.5113562459299383 6.108902265795666 -0.8534414418342786 0.8091523901089162 1.0136401949457834
Ni 8.39576809561677 6.434552216295377 4.130314841207657 0.2669041622905597 -0.7433671161829908 -1.3073725331727806
Ni 6.506645924589016 7.034808298643676 7.707173741814874 0.5406628856091075 1.4021403103739853 -0.060409868546625
Ni 3.9925827118342583 4.087658016028398 8.249902175450702 -2.3671874269024133 -2.533952520377526 -0.8580496300302513
Ni 3.199901800670026 1.349782049608026 12.66885794283032 0.09324491279877489 -1.3551827106775243 -0.40263861171211307
Ni 1.7623827208793588 4.5169148199055025 8.113768445535767 -0.15769861239747035 0.6429056310311185 -1.7232458984076129
Ni 2.5433886866902915 3.640842757270582 3.2667509909248325 -0.023615582536410943 0.42367023557143163 0.3983093882091398
Ni 2.9167383390017547 5.30385033209461 10.145870026186799 -0.3252777171334463 0.5279688350812068 0.4490028007989493
Ni 8.069615422706736 5.909409859650717 13.161780028363514 0.16235899398761713 -0.6041984442689078 -0.5470446207657353
Ni 5.748584725197973 7.896544485951241 10.297972098157116 0.5825795804475515 0.6062774382851236 -1.302178647676667
Ni 3.343417079236175 1.667970347336195 4.056210243272725 -0.49243721783350036 -0.47019794681932575 0.981359994755839
Ni 3.968496231515464 3.3675311816654263 13.330606367478733 -0.7736511118785128 0.6752094853701468 0.5317373009847036
Ni 1.3857368300533206 8.844305132593092 1.7366950788910545 -1.5696908758648709 0.42880909945989376 -1.28450539876662
P 7.213035362684541 4.5961994842882 2.4933549165448943 -0.043865076814066394 -1.0323416280100286 -1.3134513923770088
Ni 1.6007565452233519 2.656795864857948 0.296753540013279 0.723850900526934 -1.858281779100245 -0.4399262924189778
P 1.884684218614276 1.224257972319753 10.574578991539832 -0.5686030636628013 -0.07996413652946874 -0.6349578369389517
Ni 7.157008515306917 0.8628419924628732 10.760290726777617 0.7840013447645853 -1.0360543009749255 0.046001663541094966
P 2.455798974430089 5.079033975082378 12.332377362820289 0.6676715251218889 0.45089359006375895 -0.21706307039871645
P 3.6749192342047783 5.4168155564949485 2.7436020299181774 0.13120236587915468 0.29771189170003565 0.4764956069025794
P 5.705402159183009 3.9386091080006302 9.631008619054358 1.1980656818151367 -1.7408201598459505 2.3137732729473313
Ni 8.563305402910645 7.921754265428634 11.588210084989285 -0.28063282473056184 1.0496186699229213 0.054250019592816244
Ni 0.761390584438166 2.345872182180057 4.494083304138487 -0.5338959991989192 -0.26643365041204436 -1.0738752284774409
Ni 7.529621578006184 1.2640982629693793 4.394671328602546 -0.12930540596675794 1.1506406555639537 -0.9192830229194362
Ni 3.486306256631958 1.3347648288893894 8.434172036522614 -0.8110658050815451 1.319631810156108 1.0562156064141486
Ni 8.42936578930304 0.8119123452016429 0.8864754701701671 -0.8274481030943105 2.44448790055679 0.06222249627533155
Ni 0.7007793874616405 4.7580834663084755 4.9719126685177955 1.5343281800948607 -0.0799818771412816 -0.10633182788972009
Ni 3.1744802516791277 6.785822594981278 7.465483037524257 -1.1075263408729827 -1.3876416025371778 -1.4189653523511239
Ni 4.796791250429352 1.7525308348162434 6.648006678539492 0.1956036149733599 -0.11710012214981767 -0.8349143295643686
Ni 3.2478169549433464 2.930954518517129 10.734673060802471 -0.967535944388553 0.562104086202019 -0.8656824639851608
Ni 9.090887712645703 3.4732133762751816 6.699848776182829 1.3375505994180579 -0.1230869358608719 -2.28193118873607
Ni 2.2690366782579097 4.540697457009267 1.051756051039679 0.23644815979354766 2.0319297157381198 0.49173376400857255
Ni 5.036532754458696 5.793166811476108 9.017261897958697 1.1181961618820033 2.3157633067941665 0.9581046237723241
Ni 6.058366693976961 4.4758683637659065 0.33929803527667823 0.15336424668817458 0.04174957313296035 0.42155653166253854
Ni 6.72770567457905 0.283366023811625 6.414994841354569 -0.7432994961698489 -0.6133166045200921 1.1073569051746543
Ni 3.7319773070394757 8.002585767996942 2.8602907148081647 -1.7357795120982493 0.21732866535527734 -0.5636464909884744
Ni 3.7024676857008916 7.189823582530228 12.022943432633063 1.9239492965013836 -1.8336033025169582 -0.8056006682019158
Ni 0.43372237840104005 5.978851845340452 11.16278907151769 0.6127229368001512 -0.017697417279763067 0.27383688485465096
Ni 8.291973411888266 6.913086865228363 9.370923430673187 0.479080079800304 1.2599624193199332 -1.6185634331958574
Ni 7.362240796004899 8.116987342141062 0.186296403242466 -0.9770801364335625 0.5469327777782195 -1.0200291291912627
Ni 1.3896867918487195 7.131614588426475 13.112161510611992 -0.8197139676748464 -1.3704573774484075 1.6917596548738738
Ni 6.130165766425721 5.553931712805149 4.157455406206017 -1.609842251272776 0.14899131443145955 -0.29339269549939145
Ni 0.893647090781906 4.132396627599125 10.039046117678138 -0.9849605676229036 -1.9035838454711536 1.6959724074036404
Ni 6.0424379436132325 3.723313171726026 7.500884455023391 2.4149973472968407 -0.6043005170644109 -0.034142193099347656
Ni 5.795293713981323 1.4339742422819761 8.837883912648778 0.3024414359652211 0.13744037636906653 0.2848198662287159
Ni 1.8008879428568805 6.724473887655542 2.0708572430966994 0.956110990381063 -2.118324952604913 1.470243690910126
P 5.571747974050129 8.576867859145196 1.61178697466598 -0.4319702707966947 0.4791572128951425 -1.2345933444275252
Ni 8.230624704562528 2.0726250581659684 8.066778631962768 -1.8216006216291272 -2.2690553612146664 1.1030634200056226
P 2.9311386659201775 4.860055090746796 6.175096812032634 -0.7511105075738355 -0.46559412949872714 0.015622537028605353
Ni 8.101030969666876 3.364676896918169 0.8128726739085429 0.7751325815200457 -0.051116359059841 -0.7348886463983344
P 0.9193540682475304 0.5146137288753392 5.64626137921983 -0.09895404736841022 0.09996243402826654 2.63959940638508
P 9.034870072638231 6.872961146104011 1.4250918922959133 -1.0766597332011134 0.6293803428511742 -0.03263552664683412
P 7.139496097276967 2.1298488636634096 12.627890670074033 1.1514690650025203 0.018774452394025733 0.11457632728669945
Ni 1.3719533969351116 2.1763737050437104 8.437743575404747 -0.3495018797881335 -0.05148299837064036 0.5730510721318259
Ni 6.905564443813816 2.2293344981605703 2.442765941979305 2.1977589276625245 0.4199521632898961 -0.48230655715740156
Ni 6.733303755631736 6.56580327781847 1.7253350255969686 -0.31910938353920526 -1.1009196341897427 0.904724408378971
Ni 3.8896627282702365 0.4423506049708955 10.581020467698483 0.44943063236498726 -0.6366707058650003 -0.7694203616266169
Ni 1.7045972658026183 9.076864887903529 3.9040271464450647 0.8595377845400035 0.1035691775429184 0.01045384834347232
Ni 4.768856089386836 4.7668212605831455 11.688552004910623 0.8080499010733567 1.0669916139837303 -0.5551495092610569
Ni 5.1893658916191185 5.601239180648407 6.60241730596668 -0.3107527840443939 0.17418838252237742 -0.8090194640754775
Ni 5.489268352224532 1.7539395624495673 0.4610222309030373 0.13479419699547107 -0.04969479612196603 1.0367225306865435
Ni 3.5259071556576207 7.494127166068511 9.520762331060036 1.0200640961942562 1.6117705786437404 1.103757874969486
Ni 8.764072109084692 8.276854910097953 7.20580205269278 0.458475773286391 0.5643944248980924 0.8622428421759926
Ni 5.3307082308292895 0.05374434031683247 12.401226393872207 0.47705019385446873 -1.860345860718125 0.45834798945927513
Ni 7.787704163379197 3.2397328839495 10.718043629570142 -1.1017819821900379 0.0963214948415696 -0.3534667779731525
Ni 9.194037880463537 0.24877209267486136 9.43850552759213 0.7292134503904281 -0.2655093388255621 0.4514533192219709
Ni 5.731210417720311 7.911920794105823 3.698505754324295 1.6565368271158374 0.2513423032965607 1.4454813963637814
Ni 0.38918172528859085 4.45784033300742 2.600838072756468 -1.2062345907791743 0.05423099342942273 -0.19735427911587947
Ni 0.5044027553762784 4.063470254637927 12.667725436301568 -1.0798548430996435 2.5846762719846392 -1.711317008180511
Ni 0.9089920938779696 0.4952368183895202 13.047395948222684 1.6479503709984071 -2.2921896332392846 -0.5024007568041153
Ni 4.464745860621753 8.696121717359654 7.617396358406451 1.1966590312755971 -0.3783866811432838 0.18255552354015012
Ni 3.850043414504269 6.367071400448112 4.89949301932076 0.10620790071734612 0.3632912202627421 -1.5034278909715786
Ni 7.715711736157235 5.42608737823846 6.2963799746286915 -0.6772676534507561 -0.3581076191792736 0.1412335248629116
Ni 7.259026176596 5.488900057418435 10.605438413342764 -1.5911372186641048 -0.34625071984068756 1.2306886100564804
Ni 1.9497434961114473 8.298750036320465 11.355817903815623 -1.1097349184885275 1.9218754446914903 -2.0453135932441935
Ni 1.3986179408965904 7.160774329699267 9.330913724412758 -1.3850357894832146 -0.3788759620748765 -1.103797212847854
Ni 4.3356769458247895 8.980454515037286 5.282290354145646 -0.6795641627944167 -0.13586737545499183 -0.2773407842428514
Ni 7.701495556641861 8.67636270101251 2.5219235446538986 0.693944856996121 -0.40158137409219224 0.7736711664831708
P 0.922219401838971 1.7819575898234554 1.9528086296351959 -0.7667183893144214 -0.16225486430958508 2.7321717185968626
Ni 5.068896660544537 1.1621818827519736 2.8337836168762927 0.7566810596830774 -3.195243081673736 0.6990618665077123
P 6.685941043567563 2.4845535914161725 5.904661618863102 0.40329141480476355 -0.09137494946957166 -0.03667472971321426
Ni 4.660430098471652 3.662360381316845 5.1188678205728975 -0.20816962456382856 0.09023646498975427 -0.14799809728025481
P 6.155099324798541 6.864297010790561 12.048035357772504 0.2184982601833463 -0.7853825413828281 1.3801748618464875
P 6.731333378419113 7.241090219539037 5.4971093486463545 -0.041118881527496924 0.0926756705588662 0.676225585339487
P 7.108936835741005 8.876024522768263 8.661820580593739 0.5817740538271207 0.7686282047426246 0.5118431331639378
Ni 1.6025151529224688 6.937707373015999 4.763237752119815 -0.5145700451767977 -0.008309291196643755 0.28375491529931135
