# total energy = -340868.57958245056 ev
CRYSTAL
PRIMVEC
9.24088588599008 0.00000000000000 0.00000000000000
0.00000000000000 9.24088588599008 0.00000000000000
0.00000000000000 0.00000000000000 13.52497057720385
PRIMCOORD
 96 1
Ni 2.62236003122445 5.395318774924374 1.7539588968790105 -0.4127859845587601 0.04558334505675375 -0.876512207610813
Ni 7.998882844856862 3.268519715285014 9.003031664444583 -0.3946136845251075 -0.04488117678340658 0.5732963553734127
Ni 6.864869087794049 3.587191654888419 6.90432120064743 -1.632933842984917 -0.019752757146895013 -0.834441246582692
Ni 8.964961988075608 3.733659691504744 0.5463516510585477 0.011967456774521325 -0.045726812613153506 -0.2083280045185638
Ni 4.651760156735352 2.6028063173140317 7.07918555459614 -0.13526008088829605 0.09513673050484905 -0.04219308842828217
Ni 5.723444140487307 7.843700653128285 13.003338957852886 -0.7678257634459873 1.0491327314254382 0.747658544469493
Ni 3.463982927304478 7.666950234430464 0.9317270751230017 -0.16452360573910374 0.9646323975885128 -0.11619200851325151
Ni 2.260579360339332 2.4774444633874024 1.3505119969529233 -1.1257081539883322 0.6709602231754896 1.7498295624334124
Ni 4.461111446108766 2.586865789669668 0.5429232825043107 1.0182357847362657 -0.3910992436139458 0.8833929938910462
Ni 7.459797302138467 8.489370570252529 11.671156257469583 2.1186707659801063 -0.09456723115462423 -1.1301016550703376
Ni 8.845033774876448 2.181763847134244 2.6440640992118802 -1.6397477805829568 -1.4122036081472582 -2.246018791110177
Ni 6.2241522853465465 6.694097522073565 10.55051775821109 -0.46059564784287127 1.114326651624268 1.103861490426886
Ni 3.3890208633908108 2.3422225845352456 4.62153599223308 0.6414634992679533 1.0426838904763012 -0.07948436867957279
Ni 6.350410505175497 0.8789191103250426 6.286771298376403 0.3146135525513808 -0.4702784223482739 -0.2733949122212259
Ni 6.364013088765353 5.540567014642696 4.994419587155708 0.4012093354647542 0.7193273016249676 0.30230465327704065
Ni 3.9635914067783973 0.3908626619283514 8.366898341250185 1.2702674007903672 0.775354981943497 0.891733909656574
Ni 2.9658991939530632 3.114936196763668 9.132411455426151 0.3938582944163217 -1.3600168988413737 -0.3181483051775166
Ni 7.334934456033749 5.73761041809821 12.803980712556841 -2.4366642907473133 0.5381177505897506 -0.6495997552218425
Ni 7.9526322124742315 5.870069272158678 7.138330918732362 0.2762400949795049 0.14186241669616215 -0.5096006169866644
Ni 6.700214988334763 3.139045667270419 12.93948813477376 -1.2919911656207037 0.2013006653581372 -0.5791062771869704
Ni 4.085598819235517 3.7155937601744657 2.5528648752263803 0.9946783091312997 -0.0005964959334183276 0.5267850991857508
Ni 7.479729892358115 0.8835460217404238 4.1279156066220875 0.3202980045306677 -0.0016725026064164743 -0.5623210873088316
Ni 8.852103052353513 8.124226217012309 7.508468122457365 -1.2013546369790535 0.27640027470645295 -0.07423649001707215
Ni 4.7941067583781205 5.7935454985801424 13.323178021306425 -2.4303607171267885 -1.0368698548976851 -3.3415298526898387
P 5.064975596819617 0.8268698222340993 4.350076661202323 -0.13539300692173456 0.5816480697722176 -0.47646681054717294
P 4.328403088137343 1.5872976770693734 10.587535821799817 -1.4605388049175363 1.3434605371445896 -1.7687585381274311
P 1.289066576393117 3.0907527991721904 3.1057526046633965 0.6999157298675752 -0.39471935686503634 1.4938747000655046
P 5.2929482443479925 6.74088412582047 1.5213020444445904 2.919254954804037 0.8756136070559437 -0.06697723735149756
P 4.278400656204792 7.487945039648456 11.411260970667321 -0.4608008218751418 0.8423458461417492 -0.041826192007166675
P 0.644547149524945 2.5486824504079233 9.955175552192198 0.33432928581275323 -2.563954980276888 2.176167574644994
P -0.22074442681914536 7.604546534034879 9.974720025217026 0.6182189269177158 2.5329112235972056 -0.24716426065947114
P 2.935422753274158 4.010331806097349 13.521845972448826 -0.4632320570244538 1.3443961615849813 -0.6907883136450103
Ni 2.1405125338563087 1.99954282416659 12.69924359118062 -0.1748797521624472 -0.17000776878212656 -2.3329228492925886
Ni 5.924932409912061 3.0093221153448684 4.592877233749912 -0.385952923526316 -0.8658940657753346 -0.2304592891999644
Ni 5.799727651040477 1.8288174628740594 2.356157840006376 0.13358320740650542 -0.4724630887044186 0.7197160524229541
Ni 6.352868580742686 8.413789367004268 8.300219807180232 0.4659720816634362 -0.8491487279961957 0.036460299709563014
Ni 4.679418127309022 0.9122934927252646 12.524311778767098 -0.5366061990412306 -0.8530673463243115 -0.6833835365405069
Ni 0.44506784862765997 0.35738570569806993 11.575684047986835 -2.031607813622327 1.7630162363270154 -1.1694282205841022
Ni 4.140397270789763 5.545205939209345 10.65686464185725 -0.1761521911169676 -0.5601161092377127 -1.2933224828376175
Ni 1.3947268622398719 0.6005568377578562 3.084937509869815 -2.0038697242771097 -0.13068223170962653 -0.12948615451899637
Ni 0.8015303898551955 7.152611783324594 1.434525508302912 -0.7350110309088116 0.45574037663309896 -1.3421451607672756
Ni 2.308095994047921 6.124433888934764 13.079809134294994 0.5857271249375977 -1.058931462683415 -0.4515741610705513
Ni 2.5644011967981037 8.683669430687535 12.35200345377284 1.8249551399236568 -0.3575108661355391 0.39762727454045066
Ni 9.031200655991432 4.277652144471927 11.561928989784727 -0.3364172786900335 -0.8463408262337554 0.022578399521148214
Ni 4.364100629175127 6.30499155249605 3.232481185568925 0.7650052632780567 -0.8330014288123718 0.0813011101733374
Ni 4.328421569908525 5.457731716205552 7.093576385726903 0.7820277659779822 -1.0242789056065522 -0.19176315818134715
Ni 2.194054224970188 0.20961193194774555 10.300279196851355 1.9320639551887178 2.076773354415372 -1.0930654282526466
Ni 8.262525310766248 3.1483419981749 4.659067849060664 -0.23258507729371555 1.4687807332113543 1.1619154571468246
Ni 2.333489947651812 4.619962269416944 3.8235762805702223 0.5516859761924886 0.8606780687920338 1.8873213608657045
Ni 7.8446894278865145 8.223556496229273 0.40614154216440396 -2.807239703376294 -1.5341392040125064 -0.5358695779855223
Ni 3.5206110742057297 0.5911764147944978 2.306900223452454 2.2818723104736764 -0.014316930843304373 1.1710989234183056
Ni 3.2865764057297016 6.3410956924998345 5.094464186828851 -1.918016733067032 -0.4524185113487176 1.4798922697434835
Ni 2.209246240881686 7.162527253563668 9.835926544083971 -0.7174277706094097 -1.0908733056973343 0.37660567798346106
Ni 2.1722364940899896 4.4245175391686615 11.195226623233875 0.21419371927072142 -0.46143794123850856 1.428316711659037
Ni 7.604851483259379 6.813674581620267 2.1158061021403842 -0.950876224344685 -0.7238056491112953 0.9107377044525863
Ni 1.3157080495517837 6.463879339346592 7.2521157911906675 0.8381737170419307 -0.6586405252678721 0.6980308541400365
P 7.1208693413197315 3.488877873086458 2.7020321745238176 0.06453931733396627 1.2786173154169593 -0.01863201327889049
P 8.444653924877992 8.937923156836531 2.343295451352353 0.5370489430056041 0.4662065662717455 0.8516378129666364
P 2.942233285954677 7.8041311810279 6.570971038371383 -0.013052462308583972 1.0395078067411647 0.9241413794530019
P 6.3459563983206655 1.3290426474595034 8.39014748530842 -0.2999392383686576 1.654252144846719 0.6227890627869016
P 6.0773238541921755 0.74971766843538 0.5216433711655047 1.0287968480815637 -0.527001328961615 0.5267339342328412
P 6.8862524970514745 4.472662553097435 10.904548098351091 -1.5762628726554337 -0.7967786990349116 -0.26573173924901333
P 2.7492835948159478 1.5729927861746056 7.042857785161055 -0.9906090241579328 0.7065262932055574 -0.9981804087472874
P 6.120700571156026 7.246998188750409 6.591881314286551 -0.14824183785994471 -1.8576006938728202 1.1155396980957626
Ni 4.338170704206962 3.562869644013077 11.99283425715572 1.0856966465924012 -0.4821625753803696 -1.8832024536013245
Ni 8.136904712043073 5.769565400471665 9.71033366801757 1.7864289588240008 -0.8800886121081616 -0.8942445918935695
Ni 1.1598420322894771 7.84621417400902 5.10506717895589 -2.2712315429303787 -0.6725013424103644 0.2577898586941173
Ni 8.146228765604327 0.47974519589620396 9.422819222361122 1.323786969975062 -0.7208290829814747 -0.31451662196220026
Ni 0.9849305498242529 2.1112281674186346 5.400087995977856 1.1338030151813248 0.11347718068524974 -0.27584105976887335
Ni 6.158190843998451 5.462204304831564 8.596782003918765 -0.511123481389094 0.3388348869925907 -0.8667877812341976
Ni 2.835695115976784 0.1162586575309985 4.907373217154774 0.9685376461801901 -0.12456866261272094 0.7994449330131651
Ni 7.10503970430246 1.8234207856889533 10.893118971052221 -0.19958985331461754 1.317446372469015 1.1068169735107842
Ni 5.934894084579089 8.549972297957883 2.8386475789230876 -0.018142475236981658 -0.03466309859982417 -0.6903656242852949
Ni 4.151855968922524 7.253679349032653 8.461505603841623 0.13603346871921085 0.6607668275822556 0.675445769750669
Ni 5.727584057232046 -0.0484665967473377 10.434852365535027 -1.6475495360155623 -0.41057894960511226 -0.6387568989700677
Ni 0.6187207224753989 5.048055535302615 5.3863190764473625 -1.3645160722633078 0.5765948236190263 -0.4874166246904574
Ni 1.620102820917194 9.02159013497686 8.15815412845943 0.8310671879041364 -0.9380752159252748 -1.1524779658830087
Ni 7.541782439101246 8.008687424468846 5.193926610709766 0.8253914776755978 -0.763278253284621 -0.13441084551412336
Ni 4.922028337613439 7.9954359945314435 5.026933643107414 0.03197115358995784 0.4296231107207569 -0.10699260140217058
Ni 5.320680142006389 3.484978219367083 9.35927889303785 0.7705112806979504 -1.335177728310507 1.1214943730173008
Ni -0.0552697367193843 5.107345057254056 2.44812775385016 0.9274886986586801 -1.2750154569983139 0.6229626122502884
Ni 0.8974627954403726 7.320056630232343 11.920313635215177 -2.8697637900524446 -0.2727307962746658 -1.263390728275192
Ni 2.4661705829664613 4.083778364774103 6.392820625506536 0.413965606689158 -0.767659155961136 0.8722364630535946
Ni 0.6734119797567905 1.877073367429924 7.894267703170442 -0.437633382619743 1.025700725654743 -0.7822766487639947
Ni 0.16704471656166098 0.296488269653806 0.25396633460711704 2.6071587693578713 2.8286189403830186 1.3356269000327836
Ni 1.007783259890636 4.420229768254467 9.257233641634269 -2.778780419594337 1.8689803964646714 -1.8989106083652008
Ni 2.3598264715859774 7.580732771867038 3.0126867217885276 0.3747287726757224 0.017524124926692402 1.44091563136997
Ni 6.002213936109053 4.543429254952818 1.057002064725076 1.207461778318056 -0.7022474633245455 3.0134974556293908
P 0.03521331863281823 5.819050342811124 13.22049607288563 2.4206239494549986 -0.12681092167967836 1.710505825133125
P 8.926104064165724 0.5113333151116982 5.998987018860698 -0.5870705263393696 -0.9331687797625928 -0.1991190843257861
P 8.889796624678938 3.8336275918274825 6.996818769058456 1.6883511434129568 0.032305911221557265 -0.4713305177618721
P 8.45975353193358 2.094003156677131 12.77509185602246 1.5688501251311302 -1.6645005620476043 -0.8413181762081833
P 2.2677502875578974 0.39364694075690027 0.6735191740296453 0.20354241020446234 -0.7708668642651563 0.5511696986777024
P 2.7821257022061316 5.265410405287006 8.721996003675939 1.9765779784406927 0.9485128663188309 -0.5297115288039265
P 8.518497841635156 6.341067969843061 4.077278325849439 0.2511512703316771 -0.013699351863963505 1.334978210705191
P 4.467589306908011 4.408466120897207 5.176655395540307 -1.5375171193458037 -0.22026075140040774 -0.4040090096970784
