# total energy = -340894.15141050494 ev
CRYSTAL
PRIMVEC
9.04322756270889 0.00000000000000 0.00000000000000
0.00000000000000 9.04322756270889 0.00000000000000
0.00000000000000 0.00000000000000 13.23567764147724
PRIMCOORD
 96 1
Ni 6.305761021239719 1.993353382026679 11.325570595951662 0.1227066697033177 -0.21041754005774085 1.088007297003449
Ni 4.715174897594368 0.6127464751397196 5.96022382695346 -0.8483812537025519 -1.2754646287205904 1.483548121328516
Ni 2.847585677907918 1.693190580818878 4.793697240414545 -0.6707735610859803 -0.4366550778668738 0.21176916898962886
Ni 3.3171642997299315 4.364288634348288 4.602282865021528 0.6122046024028359 -0.36243272891718875 1.2028479336951283
Ni 5.216278209854149 4.25897120897874 2.925044537195255 -0.2671239916108496 1.1724582656596776 0.20748339713008138
Ni 7.1044588581484005 6.105155109598581 2.387980831497211 -0.019236479632108807 -0.5992375007192067 1.4892125187031449
Ni 5.128314737711817 4.240116080016391 11.476139426508116 -0.9087823804984283 0.8099972546077145 0.32559242016038764
Ni 5.7798250067590216 7.628975085939847 12.321912687554159 -0.9967611598022574 0.757506126687534 0.20414404834420324
Ni 1.8172184435136534 6.550642573839925 0.3735422606510541 0.16208311461841118 0.13830658102410376 0.696448340144265
Ni 2.593778459942802 1.5125973312370575 0.3475719204332739 0.2592818698586115 -0.6713759705566695 0.29839323403777646
Ni 0.39512392265040386 9.199856017254762 5.201356884776032 0.3117442014233857 0.455286576925132 -2.3210898612134025
Ni 8.545225834782133 2.280557238484818 1.4658384200558976 0.1069010701296288 0.6368272860475226 -0.03131320829098478
Ni 6.810174154698646 0.8164496921379819 4.859783337024161 -0.008139341277682757 0.0003247303292704085 -1.3371016848060973
Ni 0.7645216722206695 7.654504116664408 2.8838815750797555 0.37383762832002065 -0.8214494623087143 -0.6894431124710255
Ni 7.611241317165187 3.867978232568144 3.9044450467363307 0.21068364923493393 -0.5254090447738307 -0.25049486769460083
Ni 7.769497795266432 3.7965909961035025 12.496570867045817 0.23433702698781578 -0.5960313350770832 0.4076008408133948
Ni 7.661738698520463 8.931561549122891 6.819841364703802 0.37293568533104154 0.440026565442268 1.5504860208016458
Ni 6.747432243551993 0.8432357314600325 0.35703113621006827 -0.0069800308622589465 -0.6339435367418244 -0.717028735398778
Ni 1.9871949442217105 6.622020767077246 9.192667555858037 -0.09982847955356355 -1.577157359445245 -0.6617073371186539
Ni 0.21117834870103305 4.865174909152388 1.344705294426277 -0.5791119336139252 -1.035427466024204 0.6355057390226218
Ni 6.344954368444907 2.1250137285795945 7.128762531571092 -0.9175272165705941 -0.6885234288702335 0.5348020559529564
Ni 3.3462021026546798 4.029436013140694 0.4162868832248343 -0.3424442016104038 0.5728474407614521 -0.4289790493788547
Ni 6.034672195865946 5.696989044507171 4.959276019676851 -0.7417005271138453 -0.45937051718651856 -0.6735783775246271
Ni 5.40825688263194 2.9314706545288978 9.28912894871304 -0.8213450755203662 -0.3469168926697767 -0.6339113979523083
P 0.20054713066355742 5.582266662724748 12.474308250029265 0.3550017265604402 -0.2261030691137977 -1.1656983212280247
P 3.9831075595799694 5.891129048614458 12.757750123922255 -0.5195201900932214 0.35338707377515266 -0.9888125943791422
P 2.376044675757449 8.581299268561898 1.4792721342398634 -0.2141772642104892 -1.1429358307205284 -0.9368212889135156
P 6.317887989075934 7.780141673822155 5.691036792285099 -1.3090342371459198 -0.49377342014642056 0.5260842164639843
P 4.620953512146547 0.9539700499943036 12.556700189819702 0.5166894055126456 0.49725417960616947 1.2160104392190154
P 3.975927237087833 6.248119490301585 8.131788472485853 0.2786867567477846 0.984429120599466 0.028965019773782377
P 4.764053541259352 1.138243893095393 3.8589811257074054 -0.7241157241525465 -0.6037220188531216 -0.10774439196653057
P 0.1411358401388861 5.5692715450658055 3.5461162074058326 0.2030731838775277 0.24882442197071342 -0.34991377051457156
Ni 1.4611594542404929 1.032112577267038 2.7301756489659708 -0.42793492438505654 0.8651312194673809 0.08134121938265346
Ni 1.8316876072257673 6.3790654218962155 4.820022979466005 0.26680466059821795 1.0591389507085307 -0.9829659057903781
Ni 5.951592066476453 5.7143701274163465 9.142371838471998 0.5640480973022672 0.29789444002448695 1.36822308880125
Ni 8.44321823061173 2.1608610816763565 10.2020337034469 0.9253042894128515 1.4455593007895684 0.02005434754771385
Ni 2.3271660320924648 5.460816119816192 6.890361355668449 -0.29474226754875044 -0.7832685803636187 0.6782220469442255
Ni 0.7813547355542498 -0.21855671787147907 9.14932065434474 -0.41531389318693634 1.899166947350381 -1.226103047568327
Ni 1.3708356997676225 0.9354043043061975 11.359771177353439 0.20668764070166337 0.0664730440215694 0.05024269820563606
Ni 4.213863591106224 6.80055216083009 1.5494747079255755 0.1599349579271568 0.5767210647842455 -0.1923149169197591
Ni 5.73130809218684 7.828839452940738 7.906993736408989 -0.9840763652457374 0.44437404377768636 0.3626661850842335
Ni 5.193163720824047 2.900479514503014 5.185116152831916 0.07987543347040436 0.6929778650971613 -1.0430510440077325
Ni 0.583166078575767 7.745686977732684 6.883438765154935 1.1150954114694924 -2.277514290615297 1.270147330272735
Ni 5.168982130970178 4.5783960843782925 7.312831093412015 0.101105032273142 0.20274382556256698 -1.1513870468116751
Ni 8.251890670200986 7.2400801382675075 9.274874109488412 -1.091422750442901 -0.929614229642115 -1.049859582289134
Ni 4.675655994205656 0.3196663295689983 10.5253815308579 -0.35818655204632505 -1.0898834309802392 -1.152292846455396
Ni 7.996274806771855 7.211675361255164 4.541385772248169 1.1066269689871653 0.08638546667478027 0.02000009727101072
Ni 7.339908324653773 6.040704028488435 7.092139269570268 -0.004274716115953928 1.1074093556791444 -0.23722591849983657
Ni 2.4370322008040084 5.148571566908776 2.475071632203156 -0.6157794642382879 0.4869335144064518 -0.039981682599260174
Ni 2.2049920309983033 5.3557609480389265 11.325371644950621 0.5085955727609176 -0.3259726863179418 1.058909351196228
Ni 1.2327727482720965 3.3612862058245585 3.8306568334182107 -1.4344549633462909 0.14840484580037022 -0.10653057416408751
Ni 3.6248239363860715 2.638289224812192 2.5977267329907443 -0.5634667708775005 -0.2505709723481749 -0.26433717289433184
Ni 1.0114216731587153 3.258265760194308 8.183327633628403 0.5782624411294364 0.3222461293959741 -0.5664505360961729
Ni 3.6173180577104125 2.964152878063635 7.06917489811368 -0.6700176567565622 -1.248621283275501 0.49746346740349806
Ni 4.135133254057685 7.136589444816614 5.9613361439138295 0.09237665126120866 -0.5330475351556949 -0.488285657558972
Ni 0.7188380007678661 7.479707575794753 11.124030518928361 0.05084793588980275 -1.2581227950080331 1.9203327827947185
P 0.3585006606495798 5.6231239637568295 7.933941649500069 -0.715319208906839 0.47990771790792186 0.36641073972833027
P 8.72647923995832 1.4383433917119535 8.164626239530497 0.18444142770895333 0.03816262711265041 -0.8475132492753017
P 1.874498245358984 3.4358295286239047 10.170572315600372 -0.04732372478662817 -0.1450816949644082 0.8517650825731202
P 4.0223642093763985 6.160752871162377 3.66918096639102 0.7206542479665072 0.0829180769514701 0.5931043912382753
P 6.896880618243489 4.000045524350463 10.359459108957433 1.7101157887835583 0.17224488564276141 -0.18976001170838933
P 6.3607076704364705 7.671586773072021 10.270515350973604 -0.5490426250323706 0.3647636910432105 -1.5169128128318907
P 2.393299153484145 8.456737855455238 5.690759165206373 -0.050790857399622205 0.664024929508237 0.1779203387609839
P 6.869723806601315 4.057352455877753 1.6407868871445297 1.1725814215011032 -1.5288620147739669 -0.7091416193412174
Ni 5.2833608701144374 2.767471727079408 0.5170808862888832 0.12529808457957778 0.19086841428121967 -0.3706792851966971
Ni 1.7669019267047779 1.1202297842738114 7.051876108573115 -0.9841473276929887 0.9854030544769609 -0.411138164542692
Ni 6.79921376318672 0.8081217840989283 9.041913339141525 -0.2778848296717795 -1.2731709475904072 1.0280602270258554
Ni 2.792033132480721 1.6261169637859103 9.254015001351936 0.1224575298069891 -0.3796897162254235 -0.07499805077344504
Ni 6.2027677052914285 1.8766143605518808 2.579488352131625 1.9186931903087665 1.1286476962326304 0.15146085901787465
Ni 4.099086949959881 6.679996897426222 10.627481375946969 0.5929141296043401 0.49927378113935955 -0.5123948919023498
Ni 8.170022333272383 6.9397545589679455 0.5509269731797134 0.40185031148286277 0.8825414445240284 -1.0063107511639058
Ni 7.777130279124571 3.9187921268796235 8.19167995838122 -0.3372598291959869 -0.2927890004771216 0.9746668990063795
Ni 3.2673542036509797 8.1240284791225 12.56352963509182 -0.011921948248566563 0.9508381720178979 -0.13767074721231773
Ni 0.15970882040884818 4.967390507551151 10.183278954307806 -0.6457608410917265 -0.8799736837968521 -0.6259659178529864
Ni 8.405137200366912 2.187592861634487 6.043303956342955 1.5588148523823155 1.3580484622610933 -0.19113066680367083
Ni 3.479978564400492 2.49314542632505 11.437094388230976 0.38171703106809746 0.35101394555728577 0.11635501645367703
Ni 1.2825104985324878 3.2231870814197525 12.349866207523231 -1.092060898247532 0.40143687809452794 0.2719131854693769
Ni 3.011991550586811 8.42278053686837 7.974628033535801 1.6095830840741185 -0.3459918097523461 -0.23282753232182485
Ni 5.839835863255014 7.950018699029692 3.4443600049549277 -1.2276701349451309 0.013081772884622632 0.15922841877843544
Ni 3.204829329960008 8.241436699418983 3.535262525976283 0.22129459198156082 0.09496369526209451 0.8910319984935429
Ni 3.6163504323871645 4.449521051839958 9.295230414185893 -0.6077401388735791 -0.03749388318039994 0.26821593912344777
Ni 7.272852794075445 5.979716503441874 11.363874993911288 0.4637588760622013 -0.2004249476214032 0.10497377119992889
Ni 0.46739649106968034 -0.137815167066956 0.23293635363312418 0.29526163038733017 0.31168917981573413 0.339981341892208
Ni 4.501365874065926 0.4089058010861923 1.734495521603303 -0.10102892761956796 -0.5809682700963736 -1.054112701138533
Ni 6.030394749343553 5.432574120895611 0.19893924484604877 -0.35127105587341445 0.1818605543556545 0.6141750958656454
Ni 7.933650457580363 8.920510725337765 11.179475449950449 -0.34292396946029974 0.1970478036190542 0.44374206662064225
Ni 9.019850577448747 5.00139304227462 5.711750304461723 0.3471043260902345 -1.1025713108605528 0.24079769501149498
Ni 7.8573346622262825 8.904305261980198 2.3686174731594742 0.23476434433322146 0.17097733178424745 -0.008761805353030071
P 8.541454808989663 1.552559352764452 3.7167637155810387 -0.19949446538733384 0.6712630991278891 -0.43134163607376036
P 1.692919283999276 3.149376260033332 1.6228261333641365 -0.09008991210956097 -0.318892896653025 -0.4984901088957996
P 4.693109422933394 1.0475041501657993 8.250141710037285 -0.08628750764433527 -0.10444078151459432 -0.40028322410605904
P 8.555128168697612 1.6132484513094492 12.421074388086936 -0.2482212411690757 0.2930494532273598 0.4869304290826582
P 6.256855247892775 7.839401942450582 1.1256240693702337 0.28376314282942744 0.02447433099228043 1.9100486272598909
P 1.805055302768158 3.4250500016583802 5.988468538842239 -0.1522368179519507 -0.557633194914859 0.026034733500864844
P 6.885495195047518 3.9429827599608136 6.16881852560915 0.8988561225236521 1.0771076193718094 -1.5993608921254778
P 2.4953610170184675 8.3936432584431 10.281500159199295 1.8534735590783242 0.7963020165088093 1.1618987449762763
