# total energy = -340867.11730962165 ev
CRYSTAL
PRIMVEC
9.26412731413095 0.00000000000000 0.00000000000000
0.00000000000000 9.26412731413095 0.00000000000000
0.00000000000000 0.00000000000000 13.55898675656866
PRIMCOORD
 96 1
Ni 6.304951797979953 5.065291164512923 12.760497539697711 -0.09530410932064877 -0.23119436759377604 0.1890429310367067
Ni 8.349248186715748 7.456816299356926 1.7780305546026676 1.902204962845756 2.022170065248195 -0.6688640027680932
Ni 6.169853033152547 1.022759626753456 7.804904756455739 -1.0774385203486672 0.5083819140882148 -0.7296507950381627
Ni 6.2832366841655505 0.6531524553337827 10.413315148997325 -0.611472866443134 0.3440416280045107 0.6479182537543615
Ni 4.2035605942108125 6.177125372889879 8.806927561211687 -0.5114708374261836 -1.5551016651967864 0.0972918291746389
Ni 3.6513074522721616 7.92682252131082 3.2974502232568685 -1.178315238661087 -0.8530223520189889 -0.2737762068200446
Ni 7.386659065177542 8.194268605230615 6.628880338134833 -2.5630214127190247 -0.6308127044223265 0.2972763468245138
Ni 7.257952548017345 2.34435219988541 13.226967644355119 0.21698593730387788 1.2034374876500111 -0.27453159692883045
Ni 8.85464337401564 7.5778243269353105 8.799050273977732 -0.9174590823368198 -0.3662104507920661 0.3615037893450161
Ni 3.739891035161804 2.1257836503021292 6.573491048892113 -0.3135545151592471 -0.6109424478609606 1.6283549653649825
Ni 7.262000971539911 6.443922967915901 10.598910817570273 -0.0704723949889496 2.681610717819859 0.35396942864118397
Ni 6.838899024860046 1.3401856761291844 3.5600613592672206 -0.39153118894504185 0.9161683885498545 0.7420298854288059
Ni 8.264824196873318 9.164954573813953 12.599023805147775 -0.202693946161238 0.319618719075456 -0.19257331278746834
Ni 1.9129681236193357 7.927109709249491 9.297518673479404 -0.47182005580378095 0.025644697151297767 -2.3387656812266107
Ni 0.2410979801657248 8.63997502192206 6.570305115598268 1.8525824147226222 0.4825215013816851 0.443107775470753
Ni 5.994307089607699 5.405201250248529 5.597393903696578 -2.5919247260169365 0.21926522025635786 -0.9925409510733227
Ni 4.897582672455696 2.3637420178092783 4.663247505039338 -0.16773774180102724 2.037681787730549 -1.9089391962457962
Ni 3.9990642536224446 6.510698795720601 13.294260410449429 2.405153878843858 -0.031121403995152855 -2.2908871123777774
Ni 5.113900039164874 2.7757640685326472 9.152939927437716 -0.5306111578000604 -0.2877282981247626 -2.262403146005471
Ni 1.1891248203878633 3.147709505620732 0.6285867696248866 2.4016440659183864 2.388139346563732 -1.8906146869049953
Ni 2.394795371694039 7.050399045501182 11.22871211425193 1.2279925512815562 -2.3622887040492153 1.2749745764580493
Ni 1.250101304656806 7.433127926480036 13.271861604058447 0.025630813194226824 0.8673570234741061 0.7852735266087896
Ni 6.743589685729253 3.10393650529093 6.1883618325935865 -0.541503636342848 0.3914152321924678 -0.7265443881986972
Ni 8.455350233864365 4.51034216160158 10.344163999015997 0.28179444913883084 0.981825621538348 -0.6146425224203672
P 1.574206789638415 3.748034202842206 2.583990153627437 0.9328867297457998 -0.05762536382295237 1.0392666372646358
P 4.616101436049202 4.144270181065685 0.31663211368720695 -0.4207170664803786 -0.33519626179873885 0.32124777003844673
P 8.169672347902441 0.5856929349525027 8.047841665841668 2.496638100197784 -0.04580060327388241 -0.20431296982189975
P 9.065874734972212 4.742973656052721 7.368359635007923 -0.7892767342309117 0.6627015827111232 -0.1888200163926232
P 6.273713161554114 8.350026373388278 8.876865235579892 -0.115251241866537 -1.9949955617159318 -0.6734799042735499
P 0.9795332099198363 1.0569071990742283 5.36154868357043 0.3883728458217182 -0.9459523046805063 1.7617949623254046
P 2.7416720809741992 6.662371083847481 1.2287910331946592 -1.2616382643604596 0.8452627626782282 2.0094086518174685
P 3.6650646809472422 4.317537149355267 4.70662214790582 0.3672304074161482 0.6327919396358844 -0.043169850519254684
Ni 5.558216836798229 0.40340733897592324 5.372598934320353 0.6697037250605693 -1.9604373641250883 1.2475766440610707
Ni 0.6281309745738334 2.723922013538876 7.131132207125328 0.12771003645518006 0.16140742870762526 -1.5059159475007549
Ni 0.7136694389008504 5.6616508153553164 1.0320978668238137 0.08348063432315947 -1.042195637985973 1.3481386593465492
Ni 9.147917844161782 2.596447625276851 11.76460388140064 0.3705782408424585 -0.4678824113122716 0.6013152091838418
Ni 0.5358241390212177 5.0345713192021035 12.118561162988115 -0.27321262100709076 0.7296816482760982 0.3464934319791129
Ni 7.602735564583317 3.289459913672857 8.349216688683764 -1.0469187544932548 0.08729100920818514 -0.6801323765930609
Ni 4.163585885973121 8.782605522044308 1.188942317084901 -0.5722383464225436 0.2535375111756666 -1.139987289615166
Ni -0.018512505091860792 1.4637969234097223 0.519045878513852 0.03539072079446808 -3.0670522489273955 -0.6095730783172598
Ni 5.0258167191361425 2.72596012149074 11.406781606006266 0.8637721343363254 -0.7431465155317524 2.025871425359182
Ni 4.86182314202754 7.328674893947018 7.011392438540626 1.0358563260315063 1.4614178650883798 0.40005259615249167
Ni 1.10891600835497 0.9004916778957376 8.685777792489377 1.5630337755596695 -2.0304305054847744 -0.9372936005642438
Ni 2.963436754391085 1.2362884912194019 10.575859816634692 0.19318497822953826 1.7442052742680991 -1.023261005864999
Ni 2.7474343680017412 8.765911565093134 7.038334372838854 -0.2937086840779135 -0.783729064939805 -0.5098237887410639
Ni 2.717437124601128 4.5614152940498744 12.798448962586825 0.06536284167652613 -0.04415175481654977 0.057308089692849694
Ni 8.023132386163436 8.545703265021308 3.9548308261780627 1.3378668451068958 -0.021274593108060135 0.7810566603139645
Ni 0.2210920977927711 2.6788427712944713 9.454152828056369 0.8697815737551987 0.7304843466830516 0.7338779457456329
Ni 1.4303719529991565 8.200067948766373 4.440744480696253 -0.5654141244118586 0.30410725370341823 0.11006301279737818
Ni 1.8696305372610686 2.905684186336909 4.732764588039295 2.74582299083171 0.779511941534664 0.22757605411489837
Ni 8.939363815923794 3.009794446168932 4.445815663845573 -1.2305376863009132 1.345244882738522 1.533358874203056
Ni 3.253579949593001 2.2052328039166005 12.96850591085222 0.20789785895968066 -0.4989590781124181 0.21862810089299123
Ni 0.9688424072996055 5.186364040980685 5.371961562379043 2.855674144728598 -0.7996292811098293 0.900146044979669
Ni 2.317615929207779 5.8516024764690195 3.145563007382337 -1.235104479735989 -0.7528434311045422 0.4002310307118849
Ni 2.7605616360371545 3.297760571513175 8.635691289572325 -0.5565641302203963 -2.9805171440486284 3.2279781100129115
Ni 4.793805921197614 5.64858839620928 2.9750993639392727 0.6911570098383387 1.4431002977261147 0.44289231702583726
P 7.026386428177405 3.7913439968193106 3.8341970693326575 -0.6099487164891237 0.5464720360917169 0.7225758904692524
P 4.306346083874124 0.7749016130764812 3.0722087229566437 2.144685959096945 0.7808620278046552 -0.5066713591550113
P 9.369738102340992 6.644732185936806 4.01626681114888 0.1544417960230695 0.39313787131052935 -1.6343777745202948
P 8.239885166844148 0.7130709762931668 2.1461702882969993 -0.36383475147103794 -1.556422698001055 -0.04863678717109688
P 2.345158178939102 0.2071458809257906 13.585154926355418 -0.8648147166682268 0.4322577201301266 -0.03350533084629714
P 6.446757790794402 6.719095333798672 1.1959978762491712 -0.9071407311299474 -0.3950276321340745 0.34025233616540757
P 5.623380706495547 1.0301431360154354 12.934540841834412 -1.0462227568674949 0.6426238381246416 -0.18025361487985084
P -0.002266931890095749 7.367547171065293 11.391880257640025 0.04819635719956861 -0.195771765120108 -1.7644370279339419
Ni 8.770775231796446 3.2262415106568643 2.1712955272799523 -1.6861621061814378 0.0010299839264111294 -0.09606001365006683
Ni 6.6505407935996175 4.418682888530033 1.733530320299133 -1.318358599870639 -0.17544745174045914 -0.35412703726497075
Ni 3.99216247896727 8.933721962547954 12.208525100808794 -0.40821044937293566 0.14261780680494793 0.5407942689806493
Ni 6.889481158574483 5.854122319027687 7.939261464706125 0.8650355744297812 0.5273381434757435 0.45168677538901564
Ni 1.4161700462254876 9.05808360411986 11.50984409306849 -0.30157060332449354 1.6223277853342963 0.711576196924639
Ni 5.889344530086715 1.8218369057898633 1.6091399599333602 -1.5650191814208145 -0.05211420419673606 -1.3759837065832756
Ni 3.1949102329604857 0.3683453973149286 4.803271079808611 -0.6836005376473194 1.3300576334751224 1.0364314818086862
Ni 8.70663041607506 0.22048622388344435 10.281644111179872 -0.4247125607930169 0.47782820967107387 -0.4445190539959828
Ni 7.288857675869243 6.2623923982942165 3.3207041085749283 -1.4462874372048447 -1.3939886278011284 0.3026887760893368
Ni 6.014725225634552 8.273384250271144 13.265881610045136 1.0527289334171288 -1.4590557926141063 -0.17034509751688728
Ni 1.5755686163153422 8.647080607372422 2.0640169359954865 -0.032800848580104805 -0.5230487720717701 -1.3758443527919337
Ni 4.1166167618097145 8.372408504350563 9.987997223126161 0.6777682472362586 1.7846530978705006 -1.7861957597672722
Ni 3.8519313877519883 4.762882265091609 10.706283902950688 -0.6565170511669661 -0.12948615451899637 0.4135570583968297
Ni 3.9632769308131275 3.5717286008789353 2.5942409102126063 -0.5145165662310429 -0.6055726989086151 -0.8587152886387082
Ni 2.858724326300557 1.5922625732665172 1.7778267438074813 -1.1967667604980552 0.338535610584617 -0.11722070688808199
Ni 8.00752233207757 1.1965917067933278 5.501030306907048 0.462146794380075 -1.1164853498384835 2.193126828207152
Ni 3.018623159251324 4.438971326778132 6.964383478630888 1.3236033932093463 1.8944312324376085 -3.5371272970156116
Ni 8.125500990109321 5.7837334816719554 5.396720868343366 -0.7634638869328658 -0.3252507205502528 2.5426186806929563
Ni 0.7414043824748949 1.2878433582745012 3.3065624186271103 0.25740470744055666 -0.3998764755859436 -1.5848763253560578
Ni 5.885249785928879 8.272161385500027 2.877148822185405 0.9885143464124331 0.08409384242712614 -0.040150861187272784
Ni 8.029867406531642 6.820435619641571 13.04241604290115 -0.119210226514285 -1.0893355288965691 0.18656413047891096
Ni 1.8292759998141659 5.372007883014313 9.53785236316318 -1.3183776260340327 0.6804650773421314 -0.7312214819593923
Ni 3.2199511683872486 6.724866884953268 5.268479410361276 -1.3536125379769268 -1.7486712804592528 1.4965041672685517
Ni 6.073561696554037 4.584909120258632 10.291893941352336 0.1138654172626039 0.5262449104115647 -0.6610874441464678
P 4.885854287605425 6.746554206386509 10.926617268737742 0.7889450619231058 -2.020603749202339 1.4860824577145957
P 5.120746229057724 7.526853099884608 4.94031160566652 1.8785341015913777 -0.06210448264022852 -1.0651468474655075
P 8.350508107995081 4.413235581822325 13.840335306055817 0.16087932411829714 -0.6473878351721883 -1.2270217027278547
P 2.0950915973724715 6.28936953627525 7.427870534376933 -0.17017283360508112 2.043278822202352 0.49351913804376946
P 1.9004430238424272 3.5577397690275068 10.72711058698062 -0.26814112002145435 -0.7242373373320753 1.1134460487915276
P 5.332839153830313 4.445141235396047 7.476397884710809 -0.46927183546063056 -1.1537347211082454 0.8532403815670662
P 3.59774226964636 0.7764839259772919 8.493986275742763 -0.1316926752520119 1.4731433810554242 0.17814171074317062
P 7.201700768545906 2.734770306319024 10.472757493826139 0.08520070233805972 -1.017558556163583 0.6561964346027537
