# total energy = -340866.2423922005 ev
CRYSTAL
PRIMVEC
9.23493204591185 0.00000000000000 0.00000000000000
0.00000000000000 9.23493204591185 0.00000000000000
0.00000000000000 0.00000000000000 13.51625653043081
PRIMCOORD
 96 1
Ni 0.1474652382588089 1.972128924700774 12.137071016065427 -0.6717189557183851 -2.77839038324477 0.21115776065787506
Ni 7.32635769423599 5.806906657397986 5.4162478011464605 -1.4665736982577062 -1.1589998261619265 -1.111739350513066
Ni 9.345381602709402 8.18553881087071 11.368996195789622 -3.7550750840121268 1.5359358909016128 -0.9263754109898434
Ni 1.423352336338187 3.5948911437885798 7.344855262667773 0.2101326618274704 0.5241432906875295 0.7603515665561292
Ni 0.8668978256619786 3.890963057878923 12.917472623332115 -0.5431388579534259 2.473739598333056 1.218980834701249
Ni 2.213733210927585 4.368399797946192 2.394026784813604 -0.48192937632364097 -0.3106820787074585 0.3524509351141285
Ni 0.9905110820208332 2.3953289101999653 5.257499323192219 -0.5011100630171499 -0.22155170229768942 -0.04047456307527868
Ni 6.516094011442084 7.130983476690909 11.607882641582348 1.2791071105691842 0.6708476088570253 1.0533166875997988
Ni 5.720680099011788 7.63049170380359 0.713857459064544 -0.079436803271089 -0.24603271815818917 -0.1829617578396333
Ni 0.9550858835663554 1.6640793040422723 1.1399849179500927 0.697897928106598 -0.01384436208226003 -0.5418273382308538
Ni 6.07284498896566 0.12966398368611567 2.6149226599313633 -0.46271886483346114 -0.33918095747809973 0.10736669691213767
Ni 5.130614130490189 7.444832634531218 6.0221544482157565 0.5451162933947709 2.0362026320818614 0.01483012303429704
Ni 1.2875157242248105 -0.08910323964755688 7.306306810272392 -1.2217434850480506 0.3603627337620374 2.5027539832875347
Ni 7.350737914235943 8.423347540120256 4.580726579829877 -0.4945061845473871 0.8215615624065464 0.739822593364842
Ni 4.383037164877982 5.444611047239587 5.279841393739904 0.8121320415625305 -0.19240953351609444 2.079365797732896
Ni 4.126887861037563 0.08091277861802708 12.516120639528337 0.320308546053629 -0.10145855895781881 -0.25818760835316823
Ni 3.559807637811374 9.183234669846076 3.6873965323179485 2.34632549585174 0.543300837452587 0.5356240376336195
Ni 8.446259405961122 7.411965512190371 2.827046273315048 -0.8669322772318617 0.30449291917761107 -1.5805751268775425
Ni 8.18745044175707 0.7938596734053001 8.415802600824815 1.5068335742190178 -0.6181168541222128 0.3156759323776241
Ni 6.560864960896544 5.20711630567186 -0.10307476799525743 -0.07614450567306241 0.11324166763567595 -0.2538866669849692
Ni 1.4544555867017641 9.003541366528237 2.6445095344903975 -0.07513534768225769 1.5014589401706657 -0.7500445282031664
Ni 5.51145348373946 8.713065821119702 9.098967763991691 1.7722243851888446 -0.7713636013959168 0.23046083186186114
Ni 8.770885729233228 7.987477228166544 8.890128092362545 0.35952661101398725 -1.9422439810455128 1.0642253640925026
Ni 5.702284114830005 3.7280311558110526 11.348721826476025 -1.2364553373369287 0.6069109581040645 1.8370190130667268
P 3.7140217642428976 3.366086473061745 1.304244803213415 -2.410183470847965 -0.15220493627275075 -0.07877114466263208
P 0.9714132430208697 1.8876939430872992 9.05436396680314 -0.20441915638246086 -1.0914232646635331 -1.7038019307503882
P 7.654881158735361 3.2980527303573295 12.630063075287211 -0.11551272305803978 0.6884174994199886 -0.25740239344771154
P 5.323771964398911 1.0563561458843436 4.5769688860730655 0.6600865136857793 -0.4588298141917001 0.8320683754751411
P 5.559253490830278 0.7455498980781197 0.5596377916739298 0.4700961311341388 -1.2415584628914489 -0.2373788991379331
P 7.3742038759858985 9.07133500100538 10.688790828270468 0.2780488660534695 -0.02607818514429057 -0.9136690191667686
P 2.0525928856324382 0.8679229030937948 12.755642448630153 -0.10098573308645833 -0.6428256697228026 0.6561547827315408
P 2.373562175904552 1.6940281879285786 3.6500375391407474 -0.8150152766475964 1.0414495038485676 -0.5871286332708147
Ni 6.374282398442356 1.9290664376326745 8.54220665357912 -2.3843587964753774 1.3912915405849395 0.06432025934462471
Ni 7.350617860122307 2.009816681450702 5.092979012851624 0.3038953948029282 -1.1470717072657728 -0.8779551107049267
Ni 2.229820462154827 8.152930266620773 0.6300652287056133 -0.4891883718788994 0.7610177393852184 -1.5745577170388687
Ni 5.129238125649283 2.78264195065377 6.11606539336785 -0.04180279496839897 -0.41675679628105 -0.30233936316971805
Ni 6.387737694101421 0.3340644235902702 6.634589268587313 0.06360086468009692 -0.03917384198598415 0.018610930232967945
Ni 7.357128487054113 9.105356489823496 12.917134624827572 0.960577510792849 -1.2883936780774328 0.6976287336056115
Ni 6.231353358692629 3.782609602856403 4.300899834300866 0.5516073004357532 1.6681736400238174 -0.24270956732222715
Ni 6.370736184624181 4.2964319742872386 9.410166496400187 0.19117129023361915 -0.4261485219085951 -2.032161629243268
Ni 1.3460005474292442 6.622942172578243 2.1363121600300055 0.9647113304555642 -0.47084869302944715 -0.0969295607392137
Ni 0.05091679657944809 3.100674532607707 3.2183829735620275 -0.3542777039102221 1.3847853640353052 -0.22591846390681738
Ni 3.027496932880574 2.0959693603823553 6.789377807777925 -1.0164455256050624 -1.4693026671530955 -1.2176541454700254
Ni 9.057842765619043 4.919919161058774 1.6074479316537444 0.08987599632654199 -0.8592950724015782 -0.9428366418696601
Ni 6.91995604971404 5.470173338512266 2.3916072326772446 -0.2850193838340317 -1.6219971414677548 -0.5384136845636147
Ni 3.012647162516966 3.681477864515687 4.85195745082254 -0.7604909203474709 -1.0822364559579425 -0.376231582473494
Ni 2.539135268472417 0.5683860425852767 10.556439479425267 -0.4604035864367232 0.5834599261699758 -0.18419897268084406
Ni 6.816617162668782 6.453822866192204 9.481100007695504 0.21850365949998496 1.0616241790242298 -0.8014025709601682
Ni 0.649127051471486 5.096417177967527 5.45803956159638 1.1831270582274334 -0.05030389046087465 -0.18401102503975406
Ni 4.167817078855666 5.39193499614878 1.0211913725071382 -0.005823548660312552 1.4698603394287781 -3.6316621322704035
Ni 7.838092971075921 4.896757952058818 11.30710552973065 -0.354297501404564 0.9043297440437136 0.18770775716505095
Ni 3.9082139105152534 1.0633746940661484 8.593905648883567 -1.3100696203889697 0.9203610864749633 -1.6000496906623864
Ni 8.637487139119846 5.257086521739947 7.466271528747085 -0.9919843072389044 -1.501815552179136 1.8973869726318224
Ni 8.559987591301812 7.315386595236011 6.430831579937702 2.012677038156095 2.5493269459510675 -0.29260696637330247
Ni 3.4488591669479502 1.0414047912707358 1.3441849598337932 0.32860498173446634 0.3348450491069072 -0.2994579278568649
Ni 3.8131402874472533 7.555180834826461 2.223897176886656 0.5871484307651565 -1.329161346913098 0.3049909418599521
P 4.948575154490538 1.2530878984066947 10.285424705837148 0.34875728831262515 0.673500215988524 2.5618867848939493
P 4.262733708082758 5.186707106353718 10.026629594030826 0.5483661677906363 -0.249171520897487 -0.5297552375576683
P 2.620301084222262 5.798142707102548 4.142354524846624 -0.8378111914961893 0.31851108783357407 -1.2779318593141604
P 1.7286314774512397 7.851696025644076 9.45455327269101 -0.17557600689852343 0.5842968202489744 1.5941585219889318
P 6.033199426670281 7.018668235918397 3.3842137207276193 -1.4061021232352107 1.7610318589071348 0.5034168567734556
P 6.854563497509619 7.553601661485556 7.595338935837748 -1.192825773572436 -0.14846526672466043 -0.26306293416759857
P 3.469499239561547 8.845707146823994 7.072746149659202 1.031492649746172 0.7173202984972677 -0.9668754279864187
P 8.694217325278828 8.997575600573702 1.0917351696797304 1.0484272207179814 -0.1129570465157216 1.1292223377891777
Ni 2.0701854307460414 7.754110501121535 11.796014825595623 2.9403871087969615 -0.6328181648881295 0.8664571373676561
Ni 6.3316077785106195 1.6474933664968494 11.978836000320275 0.07168878389455395 -1.1817420049544487 -1.0297085612625556
Ni 3.5322967759250634 3.0846242211077377 10.503091125298097 2.3265457421216515 -0.6382768740098557 -1.0696586192929318
Ni 2.9907511391760986 2.9307148474262137 12.74124796040518 0.2511759529220255 -1.5509470195984643 1.2391166862191758
Ni 8.69360781977883 0.9501174902481831 3.0387515442873707 -1.3822201744112905 -1.2989958790733114 0.20883554028260162
Ni 1.4018257102700464 3.1595472229485035 10.610639294266074 -1.3577661551339844 0.9215846744694192 0.6853982529776905
Ni 5.3201888108534625 2.896998111358096 0.19822227051780278 1.9896085863724058 0.19546169007885691 -0.10777241699098858
Ni 0.6389483096215055 5.959440026238603 11.212274785369468 0.7195545871444252 -0.3239368868348357 0.011866926640915047
Ni 4.684095942150133 2.6306811475858787 2.9973374925488137 0.18481732299113332 -1.1227444433743181 1.0410774652211296
Ni 2.552036468222392 7.248978200531592 5.9028732983728025 2.137322062532706 0.22785064793252371 -1.605709460051325
Ni 8.546513825779112 2.567495744085999 7.022276323779753 -0.3676335563918378 1.2855356398033475 0.49640520134231275
Ni 4.116775610696672 3.6995968007429254 8.161886303498028 -0.3901325088253023 0.4065343472220934 0.2308948340754862
Ni 1.1145823909978685 7.525693697531063 4.169305749864755 -0.8248895983385149 -1.8592251168501204 2.223376885340945
Ni 4.560080042764007 5.086231048172092 3.1192136582326717 -0.10023959894905317 0.4093826153041659 0.10256593308938466
Ni 1.4094629988836684 6.747955444600732 7.653066494633092 -3.806999540795559 0.22325891479678323 2.0848029095880674
Ni 7.90072427866671 1.9920579075643725 0.7373668249940445 -1.1303862761902919 -0.5135603729653607 0.8413048064717447
Ni 2.851239024199093 5.107000409831143 11.894724241320436 0.7852668417405703 1.2119267560679452 0.04776184076531129
Ni 8.319075924961364 2.6308843160858784 10.047281672055787 -0.7789915502548198 0.4817311442699059 -0.06337177938842634
Ni 3.6872958715611306 7.080394520191005 8.374672061493076 -0.0700731026680019 -0.17805557878726752 0.49465890807516744
Ni 8.774238009483222 6.629729847464595 13.3872702277994 0.10549750491388284 0.8534093030447626 0.00011338564941270796
Ni 1.9287524499508573 0.16747087105649794 5.2524579739126835 -0.28386238741145303 1.341080209837871 -0.8031231531957007
Ni 4.17624857160565 7.4824465118266 10.77701120843621 -0.07070019472903953 -0.4315583800702567 -0.8936997751336931
Ni 2.038675843382465 5.018908395217675 9.264541780052738 1.0635008272216524 0.5375279395245517 0.16887931160463818
Ni 5.358181320353389 5.589267019239311 7.433576176138057 1.1816065078178488 0.09631532419398252 0.08398662742530051
P 1.7854632478602221 5.944895008624995 0.19744099528598608 -0.5703473000474177 -0.41718437073677184 -1.1536043661779682
P 8.775272321846856 5.342149478717057 3.698818295990654 -0.45136075950816457 0.23810703555320928 -0.3161842394726103
P 6.6316137735555 3.781538350765496 7.290060718217878 0.755522263488286 0.11590404495918749 -0.4113780484676399
P 8.81906436852859 0.5836024397420658 5.911672341409149 0.24442140780701127 -0.5630384250908304 -0.2404331125832246
P 2.751972742085646 5.399008953921493 7.021911543972936 2.248898426650817 -3.3269537546478767 -0.0601869539025415
P 4.733373538331858 6.442039093192227 12.508997736616987 0.11603260011725178 -0.5813840174775535 1.810195208005663
P 9.125285472687095 4.719668899513702 9.601907691768002 -0.2749730553416232 -0.36947549469658303 -0.9635106252792437
P 6.884918718395925 3.0754631687441187 2.3578969610614 0.6935625339560377 0.6587796219488977 0.4926344214459709
