# total energy = -340861.29613596125 ev
CRYSTAL
PRIMVEC
9.38288675073618 0.00000000000000 0.00000000000000

0.00000000000000 9.38288675073618 0.00000000000000

0.00000000000000 0.00000000000000 13.73280319643021

PRIMCOORD
 96 1
Ni 5.889506552480084 4.8294186425924135 6.364412912663173 0.6911410689987387 -0.911023096903489 -0.7542791351098043
Ni 8.230405396411678 1.6063408014166922 2.898788391410224 -0.20437339074618996 0.3578409957814482 -0.37429297068988443
Ni 1.8034001855915613 0.6258103869303508 5.525105262539957 -0.2523211222700622 0.2684740778808409 0.9420601687149519
Ni 6.736218238411908 6.728214636150163 7.525205467749969 0.49381147247320767 1.4692144783146632 0.36992620908075646
Ni 7.630688817089665 -0.020291430540737617 5.438615690525525 -1.039130625907404 1.6502052284708548 -0.24011609556343808
Ni 2.8502676082731377 0.991883707260915 11.471559368604108 0.40699611734986035 -0.0788603619423287 -0.9442016405379868
Ni 1.2255551149121355 0.9116590886229973 3.1968451668458435 -1.6660329395317306 -0.11870680451530523 0.5179654440115918
Ni 4.606331131015341 4.2912913308508145 8.196409321716773 -0.15018044964355426 -0.525223925346218 0.09957702566438979
Ni 2.217147952688743 5.322676990657972 3.680830408093955 -1.5702804298197537 0.47935261673540025 0.004678122201959685
Ni 7.8415410445526526 8.718080926955855 12.700632127699041 0.06867442254826238 0.4365380926730353 -0.2834684944071441
Ni 5.679601996562744 6.781068436314769 5.165621543461941 1.491638354535818 -0.09796391554099904 -1.2313244438682667
Ni 8.815841222342865 3.8462141054277637 8.145955663942033 -0.042968276031409874 0.01293959087980352 0.7300868541343167
Ni 3.0913421134443073 8.333861103959155 10.078147227452892 0.07817079207447182 0.38407293289478367 -0.11940228792043307
Ni 6.439812851016226 3.8358272499720174 12.703364424274213 0.37965629188432676 -1.70802368214122 -0.7173691494573323
Ni 4.3903933790202725 7.149506244066154 3.360471449521241 0.29338806751370117 1.2449152951788236 -0.2061299684259805
Ni 0.43170755032016633 7.978868972692038 12.28881254379622 2.288709645110484 -0.3643075773423984 -0.9635553624742502
Ni 3.6442193229062623 0.25505969763439423 4.016034969830247 1.071087895540291 0.3320150358572798 -0.584522305996219
Ni 5.186296734064233 1.5789990698918104 11.765317843692593 0.11625937141607719 1.2108137255094245 0.29413034499636437
Ni 8.758023875171855 5.082803494970394 0.9106138350568094 -0.4950265758272313 -0.7849269419026481 -1.4170974459044499
Ni 8.179437556451775 6.262072830331314 11.978025067834531 -0.0682915852875469 -0.363966906173528 0.975775558689526
Ni 6.244554981066744 0.5721571648282303 -0.06295072442470301 -0.6143126498847743 0.9435174699867686 1.2377254622986038
Ni 7.52928796170552 6.334208462439513 9.733824376527897 0.20560263516760077 -1.1930977962869 -0.018128077059278457
Ni 3.755866290447295 9.347710148728563 6.880464168834512 0.31585385271638505 0.5160985660061821 0.7049324663558763
Ni 1.7137842357651556 0.9053200104424173 8.36665523088181 1.1406478060173 -0.291208286253563 0.26461279515322167
P 2.1613854576810656 6.764488875709255 11.46278449306462 0.6089858383552221 0.01569427080680523 1.566540503161347
P 0.2946676767991106 3.5225889640328774 2.2170513089568606 -0.6459050799790746 -0.3360192719206665 0.7500316726873599
P 6.046557308232821 1.0944761892420605 2.1072715358473486 1.3812148730752276 -0.4757204192994517 -3.1602022880195184
P 3.0931717763294655 6.461187066669514 1.801744106108328 -1.1026720981044753 -1.0133787137542805 -0.314194205625775
P 7.675876798909786 1.7314522112151736 12.393896182167158 -1.281650445816328 -0.48658204460430393 1.0107888415399173
P 3.2133102562349523 2.6639422463578653 8.76762538301997 0.15118420831772028 -1.01423746221015 1.0812149566719635
P 6.022978114230751 4.152565352609435 4.054898886088332 -0.2513790700717671 0.18388864052927684 0.8477755017977529
P 6.731648772642308 3.1140674647666353 8.19038081708234 -0.7746880377834594 -0.6964318850840328 -0.40078381789156137
Ni 1.0603881622585685 6.898992554984884 5.410655626774326 1.2219067500987923 -0.41384733594373885 -0.6163412502790289
Ni 1.4894957147044916 7.021120206847568 0.41857150909338714 0.09794334671570874 -0.8482645256190294 0.08092084401578321
Ni 5.8139930811992855 7.657720913357059 12.923872580327542 0.7138449383541577 -2.176485105885413 0.44081949365720857
Ni 2.7545621650494607 3.03912634956786 6.658116028720775 -1.188724606919869 -0.1407280459814028 0.6118580176966947
Ni 3.8258250928664843 4.05266575907978 4.828494428263244 0.858752826744863 0.20521671258309174 1.7629645571534733
Ni 4.665002320866091 1.048884743298546 9.239992734091654 -4.263364438386535 -0.9132671557426594 -1.1146071589791642
Ni 8.14124920802821 3.132945832586835 10.906948859460663 -0.8699476670194178 -0.2989352225841755 -0.5338620606371902
Ni 0.027853098844067146 6.145021320114121 2.7210586919005606 1.2535305476516605 1.7054698053711144 0.7356401798523783
Ni 5.686667310165433 1.9682950345340022 3.876110796971254 0.9062956095208328 0.5466808096684133 2.594306595985551
Ni 4.17606948351878 1.7918498521985862 0.457579921804967 1.587347926825002 -0.9109251378730441 0.9763430011572217
Ni 9.257362333748093 6.402900575168977 7.622117550189191 0.7497521937737281 0.7794841736205221 1.847417068471599
Ni 1.4469067924699555 2.7934166984209554 4.447299647903339 -0.19378764481054367 1.9397741793487817 -0.3491306124916439
Ni 6.369760219731131 4.236523421821735 10.110267663118343 -1.1862563478850343 -0.22186563399368242 -1.0353472476055718
Ni 3.627461487455528 2.575968301684807 3.008459323035285 0.015206275426793165 1.057179512989315 0.4095613069738753
Ni 5.749373141250123 8.870871852196478 10.961825609974191 -0.26889856701276915 -1.2411383446348947 -1.1744405861970288
Ni 1.415643014350221 6.61874449829814 9.556904420130998 -0.9968051256663155 -0.45396014480422464 -0.35866272035179525
Ni 1.9151972793180425 1.08991610635905 -0.1725963222559698 -0.4030553875345575 -0.3600084357464122 1.413105036915605
Ni 8.084539041474885 8.53290966009122 9.877469802208704 -2.21049848671638 -0.11226439132407118 -0.588674894712012
Ni 4.477748053178354 7.06177625444445 6.9884583786258405 -0.2669964648940498 -1.5343713746279706 2.189508257617958
Ni 8.775710616395054 4.53297572365037 4.158141602110203 -0.15250087024661477 -0.5519140330428945 0.4362547571046616
Ni -0.3561312136992104 2.1752815127216802 0.32631990642369413 0.18937743155798997 -0.6545082482670534 1.3032515690258717
Ni 6.877440064486375 5.786050844932608 3.0335895081907727 -0.15584047614280905 0.5139154423119343 -0.6276782725584028
Ni 4.224522709872414 4.811028184874923 2.73241573782977 1.9437802151843815 0.487206051341548 -1.7242907947323594
Ni 3.9797325816113838 5.849178905913873 12.300430433972647 -0.30489838214614584 0.37082686651815494 0.5317478425076649
P 9.549714314136654 8.694126417490164 4.629122162543803 1.071692104783193 0.954499165809253 -1.010292361519473
P 8.271023912462198 7.285895883546483 0.8777305707115448 -0.28256423742531983 0.10451637194753613 -0.4543162425920627
P 4.013295166945804 1.7561385858349279 5.544454651267003 -0.2934330618190236 0.2916291758410655 -0.441600080576975
P 3.235819801165697 2.8935133325690128 12.673935000482931 -0.28407707452542047 -0.8212178059138825 -0.5987248227488462
P 4.08420164091064 8.574053617790812 12.488624866896757 -2.0754356094405546 1.651761774324697 -0.4470053107529463
P 8.098303736103233 5.444748345201114 6.2960370032118105 -1.0982551999837022 -2.091500633323217 -1.114972512738383
P 5.943570745014871 9.028419900938514 3.939282019230835 0.37220420648165575 -1.324984332717273 -0.5069863192922688
P 0.5196017404572049 9.228341065523502 10.09752382655105 3.5172408425043296 1.1303371681199115 -0.8351760678661875
Ni 8.102450971976259 8.163073802237845 2.9634430480397715 -1.0382083712034507 1.039484666812713 0.10522908174384459
Ni 4.004803654581351 3.7236642236685045 10.864624534627978 1.6743280896609873 -0.546342195382072 -1.5052752285929625
Ni 8.079988341478467 7.161384978489798 5.027867632271344 -0.725226440718222 -1.950288962837177 0.3550359222324853
Ni 0.3260384198259774 1.0195632227030569 11.8363303442759 -0.8431151202076062 0.11446242741665448 0.9217721078898771
Ni 2.3686252738066886 4.515870721395785 -0.029485721110823985 -3.085730542063189 1.4467474075603988 0.3644898685565336
Ni 8.757057437853028 1.2400985891274983 8.488066968497634 -1.0383222710734956 -0.27389242068293473 -0.9158644841561905
Ni 4.030794250437193 5.93056606420036 9.78444317310663 0.11967071109047134 1.1135645766472628 -0.05285391057623801
Ni 6.042306860607297 7.952137128795543 1.5665695600253005 0.7084800744978185 0.5199351661434528 1.0171098986619387
Ni 6.5976048548096164 1.2771422253870157 9.790334687596841 4.074843955512201 2.1315684478783807 0.04356682884735722
Ni 0.36872023263776016 8.909885894640013 1.4622825287259005 0.0022617994509832014 0.3908467612835075 -1.6056765499308605
Ni 0.26368632356575195 8.738319813331685 6.9717868657317394 -1.7270187351864836 0.5961002406418058 -0.008889074959513722
Ni 2.0868102750593223 8.118805343303599 3.109834844625635 -0.6399149238339109 -1.6834853306802233 0.16201600882590161
Ni 5.769771536697993 1.3826809337575956 6.697927616524506 1.533552992491733 0.17626609098701257 1.1550814649441268
Ni 1.8243427884616834 3.956688212144977 11.353485123748543 -0.48056489187594653 1.3928326598198142 -0.24495748281613944
Ni 4.44379138660713 4.149534680240685 0.3684575118132246 2.4442585581548033 -0.05176067751205924 0.6705275065134452
Ni -0.032698421479430556 3.9413002781364637 12.660009858493888 -0.4069369819771508 0.7958369039469326 -0.006497434798885584
Ni 1.9733054959733594 4.37518371985698 8.65604691055105 -0.5991896782004067 0.9726069311535572 0.18064725077384372
Ni 3.6586126709361757 8.447440946137842 1.0696715902512652 -0.10913947254184428 0.9124132923827963 -0.7881660176652361
Ni 6.834278786169816 3.221266944063744 1.1427821042762227 -0.11945653819713621 -0.27265777694488524 1.1353081389719415
Ni 7.801870200047779 3.0733363540770293 5.97681806535985 -1.0561384733193102 0.1887966193538555 0.15970227309106044
Ni 2.1663583875740606 7.556854882508575 7.500719886903252 0.19405066866394322 0.29021069822698403 0.9245859231895883
Ni 6.397205163008509 5.705376786027003 0.43305587112322935 0.3695796243746151 0.37383968520254973 0.5061900486432185
Ni 0.6576521508640636 2.4580629487878736 10.064578635154287 1.8275573534331944 -0.28932572451886945 -1.6426528700448937
Ni 0.8496907524243256 4.578811124645239 6.243371799067676 0.22606733077985583 -0.5897352176557262 -0.22992578529399757
P 3.377445091363558 7.82330071302061 5.315103124602075 -0.6650484856767449 0.5438207145117989 -1.2106404331563536
P 0.30657643645984506 2.1257023399771793 6.20346450582072 0.8064851276893981 0.1372143764011895 0.9640569847010171
P 2.708135642199387 1.235322699852905 1.8825617231787688 -0.4988274376305602 -2.5940872808858937 -2.0464047694258434
P 5.100893700316987 8.040036010375875 8.895230764074222 -0.6240741001469123 -0.05557645171372365 0.38423876904868665
P 2.7870081868796053 5.767088031133094 6.458454770094344 -0.5279451809321231 -2.817318684878851 -0.1326807501968941
P 9.391049701890342 4.860513528753518 10.146989466367804 0.23459902239995079 0.488755655216855 -0.17437710149441582
P 6.065032211929626 5.641563774324628 11.721496948448717 0.04296981869330664 1.4177327654956036 -0.3158890768296947
P 7.1475639865419085 8.97860615602925 7.570715282580146 0.8988072715635875 0.3672221798860321 0.36084918648015274
