# total energy = -340861.4031592864 ev
CRYSTAL
PRIMVEC
9.34758461296962 0.00000000000000 0.00000000000000

0.00000000000000 9.34758461296962 0.00000000000000

0.00000000000000 0.00000000000000 13.68113494941352

PRIMCOORD
 96 1
Ni 9.122644372797057 3.5973057814636142 5.4300427701040235 2.9353965975609055 -0.45577071565040217 1.155593628693855
Ni 7.91755375974354 8.185119022759704 9.251169922698086 1.097905015733135 -0.3758623720595333 -2.475865129316491
Ni 1.8671519910456154 5.5323305846515 10.893645238617793 -0.8292203645033848 0.0116255000540703 0.8038937128131382
Ni 8.75136765809125 6.191092265262216 5.835687749291788 0.2513155638236833 -0.19066863956558774 0.9782145071483218
Ni 8.070807410077176 0.7985052668499819 3.9092888972187456 0.1627523727712939 1.770293486714719 -0.9454861636773653
Ni 3.6090463477837753 1.5598501456831086 2.927762596717807 -1.5903340060365192 1.1012569629245035 -0.5970098969402686
Ni 1.3915936219865273 8.008907704526134 5.053236959077854 -0.14937903678818143 -1.9070874877490382 0.6836784420731064
Ni 7.070980408348839 2.826821769118368 2.4871483033551036 0.740890372507724 -0.8602669493965441 0.6968031523805226
Ni 0.7761888432570252 8.02189149960472 10.674267709229866 -0.4802411899879407 -0.1801803384397542 -2.486122031157809
Ni 1.501119271328352 4.170593148036467 8.806437083538675 0.27285498055735585 -1.039418846571784 -0.25229721101066227
Ni 1.716543707167875 7.078523909161236 2.9093758977116306 -0.07080098197296193 0.0968017769120978 -0.5354427748607488
Ni 1.807710700257473 1.7099349648204596 0.6024135055831958 1.4207790085210952 0.9027302607670776 -1.1309033250360265
Ni 3.7233299177123538 0.32548289750638715 0.7932322943490239 1.361334589211533 1.4194934569404523 1.0124556877193787
Ni 8.902106808154088 4.819680078534629 3.449753223007897 0.48641903666387837 -0.06392816611252862 -1.2119437253488095
Ni 6.775858465785036 0.6119377595828873 8.03911722859739 -0.875140524074267 -0.09928083458020967 1.2872675348927896
Ni 3.752494381819761 4.166788681083994 5.2764441938968085 1.6939908581972376 -0.05797683362510015 -1.5454883104767383
Ni 5.358867456304975 5.7754986517316595 2.775655895020702 0.7523065847644657 0.5878261735584714 0.4143260753523703
Ni 5.582919712776272 0.766207492367958 3.3647518967533134 1.9709038108740509 1.1363396655602493 0.748578228070285
Ni 0.2813819278870482 6.060805630413164 8.945615140906627 0.5943074104074411 1.5281166519675102 0.4285201074645652
Ni 7.256810391187064 7.3226828202142755 13.375115819056603 1.6736557461843111 -1.4071578181932347 0.7592627043673246
Ni 1.9394088203886473 2.6913191820347206 4.347987870486702 1.2956537020739558 2.055860515522104 0.9926841615194065
Ni 3.2130078813406215 6.563649599065047 4.926809007172242 0.18050712565155363 -1.878349239274081 -1.7487846661086657
Ni 6.579073113737233 3.008548162295326 9.303500505843116 0.39060456336571436 -1.311404280039993 0.1435644869889334
Ni 2.463827014412293 2.802144145642869 11.797803450489186 0.9409875044760633 -0.6983332158718037 -0.19068355196392323
P 1.7827433016578302 5.015325025255154 3.9379093318995335 0.6540109969156608 0.051655776503078774 -0.12333247621277468
P 6.661771195134103 0.9185263842366135 1.2736757111461028 -1.1850109055137075 1.1746534735387835 1.2240896166827242
P 6.981944664559398 0.9772993227222944 10.141578772308069 0.09688739464736862 -1.0491946950116253 0.5504495326822262
P -0.015205715949846068 2.477764263125159 3.617579757810587 -0.24159062322643554 -0.15873219586830728 -1.3070696572203813
P 3.672254715185791 3.657158365976348 9.0956700477731 -1.321193241105957 0.7826054928583231 0.020725405472809467
P 2.9239618687991946 0.22733419344184627 6.886673147050069 -1.4431422067076436 3.9508113679086083 1.0090664595321719
P 3.7796771579814084 8.405572459140824 2.7410015944484614 -0.23334123873344975 0.04222445588684986 -0.48455472976163005
P 9.277842320737852 8.328146415486447 1.9988547849691145 0.15780274207550243 -0.004898722853198015 0.0032539881609234284
Ni 3.3981741856687098 7.038777979230244 0.9506652497795904 0.6291330027270584 -1.3765192673717712 0.9353866133495181
Ni 9.185562965074928 5.721404179363208 13.617613664317373 1.1574702768912775 1.5063671761055606 -1.0437367572208476
Ni 7.597987883320482 8.410507983835924 11.348720245433753 -0.48414720991056615 0.25625568143777805 1.1952302692488705
Ni 8.420865107627915 8.642776767214405 6.6878453477562845 -0.616037602995681 -1.4386196362469417 0.6194538277660815
Ni 8.965997549235539 1.1117643279098124 11.587866981597566 -0.20502413695631141 0.5803062110323425 -1.2120221439952288
Ni 0.22945702991581815 8.071228051386418 12.705752107936073 -0.6271231713858813 -1.6066443131607684 2.3133117599298805
Ni 6.379352620109391 5.1687749748664364 9.996627646660395 0.14637958784022534 1.6363228140618078 0.1813990413382037
Ni 4.0323704138197245 4.812202010814781 10.999358942939427 1.064402255989999 -0.28864669617397387 -1.2352895991636015
Ni 1.7447453700563522 4.717660539666602 6.21283568191614 -0.659885967639199 0.4764333862060763 0.40228148548301035
Ni 5.453427622622453 1.1862645775687988 12.96759571438809 0.4979445208049747 0.5669362174833398 0.08122886217450527
Ni 7.887734964710646 2.2868865845760378 13.432398752549105 -0.8193830666979888 2.2704273018615284 0.8164908327518583
Ni 4.779438726617197 1.9333422379509206 7.890786016340344 1.879469983142086 -1.8090322980458136 0.7475240757741578
Ni 7.121354542026666 3.9270418299856646 5.013492898663791 -3.500351265837843 1.036699647868408 0.2671625581582689
Ni 5.652194662616015 6.015918528924775 5.983321631733958 0.34385702279753033 -0.6709980183919605 -1.2668987414284503
Ni 5.1874514489967565 8.222135457972952 0.034376677308141576 0.01563359277219888 0.9898214952596308 -2.1865679440427117
Ni 4.442505037914792 2.1649193000653155 10.170282400492242 0.8940990674546409 -1.9144997210527093 2.9254317730387105
Ni 2.707555936571441 0.08225220160907389 10.597639949304584 0.7425713597545728 0.16745054957791164 0.7732479629028232
Ni 5.537041767315005 6.533326034461063 12.11768247099801 -0.6108339473075545 -1.5665471880295665 -1.9865926823642173
Ni 2.1435694167251493 1.765478312809631 9.318466923625929 0.044652091491736 1.3998489432366472 -0.9479677924486384
Ni 0.6841020478378862 0.4423763130691923 5.988232852708968 1.4965381058302807 4.214372067648232 0.5775466460093344
Ni 3.054155027801749 2.708275700589476 7.045688648561849 -3.3111155020640397 0.414859322148021 -1.2628376839851991
Ni 4.517930698454109 9.092246027515873 8.851461594521416 -0.4663682886605904 -0.5155483499296669 -0.5340011573182158
Ni 8.16220809278302 4.04737328718267 7.879991425586743 0.30417513082687614 0.979718602497674 -0.4979386072677037
Ni 3.922433470753308 4.055328081719658 2.119618100576941 3.062811728483486 -0.6933146796112898 0.16666327778992587
P 6.251543095192538 2.8779250143988797 11.786434918038086 0.1013297466894384 0.2637059670682362 -0.9390283238671635
P 1.9085430958749743 6.525922747418413 7.386021119042924 0.1213982353045393 0.7722984545053602 0.29329525068957873
P 8.4067502548067 4.359358272454731 1.250979775616364 0.1846831114061142 -1.0797864517555533 0.5646790460180467
P 5.504156964516973 6.183960058174411 0.5430853205693161 -0.42586955721559555 -0.4161721274221735 1.4815038372049776
P 6.8192686488987535 0.16625801009845215 5.4484294691101995 -1.4143903313859318 -0.247454023985748 1.1389369939737803
P 5.847895694844438 3.618393932433585 7.1963315185027925 2.1230583535248404 0.4668879086094862 -0.8707112846583197
P 7.832930075908809 6.35824577397012 7.967838156608728 -1.1651380778491804 -0.07569867638489544 -0.7069734080453051
P 0.6647497433373843 3.0788793892004964 10.665621193428793 -0.5040853435953899 0.17808000426729975 -0.14424942887109996
Ni 6.29528979135365 4.221920735348573 0.802637834023663 -0.8299577568900416 0.14097692876741527 -1.086742314248096
Ni 8.051607471206466 4.195205338419417 12.034870349068413 -0.5156247116935572 -1.259171805097838 -0.8813543661944628
Ni 0.6729513141091277 3.4500719756444553 13.205688043003402 -0.22600536719366882 0.8204526456130838 0.39906529253855794
Ni 5.336274344206384 7.870152157984354 4.368427299081977 1.7403979847068674 -1.1218340157449067 0.5970973144477524
Ni 1.7969142399869422 8.736991072899842 0.6851302821493652 -2.411348951910976 -1.2532986341465127 0.8168459020984319
Ni 6.355179766204982 7.830490356315209 7.24100082126884 -1.2966847144416314 -0.4556699284064798 0.0026405229466406137
Ni 7.953308271029063 0.13649997436578173 13.612620184597445 0.7176504281431769 -2.183069958191782 -0.23742775009799752
Ni 4.255179441532598 5.014521132975271 7.5374164695481785 -1.084304908451197 0.846772257344219 0.5761613356260334
Ni 3.621656239476369 9.247630927149666 4.729760053237316 -1.9556972783369413 1.1335309924668606 -0.13636668368891353
Ni 6.069854092354179 8.323958697563333 2.0970857477785736 0.46292429597604784 -0.9134332490068785 -0.11289842536364426
Ni 8.34384101011348 8.019236785564175 4.154495672511029 0.7799508288442955 -1.4642823311203685 0.05972904042951649
Ni 3.0303093393600835 7.723899848553424 12.233588781621796 0.2965932047145602 0.5640380699999382 -0.4639406530557042
Ni 1.4580362536773772 0.6394570487919282 3.7746117018596768 -1.1274261651207036 -1.4808597758630755 -1.9153507561990952
Ni 1.8893244618349647 3.7539245622711817 1.9184375142267984 -3.4680096162823433 -0.19334850039059603 0.451387498981042
Ni 3.776928968094365 7.875770056358889 6.551403328415331 2.173485914047773 -3.11068232691252 2.238772393960409
Ni 7.776143499161212 1.9661616076564037 6.659073482204168 0.2720977906763572 0.4999296695558035 -1.6919252339174604
Ni 4.93035548078838 1.707747630012404 5.533704679595022 0.7186068785191754 0.6452152530009017 -0.16228391777530762
Ni 9.264465927103975 1.1851335198261719 1.6534886401541162 -0.6991996776371571 0.03919723902475185 1.1423200515134004
Ni 3.5118688577643495 4.537130637324819 13.251794069530124 0.24155591333375817 0.4989691054147471 1.057173599452044
Ni 9.140339350539147 1.571843096788815 8.761029321585294 -0.5462527209920592 0.2381332608054544 0.36971383595963425
Ni 2.7442358587372953 7.372561531905663 9.475650298546345 -1.5572153691056794 -0.7559992031247045 -1.127394797662136
Ni 7.772133385346444 6.672315270619089 1.9825198807935713 0.48360265026100585 -0.7357540797224232 0.36999280065263374
Ni 1.2262535447006864 8.939945830816518 8.20541075951751 0.16835300678752296 -0.7186274473444657 0.36597108108775034
Ni 5.154688164799173 8.605704246493259 11.110832628922273 0.03886093873125565 1.1325562872584172 0.021212372411557018
P 5.349164663438471 3.2841803908642757 3.9500312796734076 -1.1870425912317557 -0.49322268984927314 -1.4256515061220478
P 4.6846448706834725 6.898386605374746 9.715192437540843 2.257407235452777 -0.7047416905013089 0.9112449831063081
P 2.075425524628034 6.132071615783315 13.16145714195743 -2.3909315645968885 -0.7713322339373491 -0.04505884001185143
P 0.7943970033963903 2.6817285601840153 7.109265310799067 -0.4627265781429451 -0.1697761123872947 0.47312103400339167
P 7.2829275426986335 6.158497237588328 4.248813736386078 -1.7883601144084427 -0.4265994934030846 -0.3519233447454326
P 3.949504075899158 2.561154065786115 0.2697937271966786 -0.6857697773844964 -0.6377523689649532 0.6126648298687061
P 1.477292278055986 0.42065252634303363 12.340083009261688 1.6417321580028372 0.47353318184014576 0.7463894479490822
P 7.910963712565424 6.139858153796607 11.442641036961186 -0.47238724116116065 2.465056468736761 -0.09658734690844654
