# total energy = -340897.9967824539 ev
CRYSTAL
PRIMVEC
9.02514499644006 0.00000000000000 0.00000000000000

0.00000000000000 9.02514499644006 0.00000000000000

0.00000000000000 0.00000000000000 13.20921197793098

PRIMCOORD
 96 1
Ni 6.432960764885396 1.9255417197272011 11.512370022451378 1.1256006818761906 0.4546754257036944 -0.8131815658729673
Ni 4.548104397942221 0.363645647083042 6.099881478230246 0.28090099079028397 -0.7149114319454591 -0.4994236764536624
Ni 2.864274106400861 1.6289844865572147 4.739002455843098 -0.7064969826295188 -0.6240206212011576 0.9353580741044277
Ni 3.305188530737771 4.50669703357374 5.005208127031567 0.6515661349195939 -0.3692878041658092 -0.23286404198671506
Ni 4.996311139282123 4.534891585946698 2.479659437876292 -0.010878851696032877 -0.033678623199367805 0.15641023260334996
Ni 7.111886308037818 6.053426350371947 2.611487923023964 0.21563559392357054 0.4991053738822952 -0.6880176928784086
Ni 5.121544048605801 4.521741949964817 11.447274360511418 -0.41544733344100704 0.06704202915116196 -0.1399058071904236
Ni 5.84414226747293 7.912299325419557 12.419300506373249 -0.9947389871659061 0.13255553747293944 -0.533419573783133
Ni 1.848945315761357 6.569511205795402 0.38413994590779027 -0.18385341641596722 -0.7549468506007901 -0.18685209403297498
Ni 2.570379290948552 1.4210902759582726 0.2952377569993953 1.121716773440752 0.03924506154355177 1.2682282588731513
Ni 0.3314430279018792 0.03295260871451518 4.817504970391902 0.7206470488776556 0.06358055296512276 -0.058438089532234845
Ni 8.564257735892593 2.3299674836147286 1.4306109012137895 0.7550216697027835 0.5211482126149476 0.7118456485359418
Ni 6.76198144392143 0.715747231445133 4.739583675168584 0.48622337571330454 0.37338125750889245 0.05543092727479486
Ni 0.9156911919847475 7.400248709724242 2.654800495460924 -0.4236434960985543 -0.2374467762613911 -0.5939045185420674
Ni 7.646752489801902 4.0067762124972655 3.786513040942133 0.5560789630538616 -1.1342277614235692 0.16683245637793848
Ni 7.837787729903825 3.772862509423535 12.65781974084132 -0.9949675582369445 -0.23833406396235085 -0.177640602737036
Ni 7.819466685948286 8.898846929273734 6.766246727356596 0.2838258777465628 -0.23844590694986678 0.6846845147401176
Ni 6.833207886727892 0.8193423560971823 0.4745412113684095 0.4287571631760358 -0.5028946657213984 -0.15109113438328173
Ni 1.6938752777100863 6.5586810320285815 9.307897177359694 0.7934406358006142 0.5804201109023875 -0.7317878959858235
Ni 0.06803876166109417 4.938866092593941 1.4643071818602929 -0.027218212286004732 -0.760658813383903 -0.6037256183975473
Ni 6.389270038881079 1.9342780598991038 6.8540487511131785 0.3276819556995647 0.3022712289359439 0.8699034440450437
Ni 3.344168131153522 4.273884398166303 0.3607422579990533 -0.067581960815032 0.5494519446556472 -0.1460808256528839
Ni 5.90110898148641 5.525653932425129 4.713839449610369 0.013682896803731276 0.4226914165979301 0.5824363700014679
Ni 5.206010378842202 2.8109716011784887 9.532718047041696 -0.26608757992653526 -0.19539741249982476 -0.7594344540584985
P 0.14679037020653582 5.508659584756026 12.43250970831085 1.0873233835625469 0.0032074511937041535 -0.17928559453962672
P 4.002561469873011 6.1793812712800795 12.475453152325256 0.07009649970676961 -0.14415866892950657 0.4558208521620472
P 2.500253915808383 8.399106611093371 1.3968613722129324 -0.0938807466105609 0.6798019898368357 0.2992987765711813
P 6.275941295556097 7.653232543772384 5.8589859231348385 -0.09652872575636924 -0.31154416959743764 -1.1816479025787456
P 4.817902076763353 1.1605704459973847 12.548949419050349 -1.5802277708404526 -1.7665795281982415 0.5379205469772801
P 4.104708058783748 6.105627787928026 8.09996818650896 0.23522894267446584 0.5455508098290281 -0.026221138480058064
P 4.686929175343259 0.95949924487154 3.7841222800831074 0.522378742587939 -0.32500260909518863 -0.1628359336240357
P 0.3429157919788653 5.477811639810196 3.532407381394645 -0.3361974493697436 0.245912390530241 1.098900803987501
Ni 1.5439856727772785 0.8693813689578194 2.7903536578699026 -0.740572584156989 1.1101120993222882 -1.2486678202427206
Ni 1.783386663892865 6.579141035303068 4.824387545820717 -0.2802358464024593 -0.699711327166253 0.37638430600127437
Ni 6.151367221803235 5.642430281065882 9.11664082121003 -0.9791933261218234 0.5553261440482371 1.419691174773555
Ni 8.653570568889647 2.2492195130382693 10.258550877807181 0.25457675107345834 0.7605672821113612 -0.12717010479131
Ni 2.2401582676533622 5.446196557555883 7.120372651698602 -0.029016441837008095 -0.5163978424141559 -0.37761252198142065
Ni 0.5862589663455748 9.100504764811948 9.133694734834853 0.47855506053476937 -0.10420706823723344 0.5915604437899231
Ni 1.5711784340768058 1.0086321331936863 11.43192529674039 -0.5034237987519912 0.01511834369867719 -0.9606263617529133
Ni 4.06860747956101 6.745113448279605 1.562028742272803 0.38218111518870956 0.8171850306054056 -0.4372065794949696
Ni 5.665651978650907 7.880846695771747 7.983938217343639 -0.846854275535064 -0.13485693191260645 -0.029227272296233533
Ni 5.153673564114038 2.831882861693259 4.806369746730648 -0.11427653665809351 0.576256466443001 0.10849772519278733
Ni 0.7655398578525747 7.586599899672015 6.945588087333794 -0.08100774730263469 -0.2797889886730278 0.1624070736167332
Ni 5.0914812912580665 4.31787295394921 7.2584483420807695 0.2792629409662287 0.41958578108941286 -0.3629490064319749
Ni 8.121330704264015 7.303210352773522 8.965567117278717 -0.23671349763979235 0.12161780751451312 0.46173310388142413
Ni 4.522500062128493 0.3701166759087177 10.395134711752968 0.4193114443821036 -0.20851466660807313 -0.051970222419704046
Ni 8.123812619085578 7.027717807580004 4.6214273818870435 -0.2218124121582438 0.13136845914337375 0.5998411957414767
Ni 7.195107168291034 5.933355823877121 7.020061777241342 -0.2624888068316834 0.6518242736769871 -1.2457388195213837
Ni 2.3388753015379393 4.992628880201404 2.610866993061333 0.6914907390286736 1.2164004755685824 -0.3850743775761046
Ni 2.300401109231306 5.33795799590131 11.33507556531611 -0.3911825473563715 -0.9138433399611036 0.3868103864306048
Ni 1.275830570310781 3.2639075183965702 3.734164493525721 -1.4905572056564975 -0.30541594521251275 0.3082073919147208
Ni 3.704903169036731 2.580758207475089 2.60106568580236 0.4487264072091111 -0.2650249429899758 0.051965594434013725
Ni 1.003921007605119 3.3264246964655464 8.025731857909802 -0.27367824778959965 0.41390055777917745 0.23422698377251275
Ni 3.63244028139189 2.551588939463117 7.014857878746384 -0.8321267395169023 0.2370860504878627 -0.530236548069461
Ni 4.071206721265047 6.780004658098382 5.902258784934654 0.30546299640036423 0.7287239123485191 0.19923735507120527
Ni 0.7750180649275046 7.3504028349624475 11.366301663829299 -0.0716594733185153 0.43445729888460666 0.21858747746304288
P 0.1824866229419791 5.709288553786392 7.9695268661179215 -0.22069063984897477 -1.1607430341052785 -0.3941012636650632
P 8.474574871958506 1.5713408866833083 8.027145195586373 -0.32516124616024 1.2085884357233314 -0.29924041252942013
P 1.772800169035797 3.3494207654304304 10.175795715025938 -0.6667767812217614 -0.22570943321980483 1.3806104067220093
P 4.061883746680775 6.129544421663089 3.647432851943093 -0.6109838426218575 0.24229613393389238 0.853516518046588
P 6.893342426568168 3.8209033552241936 10.420984531505411 1.0647496120270887 0.939045293148028 -0.09412037342519274
P 6.374667354585481 7.848374224760894 10.166337363269582 -0.45357062267528986 -1.122190627753377 0.701746869539043
P 2.4352638480626494 8.522335938270189 5.8394889028111185 -0.575290502985306 0.3207669737472863 -0.4316954198687533
P 6.914479315703081 4.053986744975801 1.63666127472893 0.3139054707407626 -0.6556693584546901 -0.9367174163457996
Ni 5.2727874252594615 2.8801673864036714 0.45869756966203035 0.4555339170492477 0.7743458239526922 0.35508503030286587
Ni 1.2782222336842874 1.1178634607768856 6.9334889782072935 1.4102387711114035 -0.5209767200340899 0.04656062136835852
Ni 6.802170413741143 0.7282290067113946 9.121066752222738 -0.0992019017131582 0.3828747988216245 0.5494396033604731
Ni 2.7172454723714554 1.6871966705538797 9.117183232412852 0.08374674350035254 -0.6385357840981971 0.37330926662037645
Ni 6.284127101894853 2.012137984137744 2.6223587099424113 0.909911351896549 0.605552644303957 0.03623378552105373
Ni 4.114572542056361 6.826105097765818 10.264679853644722 0.3737157580301757 0.4170797268381075 -0.026778810755740977
Ni 8.097883378058846 7.080018521728945 0.3900559283279165 0.7763320011447855 0.21371780807556742 -0.24479678886855902
Ni 7.533775727124344 3.9339974447842256 8.253604129050608 0.713567516323055 -1.4876215200669411 -0.18008469340215436
Ni 3.243808520914311 8.345009893128099 12.443248728115133 0.5738401436920246 -0.38606785183762543 -0.4757232475129291
Ni 0.04694970579365124 4.960021032018466 10.094452987406786 -0.2512533431271802 -1.0491206472405803 0.3276079079285196
Ni 8.817611600877767 2.4174843127954513 5.685270838429504 -1.6997429301896663 0.10769939766120808 0.03200072127631263
Ni 3.5592644073074005 2.6874083436438627 11.532632375054622 -0.48036331738810173 0.1212740510218492 -0.42800408706009513
Ni 1.1935031993933272 3.2606404159769125 12.584086112807839 0.12288459004207869 0.48309665715886474 -0.11682784232503751
Ni 3.076527461940949 8.279099260612185 7.925962492140882 0.5014666750256203 -0.14556146281430415 0.6860106897507089
Ni 5.751535256621802 7.990267551395864 3.5409930016482924 -0.9675734824947079 -0.8876795370815422 -0.030097590716328813
Ni 2.988451073782274 8.236581803432607 3.718088905597836 2.002729697135396 0.13383363285441466 -0.5760926871716272
Ni 3.3855574452323913 4.3662567552524845 9.2113777662353 0.4086372524977092 0.09431911969956014 -0.10134208798461256
Ni 7.232326865469677 6.000015543411906 11.465555693829813 0.11767733480952636 0.3038640273443606 -0.9818233075455026
Ni 0.5871677984275072 8.890886751555119 0.35342918316300714 -0.023012401734773272 0.009938085049318368 0.29559201714355543
Ni 4.665259802664811 0.3722962483792906 1.59915999303235 -0.6078409261175015 -0.7548856583455515 -0.4204674123634178
Ni 5.997605829748789 5.604750301502149 0.2629187134502392 -0.48808048352670136 -0.05162595170640786 0.8322707212939344
Ni 7.949699525494314 8.909641002461331 11.328417715992956 0.3447422536159611 -0.09289395721725938 0.024064240038055327
Ni 0.05391802009812023 4.882711641612973 5.823690386828767 0.1336829662091633 -0.12809055972305036 -0.2285134783275032
Ni 8.025285113241921 8.829741395496608 2.534623472257391 -0.23546599838593643 0.21992085156248575 0.04828068938325879
P 8.538274343997026 1.7384143673261394 3.615374635078821 -0.6534268422774167 -0.8186675286882028 -0.17974093690949045
P 1.9143415150233467 3.024542627860206 1.6356838515464744 -1.1245871530100116 0.37222246131410086 -1.2886757280942258
P 4.772009215426447 1.0916363899715664 8.20154709381142 -0.1608548986382649 -0.25584404782165615 0.11478304398086682
P 8.687026780684318 1.5640575948251207 12.567600783305775 -0.49923161504751445 0.36363523386572216 -0.8585417391753214
P 6.354144175297354 7.751958602801767 1.3637851190145793 -0.6974235595733409 0.296866770090921 0.808738185389633
P 1.7721593837545935 3.276317092504386 5.906974423095624 0.6135968547646723 0.11827871583895112 0.9295841477351281
P 6.77484227526953 3.8374644959426245 5.901532260777796 1.0864250401179933 0.777518565253719 0.14776849776795195
P 2.4879616685830412 8.494042109304367 10.145361121712208 -0.5496774304028921 -0.01512554278752879 0.43019852360825267
