# total energy = -340898.17483864765 ev
CRYSTAL
PRIMVEC
9.01847580072783 0.00000000000000 0.00000000000000

0.00000000000000 9.01847580072783 0.00000000000000

0.00000000000000 0.00000000000000 13.19945093587567

PRIMCOORD
 96 1
Ni 6.448146914180138 1.889352598174962 11.452437690844445 0.21516019694904878 0.24077481219335956 -0.13034670274707874
Ni 4.455866454149833 0.46955594982566695 5.961742648265962 0.42570474950295717 -0.6133744543412211 0.011014091722316516
Ni 2.6552376187833233 1.52260727002203 4.688128274374359 0.20051159379793854 0.6618562039916923 -0.10685581871399015
Ni 3.19897053029831 4.247837277823081 4.7933017366504505 0.2772901335105741 -0.19757822220122745 -0.09723500779477447
Ni 5.225656474686641 4.533614732170942 2.761192982892662 0.026836403466553783 0.19428232505877507 0.02447253122006753
Ni 7.125641855576704 6.097887359397184 2.835373551972215 0.542851408619994 -0.1329021221790808 -1.3754550877733152
Ni 5.298624960647526 4.616954465054953 11.627527786943345 -0.21589450401191204 -0.6548707738127948 -0.5770131421033675
Ni 5.589037911446245 7.8870176383924 12.329211181707318 -0.5285051672006511 0.8170988986495024 0.1542605332501988
Ni 2.02996866950139 6.4760140037388005 0.3307390643785118 -0.5925207508206634 -0.4466908648363211 -0.007688369783193211
Ni 2.8035193943572794 1.8117305788120472 0.18624955778818564 -0.20478271036946666 -0.4349936310040508 1.086160216492381
Ni 0.6076441424455276 -0.18434485574456444 4.533786985054621 0.11809051108754501 0.9830001014624233 -0.05727749356523039
Ni 8.575397879820457 2.4361788468157157 1.2758275078002421 0.6531820732564622 0.31545378906448895 0.6275900837199707
Ni 6.716717117111195 0.635719558790211 4.668817012603497 -0.02820114502456433 0.05106236589345399 0.22467430708707115
Ni 0.7643302354174507 7.056686591251289 2.3514033726185195 -0.27685664551758127 0.9829787613061847 0.3702488825274978
Ni 7.571136512540717 3.7206713059583407 3.8197365547204893 -0.2970485470844239 0.5151549711459902 0.18800240558733428
Ni 7.59394423729601 3.9062084041752856 12.56318470859794 0.2587900178238575 0.1486735260807246 -0.5159260449840599
Ni 7.936763549721068 8.818103094772793 6.7873029218224366 -0.11319307378592763 -0.9263137045139723 -0.15871188415333312
Ni 6.844698304142578 0.7360086146892879 0.5314028516947266 0.033777096450445056 -0.36547614372920284 -0.7557181815491759
Ni 1.879612644542808 6.511321335655358 9.280045647509326 0.0720299692840566 -0.1268569444262654 -0.5900020981638678
Ni 0.07231374463339084 4.971389574033914 1.2491274089823214 -0.26819639873942197 -0.5722226626932596 0.1728236409643669
Ni 6.418079316578656 1.7977339047036187 6.972371961156503 -0.4902438097266073 0.539360107637284 0.043115343132235424
Ni 3.4860917375083846 4.4113422401850695 0.6762341585097367 0.31090576468249037 0.29386449292948746 -1.0566668350189543
Ni 6.048998203249124 5.624390335740729 4.985062484868829 -0.9566005284229717 -0.4194209733767744 -0.6884810056680724
Ni 5.372143573619117 2.746324222195132 9.261368384572114 -0.2200581484712984 0.5370746540372169 0.1159456968304003
P 0.20316731613870168 5.731845472339908 12.363806955900195 0.2776302904588122 -0.6098764684902915 0.3487961119703606
P 3.9924611046733585 6.152909078943268 12.43223283570875 -0.1152676969267692 0.33494892167462315 1.3989326020699648
P 2.3383283867149114 8.406779441801588 1.4699438818415094 0.636962011853174 -0.44082052209847306 -0.010257416061950075
P 6.233597380005195 7.752651370646605 5.758511300950604 -0.09603713083193138 -0.03299882352352381 0.181025717159185
P 4.749129243233515 1.011818849820245 12.664239433074211 0.29694981672303056 -0.22265084889913916 -0.37530315712195367
P 3.8686735087891524 6.260995508833419 8.125066614400033 -0.13986338398826234 -0.9070990792587346 1.0273272055145726
P 4.746153146290357 1.0849857422440077 3.666582998635339 -0.47295005564316617 0.62445745162826 1.0058914042382998
P 0.06761962809122783 5.428689415539121 3.642427913627597 0.7762224721501148 0.15387126823158015 0.3396859221389763
Ni 1.5266204916575006 1.1693986737226743 2.407381952424206 -0.2946597351372732 0.640196973850704 0.9301163660895143
Ni 1.8672934068932507 6.465796070900624 4.955218545461863 -0.03774739395210273 -0.1156623612620266 -1.3500831846674297
Ni 5.901555145904603 5.532627346660021 9.20115202308888 0.6946655372122295 0.40104632752432867 0.3655219093654737
Ni 8.62121173579392 2.1945468304580333 10.117999110215159 -0.43883563045796037 0.6171604037462145 -0.15017530743723168
Ni 2.354011515757796 5.143985159785913 6.950527409593722 -0.6105500975185485 -0.10757675604041474 0.8766353634522386
Ni 0.6735141862732018 -0.11002089290320408 8.970320533092186 0.00796733447619273 0.14591550371961323 0.7638811769759425
Ni 1.3907030461110284 1.1188320811157424 11.232059515898705 0.46757130782975603 0.37772205097609146 0.7316840234181077
Ni 4.099672742431733 6.719458733689134 1.636098472330468 -0.5554914659815079 0.7487425215622912 0.5354995962406133
Ni 5.480130800277829 7.763581763056022 7.920079369888213 0.5885185716398058 0.9274475610080996 0.7434362788580294
Ni 5.234927467588356 2.96499519971257 4.968260163005805 0.12557139284562244 -0.37696151866098304 -0.34971656690210096
Ni 0.7329233941915474 7.236524012898307 6.920723151479331 0.08411749657620998 0.060285427153618766 0.5701125583287923
Ni 4.949772288055883 4.554717965040608 7.269650677418332 0.8400434232608177 -0.40045651645912966 -1.6050931666235646
Ni 8.095218165755274 7.228885364077534 9.004084803836095 -0.4617829832827531 -0.4095083422487528 0.46335084199050525
Ni 4.6540023627594795 0.4151402718389173 10.377830410304032 -0.5633294739686878 -0.8465076908289229 0.5529697280009186
Ni 8.171307044268682 7.116641416942547 4.858704623442804 -0.26899009828531095 -0.5469929415921935 -0.09739235930824518
Ni 7.234116079917023 6.139101792822132 7.000579047244731 0.3080531257250437 -0.6264294877529664 0.6164402377507384
Ni 2.211826229679521 5.140963970464829 2.6337258489696413 -0.06940744405954498 -0.2130115260371622 0.45107819527073933
Ni 2.3400689525028797 5.313775999630876 11.28570231052779 0.1186407271640602 -0.9944988461306421 0.4753946605289167
Ni 0.9565175575310162 3.201261223096983 3.8894556839279812 0.16394253642465315 0.4182698904914667 -0.6325003765373945
Ni 3.7193095161449565 2.8053230894743453 2.5701176388187674 -0.5960914988910573 -1.007689633789303 0.3473223556383115
Ni 1.0562438605535687 3.2676642588317497 8.331453526322697 -0.04588570678852097 0.31774901285656887 -0.7614838803883595
Ni 3.5133545892028297 2.6709568217285495 6.865364140946356 0.12276451952444664 -0.11728729845995929 0.25552548813997283
Ni 4.109124104845156 6.925458753009187 6.080260748865662 -0.1761799590311095 0.029983433735967714 -1.36743144613789
Ni 0.9770436079632218 7.545993002608823 11.452793920630064 -0.8971152285731453 -0.11575414964488452 0.20179945937142665
P 0.28844241388332537 5.438501516975958 8.217621425637134 -0.63532653313228 0.4924217912145326 -0.9731808013791562
P 8.563042568268559 1.4664131486498533 7.918535406868004 -0.8672148414692872 1.0133985112486226 1.3746207647974777
P 1.9271580478286552 3.184008879302251 10.34884412792523 0.018464120242458523 0.32286807925068917 0.9001483589725142
P 3.936591648422254 6.0963542185476784 3.8101670502768976 -0.05523963719959518 -0.030758621339095415 0.2957938487417164
P 6.936037424870776 3.864308566605853 10.301352835492894 0.2611387205616922 0.43979619459901675 0.8885035756447343
P 6.272990081361906 7.802009487525104 10.254230398712 0.14722213834617873 -0.44456173430846013 -1.3011039265552495
P 2.4111796324931873 8.527888550436952 5.722991133010233 -0.47346376205479107 -0.3764071888194098 1.190976379068523
P 6.931618371833966 4.068982870014864 1.4465012564050086 -0.24387401994397354 0.13287563981651954 0.8128522075580065
Ni 5.3108359765900595 2.9355228214997195 0.32777920069140726 0.42161772391777713 0.09035576417643792 0.518923694159803
Ni 1.4672969592572156 1.0786006615295958 6.997965493020103 0.32851627867540195 0.3710166139314578 -0.8318583163468642
Ni 6.785104217474734 0.701470558740159 9.169961625277024 0.3643510289858241 -0.6117163499125078 -0.46520537870074075
Ni 2.8611835272498642 1.5639209066784154 9.10564095555491 -0.8784994132441709 0.4674918607420723 0.7426076123091468
Ni 6.444855170591494 2.0144568914946266 2.5239069699195484 -0.4920479528148817 0.1656186385754954 0.12624630742546
Ni 4.212602093711205 6.773614679579026 10.35205199969093 -0.22436423204582007 1.019269625317419 -0.28446145444803267
Ni 8.143818730684604 7.403465014458306 0.2620381210646032 -0.060357418042134764 -0.33675306476289746 0.11285908748527661
Ni 7.562496812929973 3.792061558691794 8.174987484155055 0.7763389431233211 0.010232219250969473 0.2771186409297163
Ni 3.0394878080473764 8.41991936072941 12.516867621686815 1.100832473792575 0.5851342285486052 -0.1509839193814561
Ni 0.09868466909244729 4.789667290989563 10.355220190164056 -0.23479108380609887 -0.7241843726069528 -0.5433502026332835
Ni 8.4804062764802 2.1258170280222517 5.756610206297218 0.681528228499323 0.8505193830914772 -0.34827186403577437
Ni 3.891418104215348 2.650710344039489 11.480288547147053 -0.5913614404052396 0.5673864176468809 -1.350579664687874
Ni 1.060762116821818 3.4347134820987733 12.468966890462905 -0.05305574217439895 -0.0528996762125089 0.011836073402979616
Ni 2.967439206596194 8.354192710663542 8.090933488004685 0.759063443872325 -0.07912261446477985 -0.8991931941480965
Ni 5.447285512196067 7.852134174828354 3.497379261550981 0.08971787348212291 -0.2430039586341944 0.9628760770190383
Ni 2.983212520394932 8.327380782748362 3.6208205479727105 0.6141064474112392 -0.31676042369105445 -0.8618432927447286
Ni 3.5357564825567835 4.217589310709892 9.163177026094184 -0.7996974153436034 0.5030175644525079 0.5065258347160825
Ni 7.283429104417595 6.162847439038299 11.347184865983204 0.04246562536337848 -0.0006715721457278757 -0.11219882819345839
Ni 0.6808876919117657 0.23062857429602424 0.35273151894089166 -0.23423983928831918 -0.6864536908253985 -0.2436014830088772
Ni 4.604328599235495 0.30752099898408586 1.647291302379418 -1.1441133959683973 -0.010153543494234127 -0.8533427114728851
Ni 5.970826056875505 5.934680006729511 0.42320910194510986 0.6905414877415269 -1.8261316767302616 -0.17624835037519967
Ni 7.953465766505095 8.810076651501852 11.180674045708624 0.5160368595303113 0.249601409346054 0.520876961231432
Ni 0.028172815881004898 4.822160858523498 5.830553589468877 -0.3984600548543912 -0.2181956413412629 0.3372125208978192
Ni 7.979971066250373 8.558343942488603 2.6474663983714466 -0.43120793870937346 0.8586749223190759 -0.2730593832586782
P 8.42946992637427 1.5767722343875072 3.5362119155738427 0.34743599839804035 -0.44523356356450416 -0.386334989456083
P 1.7773250944540224 3.2643815337186908 1.5279949073367045 -0.42991827336367244 -0.16138146056569627 -0.11270173597180591
P 4.672733736550205 1.049642336425109 8.151136321774539 0.7658912654274358 -0.6124516854166355 -0.9988833483515829
P 8.491417835169885 1.6063528343073818 12.41834708885002 -0.4152488442769558 0.5327971097077856 -0.7817176909367312
P 6.22675235703593 7.807664071717103 1.3869721027613782 1.040808527830459 -0.2383975702104346 0.8666818517839524
P 1.5483910917204815 3.221751199626847 6.045467470057468 1.1271777965553234 -0.8994845001362703 -0.39927715143904785
P 6.910569249817811 3.865426857578434 6.117430395990589 -0.7019296749738105 0.42884766600731306 -0.9141827255783933
P 2.4715312711102 8.515298758519833 10.273119595825468 0.6586914331104655 0.11745030640038483 -0.5689997848805878
