# total energy = -340898.0817682317 ev
CRYSTAL
PRIMVEC
9.02559188156430 0.00000000000000 0.00000000000000
0.00000000000000 9.02559188156430 0.00000000000000
0.00000000000000 0.00000000000000 13.20986603948488
PRIMCOORD
 96 1
Ni 6.432728927626452 2.086761989210187 11.397235026597011 0.34960035303921083 -0.41373240763242936 0.42629995988479485
Ni 4.4071062983561875 0.3394660520195452 5.966024592944808 0.31809816866587154 0.1955035990603859 0.09991281173725373
Ni 2.6395433944184097 1.5168409848691162 4.705340738622921 0.27425726022152125 -0.13882568675236737 -0.2402881023649281
Ni 3.312789375522432 4.251974423740393 4.822512778571557 0.6695396886788791 0.30579595425975076 -0.6838339938143643
Ni 5.1134039972192875 4.591129092837304 2.6853284173152563 -0.16550191049197305 -0.541011527197778 -0.7424456328099859
Ni 7.322065631446982 6.123710710085401 2.516994809338948 0.17760075063803607 -0.587657252080775 -0.04628859865389448
Ni 5.080523765707458 4.700979572587643 11.293788204342594 -0.16690958947277706 -1.0118959585611669 0.9162470643065899
Ni 5.6914119319569 7.926852497531177 12.29164862589528 -0.2580297426190653 0.4596559096374213 0.940117186055968
Ni 1.841617885973069 6.631364155491497 0.38298835901191325 0.17508698307724688 -0.7190226259003552 0.04418492204733036
Ni 2.7547731269771623 1.5303974239936753 0.39296344324657556 0.15840900820093362 -0.4652416312553149 0.18354745513977425
Ni 0.23755538551679228 0.10031945464012988 4.832499596075768 1.143888938662417 0.3352433129865903 -0.28565316076328867
Ni 8.56195632701044 2.4965328898054673 1.3937337156473042 0.5221414297661524 -0.764074009713039 0.47628940442904427
Ni 6.843673155176587 0.8858844148956678 4.868337514073029 -1.1799262919019486 -0.44350963889486195 -0.9094387831355047
Ni 0.9047885172567792 7.494147567764456 2.630216347686506 -0.5677489431926223 0.07902954053034132 -0.1901934997013821
Ni 7.646382227360953 3.9265657311992106 3.781839461554591 0.1406653110642674 -0.19659503235235173 -0.3285838986885438
Ni 7.484336749303473 3.8592257895824753 12.75712457751111 0.787505758373418 -0.006719835222336814 -0.8416621898111634
Ni 7.90973997517421 8.82515161416841 6.806171820581019 -0.06501857096322997 0.09356810046614854 1.106692789228094
Ni 6.883945346504006 0.8415272406469605 0.6680770245882865 0.134813994489813 -0.40464792883265793 -1.5854615084355663
Ni 1.843738900083769 6.613267843610844 9.293233254183216 0.1631750621310093 -0.660485548896411 -0.7181669627682793
Ni 0.14737889112178865 4.821028971253263 1.282929230826748 0.2369104441419468 0.5496396351864212 0.3290916915628977
Ni 6.298942577997064 1.9567754137961384 6.985456179282911 -0.20249674254876737 0.16033450735842064 0.2946751617562409
Ni 3.368080151871999 4.232352786818428 0.4714545037304162 0.23804250086386103 0.9001231621615337 -0.9005862178408812
Ni 5.887917120119285 5.462901994702846 4.781442724914837 0.19616720078631375 1.2357490552985233 0.4060327249953265
Ni 5.56330267967062 2.933452771017707 9.303470983143926 -1.1304914343095884 0.01521835961165121 -0.5070074023381913
P 0.23804998795622362 5.467712635217753 12.268161327936665 0.3744739763524389 0.4407606153948151 0.35834930287643446
P 4.001577425982307 6.106471829440989 12.65631954602351 -0.4613664645706248 0.4201066865898894 -0.23513175497496924
P 2.276741674385184 8.555530105534617 1.320726604838618 1.5737897285245928 -0.041636958814496035 -0.15456675163670802
P 6.184010689973005 7.9568896675754734 5.74393997460738 0.5064404740911278 -1.1290565016352747 0.5038423743466484
P 4.876780052792812 1.0832876494581152 12.610891034009102 -0.5219108018125851 -0.24306720777196203 0.3664313085536205
P 4.007552367860109 6.083555851453469 8.236893314641343 -0.5961028117449669 -0.04687455306435153 -0.5795341087530084
P 4.728679114314189 0.9002621828886257 3.735789988813304 -0.46478731732671563 0.6939934508458693 0.6457832096892298
P 0.2699744092794448 5.659082261554656 3.461698104481513 0.16871861765705784 -1.0512022123599574 0.5928310829722306
Ni 1.402748476897377 1.0350729372055218 2.6272577586418784 -0.19947749610646937 0.6848714339399431 -0.21739191449304493
Ni 1.923128006967672 6.468813244284233 4.76705773644831 0.2511417572499804 -0.251722826564431 -0.4137257227642101
Ni 5.881328437988174 5.581678784902046 9.213512005515168 0.961911399112924 0.18888275130975857 -0.6813677916620587
Ni 8.650533486510056 2.292265692557116 10.141967430010576 0.11925522081960752 0.20822413195084785 0.2874339068127953
Ni 2.3847509333755967 5.19828968960709 6.890015057097392 -0.4743088836639057 -0.3160538845423331 0.994272846162765
Ni 0.5556551536884221 -0.19326861088537625 9.064940833695408 0.09257616886652444 0.4790944779780072 0.3552693783995301
Ni 1.401854943293295 1.0830620096591044 11.544102166654644 0.3017480094426223 -0.15568363884997058 -0.9825247044879013
Ni 4.150896819375587 6.909569002079654 1.5434800195403124 -0.034514488837101856 0.17362736781258484 -0.029147310987917542
Ni 5.617871408663353 7.884847392547356 7.9666327940967525 0.043054922207945205 0.07845361342221327 0.2729336563140912
Ni 5.230141003635431 2.8764290810117386 4.8645332270617105 -0.043425161063170375 -0.2692297250999428 0.18096426779363028
Ni 0.7391237768231684 7.289826216964342 6.773556941472825 -0.06882431786256535 -0.12058422404367619 0.613992033320562
Ni 4.9635881962681845 4.319169955885761 7.1160231002600165 0.7026812084278543 0.8938121323418413 -0.2767648571347233
Ni 8.119097606288241 6.932205186716401 9.150051263323023 0.2652067199834788 0.23315869040899848 -0.04367995738645381
Ni 4.724130215966134 0.41185671489733433 10.454485772113879 -0.23902851892621416 -0.4982587096112838 -0.10367382144158276
Ni 8.071695197312085 7.094674867596021 4.737335559563433 -0.35747769890475856 -0.14716505985599815 0.023729482406455907
Ni 7.24290216436209 6.177575442905222 6.956143764273038 -0.22769355352936915 -0.11852065664642815 -0.32201421589082607
Ni 2.5023273198440603 5.1656170467103495 2.543255671707002 -0.7745042039074275 0.400827012424671 0.38249736087754765
Ni 2.3739924277587696 5.3254512547375255 11.344897423936896 -0.691693599068099 -0.8523147844290032 0.7216330669400088
Ni 1.0593066516192644 3.3589462528080483 3.623677695717682 0.08960217383986505 0.49338801178254377 0.44534772054486527
Ni 3.6678110352857707 2.6638041856080332 2.4904036103051417 -0.26958942243220674 -0.5050194253738851 1.1503717181732833
Ni 1.13281107254497 3.139723649681272 8.181993346423662 -0.359194167375233 0.7754483129882516 -0.56512513241653
Ni 3.441422112142417 2.5865812207946326 7.16371071794212 0.19501560368037382 -0.31667917683115787 -0.34299596034881574
Ni 4.118864993508037 6.859810913601828 6.105838232885367 0.3965479254333429 -0.16426880941582034 -0.7657655384828489
Ni 0.8936211523241446 7.519428250845607 11.518857585941333 0.6043552815617462 -0.535579300438613 -0.46430240727049715
P 0.38763834398992447 5.445238911236293 7.967755577736629 -0.4872147930922964 0.32170748328368465 -0.9856861329350184
P 8.53840855758569 1.6121602615631705 8.015139032969667 -0.439640642857759 -0.3471428926376538 -0.48057800450206917
P 1.8466992942467886 3.0949928159254037 10.36168734325437 -0.8491831807785568 0.1976216738446532 1.109346167690541
P 4.106554086074016 6.119712372846934 3.7876645786058494 -1.6014594265257194 1.0256693581961756 0.010009818827518245
P 7.041992487323017 4.07884551875551 10.500377296995858 0.2509257845844323 0.08062696692444823 -0.6668611134054515
P 6.344575970948975 7.793165429413354 10.148003745913709 -0.22382841414700805 -0.16306964690139655 -0.2702077727424959
P 2.2389154184790407 8.491349121104031 5.621181093235241 0.682869830128882 -0.4018629098883531 0.2696519002390259
P 6.904261954006923 3.9836616259408624 1.6520263012523702 0.04227304973659816 0.8095028314697995 -0.4150130741170659
Ni 5.235610512363449 2.869650861449459 0.6452594255531349 0.3937510794144961 -0.08770444259651991 -1.2114660143814426
Ni 1.4267836282879902 0.9118284789859111 6.99808478755394 -0.20498377063667922 0.8254943218020494 -0.27207696474075077
Ni 6.848267181484443 0.7700833623658201 9.105639935522555 -0.028137124555848315 -0.5877624102000716 0.5478758584177791
Ni 2.6995726065472 1.4470190054632643 9.251595490792184 -0.07318105216936428 -0.607871779355437 0.0996436172362671
Ni 6.196754825821126 2.077601013370355 2.674772987517539 1.3860076664781809 0.06538083939865513 0.5237779369283108
Ni 4.154868079838175 6.731295509677329 10.439083599433411 -0.08485051808749257 1.5097618036094063 -0.14989351453075475
Ni 8.222612120482362 7.076082148157544 0.3038266970454129 0.21557954387465453 -0.17763700319261022 0.12124705443865572
Ni 7.485085873436188 3.874316579340307 8.046631128437983 1.2645590375516804 0.0014133354077588561 0.5134307893660319
Ni 3.2363426116176277 8.36149792956939 12.369203732492826 0.09610037996969902 -0.13119131013556115 0.22448764499756177
Ni 0.23173387870231782 4.767435006192256 9.995681538075193 -0.4493154469433616 -0.2552591218524636 1.2366648822445734
Ni 8.489309337320975 2.4449426061596746 5.75818055360254 1.139010013303561 0.14287183179728297 0.6098944662124205
Ni 3.6583431893192846 2.72035854483206 11.626769368538572 -0.004998481655855908 0.009521052116557797 -0.5276980979183234
Ni 1.1535789596459092 3.3213005087411136 12.638460607211417 -0.5527267587521771 0.36788732427385673 -0.8135505191766119
Ni 3.169517128742637 8.238109061878411 7.927769497674356 -0.5593692037693593 0.35130653709704013 0.33011396217982497
Ni 5.779330223243405 7.725220773135271 3.5197028763335796 -0.8793856725038662 0.4870494711590257 0.39054697065490157
Ni 3.12164538898454 8.265601014989869 3.5076952287894296 0.7885084886063194 0.1596199977898993 0.07223000111000463
Ni 3.3255696137383945 4.181015219747527 9.292295495178527 0.8537216920788588 0.4659222022621073 -0.6450915829388438
Ni 7.214796470997325 6.214896265661581 11.45332366527588 0.8503044388671938 -1.305177325293675 -0.7071045343065306
Ni 0.38080326319829416 0.06205906776068997 0.4062843144209676 -0.1305099677978204 0.3596654505846967 0.17810237286480296
Ni 4.729040137992605 0.3068908855159773 1.6073893336528897 -0.8297279002674226 -0.2275547139586597 -0.39954274639560866
Ni 5.98771309042571 5.6824404935482375 0.32568668077356355 -0.22060347945180717 -0.14362465080290748 0.5356885723229678
Ni 7.984083776152235 8.683928176763631 11.322942671493161 -0.48033374970174686 1.2648102343305379 -0.0033172372986910613
Ni 0.03387304662747705 4.909876898511692 5.697283079527156 0.5093697319227808 -0.15646731109353054 0.21074509860048865
Ni 7.904369747957757 8.836496783262664 2.75493107483647 -0.10071602436483945 0.14120472850750523 -0.5941004366029574
P 8.519806812555254 1.784224146696723 3.574074847421575 -0.8549303676749793 -0.6983378438574941 0.12473449876662389
P 1.798990015143979 3.1924240811381974 1.5301645637210965 -0.4019829804059851 -0.237862523642571 0.3639741052623796
P 4.629289295645982 1.0602723899590298 8.302295461664174 1.0499613979743208 -0.00021288734175447206 -1.0959705177145833
P 8.44528249973802 1.659914668625782 12.382228564250916 -0.1770883297779918 -0.05902147283953061 0.39231537540923406
P 6.420336789864787 7.764816045065658 1.310119729166726 -0.2974082444166878 0.038163912664231046 0.29464328007704094
P 1.812835273211272 3.161015021115916 5.853740813601937 -1.3693255778368094 0.05395074318484257 0.7245715807430425
P 6.916238914538408 4.067689887092424 5.9331849765968 -0.16425723945159454 -0.8593480371267006 0.8196746297964786
P 2.5515438728042605 8.464245268446874 10.202653705234084 -0.8701839513999402 0.3897833530159997 0.5733354361414642
