# total energy = -340887.75386449555 ev
CRYSTAL
PRIMVEC
9.11682440297775 0.00000000000000 0.00000000000000
0.00000000000000 9.11682440297775 0.00000000000000
0.00000000000000 0.00000000000000 13.34339405649424
PRIMCOORD
 96 1
Ni 6.470219271332584 2.2069643417821116 11.580637770290403 0.5251190243372376 0.7771727518785261 0.057687584519455486
Ni 4.7573685690517316 0.5275523274041843 6.151290879464085 -0.43799539394485215 -0.06771154441436081 -1.014331821696169
Ni 2.8661289671044496 1.6656073191321101 4.470170372225858 0.32073534917840246 -0.39181298185151875 0.9189024996515659
Ni 3.3394197800692895 4.699713772634779 4.997955178647852 -0.0712997759862514 -0.6485003515100767 -0.7086795921031344
Ni 3.682686445896468 2.740335026408513 2.4323668806267413 1.3102195157032726 0.4450057638244142 1.433223919152667
Ni 5.332193453442187 4.5725887756015755 2.6213495300459377 0.2698802141997481 -1.0865227420381223 -0.2636224062154944
Ni 5.548790963447554 4.795795983172138 11.47401104085111 -0.3317656388506351 0.532121938017632 0.36629169765196273
Ni 6.139779977193997 8.167926928570969 12.190270689582809 -0.9553872248411611 -0.5179713575488628 0.2502786379187367
Ni 2.029131568393581 6.63684746774508 0.17344666925250954 0.884344302060722 0.32235411572874806 -0.4954405234361984
Ni 3.0462956474953105 1.677513891573688 0.4822717965116992 0.01653990663655216 -1.1215542797209588 -2.216281411946744
Ni 8.449071554109548 -0.007389186036676092 6.697169846931103 0.47532986872925237 0.37047925337074905 0.9404131200298319
Ni 8.911878019212354 2.817900966939099 0.9644405729096238 -0.7247250756017711 -2.8067267682956176 1.9220502797064576
Ni 7.111551388465238 0.8297449650376099 4.841116628091226 -0.7093197967902946 0.23335229447704325 -0.8304706919707182
Ni 1.256453364610227 7.4106379240842335 2.2739812049986474 -1.7364377145075387 0.5242376501735488 0.8169932263095737
Ni 7.812899559489858 3.9294424104475785 3.700136047468581 -0.49877781533954746 0.4660818677684231 -0.7124339169392441
Ni 7.776742234602188 4.071719569347477 12.510592132193322 0.36356427141847064 0.34154405839363755 -0.08956900660908446
Ni 8.594466666895372 7.388639027222421 9.100661921863383 -1.4086919954495738 -0.7459618734933604 -1.1577998923165544
Ni 7.053331348946159 0.7513038093811495 0.32695210887143283 -0.4404309999695382 -0.28828931283455506 0.23164431064700106
Ni 1.7985214995500012 6.899393771858835 8.896467851220011 0.5968222064094947 -1.2265115958606556 1.6280279210428672
Ni 0.4664805452666324 5.0409565034833745 1.2308077380572722 -0.5542789337306454 0.6315308135352736 0.159609456266938
Ni 6.4325667872715435 1.9372977979464028 7.0376795851117775 1.2442604352036442 0.32108090544327933 -0.804765059674498
Ni 3.7365942275557718 4.536477034835044 0.33632420417766734 -0.32572714596603897 0.45011377447494094 0.8103191567235076
Ni 6.306189369825025 5.622345501317885 4.911009849351649 -0.37808843317657465 0.7104865634048861 -0.7874003431438052
Ni 5.226356240981024 3.393828987061125 9.410067790825888 0.06067700616508259 -0.8749307220563061 -0.23969469175530334
P 0.3089245006432733 5.785946912086734 12.413265475148862 1.0478474369551114 -0.4115564830270332 0.17555466674228473
P 4.124405696560247 6.3475159340498895 12.645987912166035 0.27670340776916863 0.6175805220027686 -1.2869209501866483
P 2.592697174862637 8.76924530416757 1.3138027474155458 0.6223334633067218 -0.1785857402591247 -1.5470952499525419
P 6.784056828552248 7.993248576365277 6.001631827986894 -1.5720861155699246 -0.16629586714817812 -0.726826181105174
P 5.019878405868575 1.0690935099035885 12.528379056261866 -1.4786625111014404 0.10570807826279215 1.710861665810647
P 4.245212734403547 6.244249666020981 7.839403990885077 -0.5938060452909901 1.1019691585001796 0.8179113672484687
P 4.991816820895238 1.1452919267999968 3.635167734656045 0.16790666327872372 0.33446221184619174 0.5526023173591709
P 0.41912137845019654 5.7768027373861965 3.5364261464914204 -0.6379446874814175 -0.4054961357655662 -1.1617786744586442
Ni 0.6620947726291703 -0.14328912638918953 4.430100106379592 0.21312336902467813 0.12056982586597298 0.3387994057689649
Ni 1.9757707961879487 6.744125138434245 4.774799936975389 0.6113358266446374 -0.2043458799423642 -0.8639307714013766
Ni 5.954362006047891 5.7570739297571185 9.262383443476448 0.19474203830401302 0.7301979257908844 0.0029889074249948525
Ni -0.4160891227120121 2.650424905873411 10.490870038085308 1.1924966723677912 -1.8480490456286431 -0.5197081377343115
Ni 2.3456130046393233 5.090105302895738 7.0180784130218905 -0.47203397158679994 0.3199920432544747 0.7435260103583582
Ni 0.7756402599749844 0.3125912873477164 8.99774391651998 -0.4860716806267886 -0.198493020706013 -0.9905084940243265
Ni 1.496836669026067 1.3870609884984708 11.329568636197095 0.7194417157156449 -1.8565701957257768 -0.17543896710002688
Ni 4.404483653664166 6.7882049835759215 1.6796125845109404 -0.0681915693745729 0.8198924022342395 -0.8812528076195919
Ni 5.697805455451837 8.164763390563904 8.090286230081714 -0.025803848436981365 0.14482921263396994 -0.18113036105784933
Ni 4.924644059984406 2.96662372056809 5.027190098899314 0.9431698568393628 -0.8814430692535272 -0.9649463292845059
Ni 1.1991541243381614 7.476962820341875 6.867631667931413 -1.724864407847642 0.5762901478944139 -0.9766343071453955
Ni 5.10836630182413 4.582507880361481 6.8875929545783 -0.3464306970619776 0.240235908970754 0.5556629585623656
Ni 0.8981348219828607 7.497293338369991 11.037668893116917 0.41910369924667173 0.33551790680421567 1.1131976802261474
Ni 4.618938709975987 0.6508245545186965 10.45719066602277 -0.8862939695879252 -0.7680972719398191 -0.3615187017433516
Ni 8.172403289266846 7.324638921142882 4.4509958675098344 -0.16685148254133197 -0.6632818806946255 0.2265537834979711
Ni 7.112353668997289 6.186029626501902 7.244168360413301 0.653343795645307 0.7138657642897642 -0.9539880305007894
Ni 2.5284235640562627 5.383229435469716 2.5191927795255595 0.4450088491482078 -0.7032756474787437 0.41499224818145947
Ni 2.4323869376400427 5.3776134717453585 11.292554329832006 -0.8627681185518431 0.33415007992241164 1.9137993525515749
Ni 1.1217887539405877 3.416183440067824 3.484667200302622 0.35658681165937295 0.3111420490630125 -0.31087054056918073
Ni 1.5781496243143016 1.1668623329231005 2.524476890848024 -0.15750269433658037 0.21600866099227314 -1.4186478211107052
Ni 1.225191774332914 2.9735069228601203 8.02882698291448 -2.5435784735030644 2.192197117304031 0.05711628539701776
Ni 3.721460299337533 2.721709354511006 7.192395738988161 -1.6655068918249316 1.3189553529143738 -1.4782686180971314
Ni 4.515180133438776 7.2898764703620715 5.811568834896697 -0.3102146521527367 -1.2315638135725822 -0.26442459040181554
Ni 0.7163015861231478 -0.24555710216514767 0.07456194694750823 1.3976133690379091 2.174158771745081 -0.41180896535747147
P 0.13778165287314265 5.707068148867338 7.68828989426112 0.021465111852311418 -0.00982289962769276 -0.7451442626880715
P 8.30674881108851 1.7060130841099612 8.155255454576675 1.2548685497367937 -0.04235481081712705 -0.1333140129055188
P 2.017434682909244 3.2896510366094316 10.322075684236273 -0.716156874316786 1.0834860120943277 0.945030049976553
P 4.335970719591839 6.094779332805307 3.7211922647052345 -0.011821161004644158 1.3339153166583155 0.9381443786003133
P 7.254886098975566 4.034295005892133 10.167532750020221 -2.6185466994798388 1.7326533077644417 0.6874147691870871
P 6.494734411681284 8.056528453330815 10.088033131070908 -0.09595845507519603 -1.2773523326616065 -0.5952679745484974
P 2.466657079912548 8.735385418985318 5.555815476515116 2.1113904302686093 -0.49764601572794936 -0.34569510444753365
P 7.220889461429897 4.057944047939188 1.36336089223574 -0.9689276825297571 0.35557765366856825 0.5628414785886758
Ni 5.407853977709151 2.9550362369744865 0.4440531576661103 0.5876919619734524 -0.4372924543405566 0.10250036995877185
Ni 1.5947513612332247 1.1865364396068108 6.6135065743569275 -0.40223623406737175 -0.732572596670648 0.6665317550904908
Ni 6.631222387196495 1.2518858356720717 9.506367893462293 0.28923342191537926 0.12573620055826087 -1.8309830912852918
Ni 2.661210108934964 1.7355424777839823 9.06774380462387 2.647005469041164 -1.8785400151286487 0.8845379061287669
Ni 6.7313707013394755 1.9493684732240824 2.356629775036263 0.10160125518327019 0.9465706549907956 1.0184530429533942
Ni 4.018212927954198 7.141062548490803 10.105659599033041 0.3725829299773131 0.13502405361809006 0.5331665772320624
Ni 8.325137445556093 7.372019056655042 0.26464590873342947 -0.9589196634744519 -1.307468949541329 0.37227696870112015
Ni 7.4556932694182905 3.940254963981814 7.9244685193430735 1.2386777989095443 -0.2201489084128918 0.4163983845003667
Ni 3.16991066720079 8.60798691722528 12.228606935460938 0.48727752800943175 -0.3289628792945173 0.6731091511976923
Ni 0.07781756487927509 4.821860983639573 9.604175007143562 1.4069917249290154 0.719951822582844 0.5229528699238543
Ni 8.687540325437539 2.654673345963592 5.454179296658149 -0.20323130672194675 -1.7097036409468038 1.6137642120350015
Ni 3.891881094628818 3.160912361687898 11.74526847051458 -0.8897911841079063 -1.097945124942451 -0.8927826626360624
Ni 1.0183401494271225 3.281318259265172 12.511192930909937 1.5043048942598933 1.6675879427236762 -0.5847835300774058
Ni 3.2312121933088838 8.317880453470721 7.70546325605913 0.459493415917628 0.9290131057230065 0.41475339269777606
Ni 5.766072235270012 8.131623734495653 3.838481120079005 0.1675827042804017 -0.6446241563841221 -0.49501577719395395
Ni 3.329792413684675 8.553103635373596 3.335354588146089 0.30550336271999645 -0.573251103957774 1.0751895764134904
Ni 3.244057798645931 4.8773277422418415 9.336492284259833 0.8848009299821664 -0.8304814906039955 -1.641081926013348
Ni 7.767871564628486 6.231057621363275 11.21760400617239 -1.2811747917314904 0.3802155068219065 -0.584617951033819
Ni 7.948867876024082 8.911148673274125 2.540595436082871 0.47229802388146397 -0.6264472283647792 -0.39481680167484906
Ni 4.885560234519594 0.29935274688644886 1.5531175600318814 -0.5154758448205187 0.25538921967242467 -0.6134618718487047
Ni 6.334588277294792 5.815868329202553 0.22400766473776795 -1.0369405602346207 0.029378196051801014 -0.42050906423463064
Ni 8.206554912824389 0.019387838402955434 10.658969689928181 1.0182496686933367 0.10076641798680067 1.519294939910822
Ni 9.537748002454567 4.8372684165846485 5.451910119107836 -0.3619547608395057 1.278049101618315 1.1158006650666332
Ni 7.334093067867166 6.046204893319297 2.426215759320208 0.6699047853277817 0.6446809777639865 0.4616423439398307
P 8.8769696992439 1.5814225642121016 3.531129271615037 -1.8457923883839826 0.8891854322031073 -0.5868270428699959
P 2.071579501998472 3.4129196169942526 1.2704622767187481 -1.6656922683628603 0.7124364880424053 0.07276093391281017
P 4.808614238036502 1.3766860425271723 8.236903908996494 -0.3251941562807044 -1.5606004835278284 1.642669839325758
P 8.526965700312337 1.379658127225453 12.345214764064886 1.685694165406084 1.0028870701943373 0.26434051532844155
P 6.361637894778837 7.847589075676845 1.232546316437524 1.1738718581777523 -0.5408377206240751 0.6307805656328105
P 1.7290512989337496 3.1078433278575566 5.7289330284130005 1.3315607003832097 0.9027811686096711 0.11004244397208791
P 6.78077477183022 3.7535879879164926 5.829621970232695 1.0977592341838902 -0.043865333924382514 -1.1470387971453084
P 2.5587643550865624 8.83005452176736 10.070005522842747 -0.14870643620118906 -0.4051050709747345 0.4041229095671234
