# total energy = -340869.6049246738 ev
CRYSTAL
PRIMVEC
9.24934518330222 0.00000000000000 0.00000000000000

0.00000000000000 9.24934518330222 0.00000000000000

0.00000000000000 0.00000000000000 13.53735161390053

PRIMCOORD
 96 1
Ni 2.620015716463742 6.616805688170259 8.727124223280265 -0.052208820793071375 0.22989441783542988 1.2622345031835616
Ni 5.274411248358602 0.31758458559626995 10.595279181938048 0.695290315280422 -1.723917727663657 1.609674358236344
Ni 2.0111220845977344 5.5076057349470755 6.726208790909659 -0.4867849046437294 -1.313325922542738 -0.6810183787424401
Ni 7.480934995802128 7.182856353913872 6.068091069793486 0.6335321602360185 -0.5433735996720512 0.9411682530283016
Ni 7.947703192124804 0.17467850533343687 2.760374527108676 0.251330990442651 0.8771734953438958 -0.8130116159540064
Ni 4.173942676832211 2.30305916139418 11.30287627422688 -0.1663434325566619 1.7549581419092293 -1.0765196080788235
Ni 2.747739921814378 7.060284033738144 4.373187442532894 -1.4206082872711856 -0.7160841120973216 -0.32269247290477326
Ni 4.3301826128726875 5.127966368691963 4.330978056544218 0.16700034941437047 0.12365669232141284 0.12282314067652396
Ni 2.5217599243397792 1.1587949412085625 8.991238345328702 -0.09304410964187847 0.22808179010672333 -0.14781966272086156
Ni 5.289700415673006 3.226698754870498 2.2245932678702767 0.6354226923905122 0.620974378175666 0.18867706305685572
Ni 4.203263100538599 4.805210474296248 8.117361152982586 0.9306886936532165 -0.7564954260348326 -1.0755682999091476
Ni 6.661026806700303 8.488197917584268 12.939041011017506 -0.9776228963109099 0.3387407846168876 0.7259777170619498
Ni 6.099906041851171 3.851371769336852 12.308512236220393 0.25560982032366303 -3.8427453309366015 -2.0724528726631473
Ni 8.421778371011532 5.369864488942176 0.7523028764978081 -1.7331274191873831 1.0898721181263296 -0.16356946935595054
Ni 6.564010426808724 1.0406623066413732 8.333972488888666 1.0841277594433845 -1.2470264279845558 1.4365149311991132
Ni 6.6310866768777235 1.24829160360068 0.9941815731234827 -1.4257098701638091 0.9815865089443481 -0.2854832108443277
Ni 0.7693762424661432 7.772566844212987 2.654498199624558 -1.4886216791966813 -0.5946763637110856 0.41260497889620557
Ni 2.4718134612437233 4.093038655961619 9.445822379459445 0.23070225844870593 1.2097402899395877 2.7664393815304806
Ni 2.601470779703077 0.42294202482489046 11.338980167569314 0.31716485821832474 0.9029873710832061 -0.07097324588476808
Ni 3.061375962022554 8.19301432068658 2.4502745115008007 1.508105498952906 0.5766693856107036 -1.8394386782518126
Ni 5.073062256666374 2.799194028148333 5.001929243872572 -1.4428185048196376 -0.022675844330960947 -1.9000660621258825
Ni 8.96476117028078 6.622558780771322 7.902536790533941 2.132432852761205 0.28131699528178 -0.6985854410919259
Ni 2.500125706343173 3.134677021288524 7.564590696815512 0.651476146308949 -1.06050909158318 -2.842509839432498
Ni 4.048410566250792 3.4782254432842277 0.07751321098707127 -1.2713974006297524 0.23425706567949978 -0.11668206077579259
P 1.1788012744820382 8.356783223571535 12.116024117055202 0.6262639087093795 -0.7596326861122337 2.425231109209707
P 2.7934964316173754 2.033745982511244 1.33331250793869 -0.34544339344804376 0.07080226752454258 0.5458320885148729
P 8.657090957609078 1.9720343525525623 6.1431828022549 1.652425118940309 0.2032981554041402 1.4021205128796432
P 8.259387620534227 7.77179914857651 1.249617959676231 -0.04793693289059486 -0.022400993403019483 -0.3978974974827018
P 6.107749486426256 0.9275520664188426 3.8427800527498284 0.163386406810867 0.12258325675157598 0.43286244359366094
P 8.13522441301544 2.67108135030695 2.0236854699353963 0.0027197129240082193 -0.3727953030984354 0.9936233855042244
P 0.7695575296284919 4.675765890772304 8.398694780650638 -1.2691685112992335 1.2518966115926635 -0.6569029737514751
P 8.233646693349723 5.743686017181099 4.290284638203958 1.51821456236245 0.48586779214609876 0.34460135716272267
Ni 8.829554244810755 6.276309550030425 10.194614204588502 -0.21110299616053965 -1.1916227544032703 1.3110091014841034
Ni 1.9340472925645065 6.943881026689281 0.6048220701891771 -0.20335214857052722 -1.198969938796961 -0.8560148589884097
Ni 7.024387325724108 7.611655988938527 3.957198150357874 -0.6064664143674782 -0.04186218745142467 -0.5576223962815815
Ni 3.867955844953746 7.910039859212371 12.256271010625424 0.658188268221802 0.7033396679474597 0.8864117261127121
Ni 0.5614491165972635 4.534472896280573 2.2735306274248916 -0.4033101838578409 -1.2508167482649233 1.2035999813698044
Ni 0.8356024777280077 2.9550732397331156 4.8057053142547 1.4254573878333707 -1.9112459900021017 0.2760140950116279
Ni 1.4826145102813233 2.5431074126408344 10.86162609587378 -1.3073702191799357 -0.8645619772274723 -0.3955336252362156
Ni 8.476747228452247 6.99544612516345 12.624351470411806 1.0996716207152546 1.1991514586801477 -0.9538867290362346
Ni 1.6077026523018894 -0.0729199862512377 0.7714952674097184 0.6432681565768599 1.0922768709130803 -0.5422078614987244
Ni 1.8134820802576388 6.387801154874843 11.691615146110493 0.33275474223678175 -1.3513486816434146 -0.3714254193341022
Ni 4.512579696623469 1.1333222450295741 2.314210171747625 -0.3750321628487541 -1.7585695134095713 -0.28075623768230357
Ni 7.430128343619418 8.309898293676367 10.547329652431333 -0.171310289643634 -0.3468626423930736 -0.902655184554768
Ni 0.35290598435019904 2.562281304862709 8.280784130363877 -0.5110432629704618 0.5428205553820586 -0.8056986272323609
Ni 1.1288363126959469 5.0686965658179775 4.430680446228963 0.9031418943831994 2.5917177522124524 -0.026745129304328128
Ni 1.5455008070572644 2.02999999777904 13.128022703486451 0.5634251190062878 -0.5457120179972408 -0.1964091415937908
Ni 6.599389171501763 4.609799562105439 5.124009498893354 -0.8431377459154252 1.5521716360341848 1.1892442268687649
Ni 7.6156424566411935 4.7992446467597745 8.497571203825295 0.2460787409047762 -1.555582975708579 -0.625147278606433
Ni 7.742811701290762 2.8761763267313833 4.410672263086483 0.16746134821118902 -1.8014848247158588 -1.9941738371455846
Ni 3.471121946310566 7.239665831013126 6.463841870135083 0.1381140053973234 1.0212599162745704 1.33635966443375
Ni 4.369140854087611 5.393450318737535 10.36705251855863 -0.924471251988595 -1.276607226965466 1.9132406518346274
Ni 6.070502374039624 6.423124403497776 9.189100333949225 -0.7632134614849565 1.5882969210018323 0.011502858433276962
Ni 8.2104955827702 3.3186464936923294 10.768056021935829 1.4244268896863275 -0.41972282088790946 1.0429584842939263
Ni 5.541828311512892 8.482768552058827 6.7506307614946275 1.8848983532465085 0.4701501243005258 -1.2970223002867083
Ni 8.713382471387337 3.145258271988874 13.578234572227286 -0.9793319085822166 -0.3446666631830193 -1.1262259741650151
P 4.237272942169007 7.4981850242603025 10.191310338548147 0.3113485086468638 0.4051302677857152 -0.37559009223475315
P 7.356420313172665 7.891624413281955 8.30057587883294 -1.3416016295589797 1.1994628192729795 -0.33968052282233757
P 5.067799379351252 7.078727227703613 4.945817167387659 0.5287805323492248 0.12934654361733855 -0.12753751543305777
P 5.886995368886707 4.616755069558816 0.544578311284818 0.3795904716433978 2.1764722503696063 3.0840079029451273
P 2.831908961476249 4.03767207668514 11.668398365181341 0.593601642589668 0.8686328048627363 1.0425903023212302
P 7.051709890906654 1.288840732158663 12.21541572874735 -0.7762939488179985 0.8014923024604971 0.5282945938517417
P 5.818929438900804 3.6194721910508694 6.903683373241973 0.24221514418431192 1.0948286908006564 1.4829837641846138
P 1.4995778090439467 9.198640108400571 4.1134057136907884 0.6644558463980685 -0.12646356564258865 1.258667868878226
Ni 6.123140396535855 3.1399306492586283 9.76675245314865 -1.029447337181369 -0.10116828141090964 -0.9671073414915666
Ni 4.175135842339507 8.988023273000518 4.353585305636695 1.696126930703634 -0.2066858409294505 1.1961579232694626
Ni 3.032989722162962 1.664678617611464 4.222151187999424 -1.4453818946714398 1.3819414668286072 0.4796104983824773
Ni 1.5494595267248779 0.8810139869618419 6.451157318377688 -2.176722675817516 -0.35052697861853827 -1.1087645841554583
Ni 6.21875087598473 7.157365159044847 1.807304442720258 0.2875843163477306 -0.21813084954159856 -1.2061566863533872
Ni 4.1296938102671135 8.735719639605296 8.345032855660937 -1.0850736682964215 -0.2933075919847529 2.3125340012235913
Ni 1.0711943945450915 1.6156108422920983 2.764719869398033 -0.9546020099357042 0.47461510205041485 -1.087913965958694
Ni 5.634294013655719 6.020435669458337 6.7975240158003105 -0.10113845661423873 -0.5230397732107057 0.1681097804284653
Ni 6.561994069594846 1.6861001006726615 6.190888149053146 0.5215953274546953 -1.5723275421567695 -0.2746223568704238
Ni 4.24269305834943 1.2348060585647451 13.288643129327353 0.26999848494516726 -2.362515475348041 0.7490217433656068
Ni 8.86186220695789 0.1628115956756148 7.708099834373505 -0.3692929463721317 -0.24412444539188277 -0.10854169105684532
Ni 3.9163576674318312 5.821084536289949 13.212021555199994 -0.16616756910042996 -0.7361382025347193 -1.1950862874718386
Ni 8.756290182924856 0.763933002923175 0.35646790711654924 0.3174101414599114 -0.9589430605132196 0.6272591827431133
Ni 6.215439610468362 6.120976049801692 12.04423532569964 -1.0576909054080947 3.8398934633101027 2.7778499373602674
Ni 9.004921826348019 0.5306108753734562 11.597760192345993 0.0261396345098453 1.4965514755667195 -0.6336362899140507
Ni 3.658772658031451 0.9975696082034985 6.608338837740976 2.8347803319987244 0.9946919359780546 -0.023202663368708427
Ni 8.866486879466784 4.527036422886272 6.179381038916516 -0.39030888650216655 0.09814569253450194 1.1618599213185408
Ni 3.004067020292339 3.9117607429579904 2.602027590273148 -1.0145197693372594 -1.6429007243896416 0.1188520718439179
Ni 0.9940733557867745 8.3166225675043 9.973331949448436 -0.48232969708585327 0.18893031671824234 -1.0305197443099412
Ni 0.5524837264715214 7.4118516378642685 5.792091539397191 1.5960176866848577 0.16099219554707758 -0.4988999427397085
Ni 4.457527595077594 5.600071437089903 1.8804732363524745 0.288301139909097 0.5926189669614246 0.9538641033284153
Ni 8.564477265945966 0.0598959835316903 5.038453057478814 0.3071187868362324 0.4931992928105054 0.372838497631545
Ni 7.05846191276964 4.648905792840647 2.8447664759854767 0.2592337902294955 0.6036721394517927 -1.8207809539413096
Ni 1.5040822400676097 4.349069775399011 0.1914605169337116 2.08203665969684 0.8349408119269298 -0.8432462464688316
P 8.673249563355155 1.3200665209387157 9.62677564045295 -0.9859535276637922 -0.7845741865489197 0.7783366902796401
P 0.07533499023538218 4.9632355339251575 12.28304786445192 -0.724736645565997 0.10466909547531651 -1.0081411195044252
P 1.6966073566128685 8.406017487101222 7.871143588609066 0.38820726677813144 0.02349345513624986 -0.9452786756522494
P 4.732908344292199 8.546672276786724 0.8975453413121345 -0.0441898071433368 -0.08915145945569163 -0.2060561777652516
P 6.7801491211843965 4.970967986360029 10.617493333867271 1.5849053788217802 -0.8819475196937715 -3.081459425491661
P 4.744525521634541 1.659267750776058 9.142084988289305 -2.893789720653397 0.09855295527524961 -1.028753653548454
P 2.29189520195771 5.954386096686311 2.461794570720455 -0.1998917008257525 0.01842118281966505 0.6206257365869957
P 3.185936891377106 3.739029224750798 5.609851694511712 -1.363116363702304 -0.49899713043920507 -0.4904980918292585
