# total energy = -340888.7883432131 ev
CRYSTAL
PRIMVEC
9.08131887838877 0.00000000000000 0.00000000000000
0.00000000000000 9.08131887838877 0.00000000000000
0.00000000000000 0.00000000000000 13.29142813230279
PRIMCOORD
 96 1
Ni 6.405154243792162 2.1193074344137224 11.502242551915622 1.116174503466284 0.5097633678167737 -0.6082232491575847
Ni 4.814088977801877 0.44787158640644686 5.924588092422883 -0.33334223930913554 -0.336442218390698 -0.38633421812513463
Ni 2.880067696639828 1.5399011142763253 4.839329596061334 0.2535704212961311 0.223520395988286 -1.1004910312927565
Ni 3.3803848088828548 4.337982662234287 4.677838315071094 -1.0320955734374935 1.119075479163163 0.35443042743800246
Ni 3.727790670405317 2.831509883502706 2.449849286398942 1.3334993121668195 -0.2634858806376301 0.8630182868894363
Ni 5.345881941986789 4.685170572098755 2.591549648711469 0.3529862387923082 -0.9259735475657344 -0.3934798280309804
Ni 5.298186854162559 4.478843002531632 11.073700553177467 1.334065983303567 1.056156213931123 1.4755393920914264
Ni 5.8219156070017135 7.782608722310709 12.09070748783837 0.05204735551454262 0.44588713798810303 0.7141028200012347
Ni 1.899939090643324 6.638489656312307 0.41133743973529635 0.006355767014698731 -1.2901587403976555 -0.004197068800483095
Ni 2.6627880562585333 1.8658387374864334 0.27139522079724937 1.5580766886647102 -2.6261021432295935 -1.4583978473151336
Ni 7.667421271061176 9.16105306460931 6.709234040101253 0.5090866534647233 -1.0483336325629107 -0.45995672870729176
Ni 8.760067420496794 2.6105613902118554 1.2915306698822664 1.142256802375633 0.41269908127190863 0.2510031747895871
Ni 6.952639727352603 1.0689893132242467 4.566336971237374 -2.6569363550016307 -0.48236440697853056 0.9180440083060124
Ni 0.6346434434601096 7.7266859593972255 2.4370500752832767 0.8566632912056859 -0.2904063591775579 -0.038679675958385
Ni 8.092717606359043 3.781969820054853 3.4518102916030307 -0.9987223972936865 0.5649132735160399 0.09832027043915324
Ni 8.051951564995187 3.8974115482387126 12.279645239493345 -0.7928035164372474 -0.14008681285297808 0.2983582670347829
Ni 8.51916726918046 7.325473282307632 9.16261868401923 0.009875607242499121 -0.07197777588988248 -0.5484325022521974
Ni 6.802498278952371 0.6658722835229364 0.21258732281107748 0.12553025519504188 0.5808764817135157 -1.0237513152378563
Ni 2.0192040541611513 6.495940190665514 9.289511955566828 -0.05817917944389336 0.20357634876619132 -1.4427686254183087
Ni 0.11882906020184066 5.060773929374119 1.2013168461111479 0.3048068508736041 -0.13048991319316236 0.07890201381354153
Ni 6.303897536016043 2.2054255832783807 6.81330595679312 0.4184966617902921 -0.031883221861841865 0.14749030440590083
Ni 3.5609577575304208 4.402505434319429 0.4661195889719477 -0.3288541216307949 1.2341907096724678 -0.3165357092747581
Ni 6.252869604088328 5.800619913751938 4.72717621351745 -0.5772977632233218 -0.21625111602038238 -0.9434205393975881
Ni 5.153149107087006 2.798926110632687 9.279370846546774 2.7270135714346906 1.6954810695895186 0.7326736410248866
P 0.2336287391265276 5.6995720763147295 12.337568617000825 0.7286328952966096 1.6182261044610973 0.1187170889279504
P 4.184898866451144 6.104253817294051 12.438650055318643 0.7914693710068562 -0.4062872642082938 0.5246186876620513
P 2.3308295184963566 8.603133145422433 0.8637260742536573 -0.7821324098766466 1.5488024624516359 2.4135225625235277
P 6.294489289445992 7.864830985288735 5.492629701445681 1.2390007294666017 -0.0011793650200818398 1.6389067727389002
P 4.592686418556872 1.1505849651855413 12.423445202777874 0.7472813636357324 -0.9307851100217649 0.7815773087041249
P 4.198393706608572 6.199162683031111 8.079062026853846 -0.45446150992067536 0.22014762286131118 -0.10052910516501395
P 4.6463116077423425 1.1899434020915236 3.578889730191831 0.8787364689556414 -0.774691380217569 -0.3022606874129827
P 0.29112983529664715 5.739584368194692 3.4002792545981144 -0.4003657565175363 -0.09824647977842434 0.6716721616408498
Ni 0.9251230563104097 -0.03321492454629211 4.712223821647192 -0.488041916979282 2.1049043083236327 -0.4638218680896528
Ni 1.6807160479782544 6.928783102121404 4.80074397940932 0.8744638097222167 -1.3899036590984772 -0.29988267409910935
Ni 6.456118606486295 5.5227678750866325 9.062361829474154 -1.098368842743431 1.2704622904099927 -0.8879903834537416
Ni 8.824372240923942 2.1383782044881485 9.968052679210635 -0.29500554851246613 1.8896363821521265 -0.13269154883017148
Ni 2.248434710455753 5.621027747565343 6.668881198755676 0.06332087154583288 -1.4901116334786466 1.3619470259845512
Ni 0.8120851532878364 0.2883364215466979 9.009182533055663 0.13777899065540788 -0.3979795156735469 0.004641612537069426
Ni 1.5615782229275896 1.3969520705898772 11.39432923725162 0.03594067976066714 -0.231200281131047 -0.2239813947851046
Ni 4.34422152844435 6.566211437730232 1.4085189467059709 -0.174693347183254 0.9400354249754391 -0.4239900808046956
Ni 5.658306562401305 7.968031095348629 7.695391733837001 0.09234991178833128 -0.2673723601762298 1.163939172445073
Ni 5.18405283592666 3.0996267481109707 4.715931724228805 0.1965225272432035 -1.788856594428887 -0.961147781474022
Ni 0.5720186670633275 7.728157133088681 6.9392157214840235 1.012175694585115 -0.0876753891307974 0.32260814072108307
Ni 5.486288216329981 4.7349725259502575 6.942989917694943 -0.6152369614712565 -0.0009173696079468071 0.2513237913537994
Ni 0.8837240470064639 8.058036048780837 11.962338501939776 0.399547374381299 -0.6212140049902978 -0.42934697424123475
Ni 5.085956427191445 0.5346444983769939 10.353344895815713 -0.6957502856359759 -1.6169716632287054 -0.33317177516954233
Ni 8.405487316898714 7.382594779340081 4.710681813666889 -1.136073042162424 -0.27665635658131704 -0.8800474744575811
Ni 7.53240021893424 6.40043195786897 6.695716496646118 0.3072648254957934 -0.7598445450127237 1.5490426034868998
Ni 2.327859927156196 5.653529788563614 2.6837250374045283 -0.30142867842999055 -0.7175190447716352 -0.9002514602092817
Ni 2.2869485846870106 5.632915194245069 11.471127228341333 -0.0823172101426776 -0.44375183681265506 -0.43193041869769483
Ni 1.4330684765832071 3.3187498962661266 3.5650534324368808 -0.4150459842375303 0.1478651712468163 0.2629981423679341
Ni 1.8093166075134677 1.1629628030957522 2.3838971146901264 -0.32846614216375686 -0.6087945482800224 1.3208859942781832
Ni 1.4293269731209863 3.4518003021520394 8.228191816308225 -0.8698463655548633 0.5546077778249738 -1.6169492946312023
Ni 3.799778286776734 2.882092830795351 6.97951498304701 -0.2751849142421132 0.2422208006112667 -0.21354580127407738
Ni 4.046136310861987 6.811016556252281 5.8157839003568315 1.4962462856214747 0.5516998601495595 -0.09504442790135889
Ni 0.28028401591574853 0.4744008438437902 0.7502095857154067 0.689807952009612 -0.589212769493353 -1.182530562294015
P 0.4136795119268175 5.59995000597356 7.7713524273072565 -1.1945363285056394 0.6981033592491848 0.5872129654545049
P 8.740933081188786 1.7847970459892055 7.443386037413993 -0.5307535969151956 -0.4039205637483302 2.8253114732763405
P 1.9706553223431125 3.550704948285646 10.275842194365154 0.17972319629767758 -0.752727217241652 1.8072350969360744
P 4.134361325753916 6.152984175493751 3.691667907488629 0.5635994398006229 0.5055426448672067 0.016048054601798166
P 7.235441084918175 3.8060988848585438 10.172568525620687 -0.6173871750450399 -0.048195328758304096 -0.23652580710901847
P 6.570325275274858 7.722708341638845 10.066436057628874 -0.1590597544110551 0.5850756073965278 -0.8745877368945905
P 2.7299262482395967 8.533579322565277 6.040994256693363 -1.2806490011350071 0.29420799231183525 -1.3347460400897269
P 7.108756683709488 4.049151308797563 1.1664055311601402 -0.4984109189184319 -0.20290220551730218 1.0620514963696355
Ni 5.256067696255326 2.929342933984512 0.24011643347946568 0.9412541278738887 -0.20344985049065606 0.4282884510697333
Ni 1.7085684536059995 1.1851847908920001 6.865434544593702 -0.5374050407934422 0.4434505035221524 0.9496102131480678
Ni 7.009025637539323 1.0224021463281487 8.819314854326587 -0.08186238199344611 -0.6858883052402316 0.6805211273910474
Ni 2.99964142500648 1.9124622296588636 9.142389137629804 -0.9800644158728671 -1.2187406936659848 0.6932005226309288
Ni 6.59846828311326 2.1374065033462606 2.1560958580191985 -1.375085363138722 -0.13239535774599134 1.4498967518226578
Ni 4.320555610913895 6.771767095175297 10.364948097208138 0.35129650979471116 0.8150337885903577 -1.1713526913003247
Ni 8.090964911776013 7.721900104240453 0.1966051093568001 0.24567250660529305 -2.0024088234608675 -0.6793343061717979
Ni 7.861171213698262 3.8391730489590485 7.967068475525825 0.6941526021315528 -0.0961605437836731 -0.5733398070168384
Ni 3.3701501622762464 8.274262256148496 12.3627565636096 0.7664900753536993 0.41686375417255944 -0.8397855416137407
Ni 0.20562467547009533 4.76370581952906 10.021032186609297 0.18831530884206277 0.10849695386183894 -0.2766797536200848
Ni 8.967284959334057 2.48424024176649 5.472134072407123 -0.9153471782001397 -1.5763266360138335 -0.6376582665892502
Ni 3.735909369665573 2.8722577622283967 11.48952234827598 -1.1776300396686041 0.06969489339297674 -0.05660643564013477
Ni 1.398123560751592 3.682847222263253 12.669123944195714 -0.5251030834976376 0.00881297030593966 -0.7294098826719502
Ni 3.1952893633319257 8.614057972279355 8.16714446503617 0.4677790529651879 -0.46616002930452616 0.6613831210100158
Ni 5.5781457588551335 8.110916569801496 3.567512653644574 -0.48660467031212323 0.059988207628174105 -1.0484033094585814
Ni 3.108453790259705 8.155451358584823 3.268720909437549 0.03663256362136917 0.5175293849154378 -0.5186727544912615
Ni 3.703389166029135 4.50958326762779 9.405905405990593 -0.979684663935945 0.7515064574606736 -1.0581866140975904
Ni 7.607847817876302 6.025437048972172 11.030184688395261 -0.6064913540681426 0.6166662377186154 1.736766558601867
Ni 7.653463283630512 8.895342749558056 2.3622454337322947 0.16753642442349856 0.06878292310166863 0.7696468758151261
Ni 4.7602549182774965 0.2603287253626324 1.3627836075398638 -1.1830828352530594 0.004575278075508249 0.18811887656054052
Ni 6.47112094561151 5.672019354216725 -0.055992689070423304 -1.0294581358146464 0.3728863201503449 0.5542128563794004
Ni 8.097730494492893 9.223714166282424 11.081900984309472 -0.7746859809009303 -0.7522682753273624 -0.2814157256431734
Ni 0.17649634451118024 4.731131127978124 5.46518323078095 -0.3832039000262691 1.9903688615771977 0.44562359991407124
Ni 7.3697719567948 6.187611245157458 2.4413691506391806 0.27909761903295804 -0.4142327443076157 0.4013517745798894
P 8.581319816984923 1.3888606152868705 3.487670604398218 2.9753921641172365 1.4365049038967843 -1.922457028226573
P 1.9678946013418621 3.340999128019624 1.4731425214329343 -2.249051407288914 1.6525269346254958 0.9485699448090116
P 4.78053350378997 1.2000781541882184 8.124292444678936 0.294323434843777 -2.2147058399295085 -1.453859850235464
P 8.630912900497513 1.8070371964236196 12.430489581990605 0.07430950934685267 -0.7704619155172537 -0.2499042852984535
P 6.261560426450816 7.6233950361465 1.3299800667480344 -0.7982848512667929 0.5833812504132404 -1.1705919018749
P 1.8636047329920007 3.278710360428915 5.983003677424666 1.0425342522723144 0.5873361212959305 -0.6826044922826373
P 6.888870704751356 3.84078044243675 5.563964370975026 2.7252937605301066 1.126717311979137 -0.15448139101175332
P 2.3504179237585174 8.409573910486092 10.316567369793137 -0.22995766697319747 0.4452723872222396 0.03105275554074652
