# total energy = -340887.8470596757 ev
CRYSTAL
PRIMVEC
9.12908938990202 0.00000000000000 0.00000000000000

0.00000000000000 9.12908938990202 0.00000000000000

0.00000000000000 0.00000000000000 13.36134510462390

PRIMCOORD
 96 1
Ni 6.665695987268062 2.1017628876695027 11.288479762310255 0.6171876574397241 0.8570718394980144 0.18644714528507245
Ni 5.069292106894491 0.41929451606117624 6.1090077613652305 -0.6429038312589057 0.028468796863654198 -0.7364763026004284
Ni 3.184765032900116 1.7069845414530296 4.753191905600599 -1.6873831230727325 -0.8598974818722674 -1.5056274697260588
Ni 3.8548584601728377 4.637559206393394 4.7059589094510885 -0.3081536558586499 -0.7689765892209789 -0.2131025430890717
Ni 3.900147873168396 2.9572042190036676 2.474961892132519 -0.630459949068598 -1.1212912558675592 0.38992347813828976
Ni 5.123181122196404 4.780831136962291 2.2549672676113413 1.131912483026831 1.2005452537038808 0.8496236107500851
Ni 5.985962241486308 3.467785065491993 0.07427974960283407 -0.10314777373478365 -0.6850634953460911 0.22517027288688318
Ni 5.744087015258266 8.146909016366092 12.523001057561526 1.2540594235719371 0.11092433235640897 -0.32316298478328864
Ni 2.183139591447452 6.485003918850185 0.001558335577170289 -1.0552874381729245 0.901929105022021 2.624557424450293
Ni 0.7793302863781945 0.189896929357893 0.20564734746739446 0.7131815937385458 0.46977757145245547 0.27269788615420126
Ni 7.82677923496814 8.980650501965437 6.961434667347423 0.7938728382420264 -0.8113843647632285 1.0179758462066597
Ni 0.030959481211819573 2.520103413878223 1.4244127471554653 -0.9234700644175903 0.0833821610720822 -0.6638323538814568
Ni 7.360857894300067 0.6475728763921041 4.698490401333438 0.079436803271089 1.289590012378379 -1.1996726212909403
Ni 1.0289214190492615 7.566673217014209 2.337273312700104 -1.340748280419749 -0.9308465593873195 -1.4306271049597683
Ni 8.093887264566414 4.1551781173618885 3.7564888692048193 -0.3266810252388761 -0.3663773153872335 0.22802882538160085
Ni 7.952002955601091 4.185550598119039 12.147253211310895 0.018233749399207307 -0.3096544087738925 0.6206331927861634
Ni 8.030923934304298 7.069375195744295 9.13218517143824 2.2045432975742094 0.4759163373603417 -0.3519212878629036
Ni 7.213167484414531 0.7920471080477798 0.20193911131363596 -0.03648781051338878 0.7627097823756607 -0.38830162626415055
Ni 1.7112113098902284 6.91661814118782 9.066968781888216 0.4016055424619084 -0.49223487201470717 -0.2142345998109859
Ni 0.21515711999661702 4.9450086824797514 1.2152087064199657 -1.1013232973860645 0.7382225958675738 -0.3132274708371315
Ni 6.905270682942813 2.052210189878757 6.857175900744768 -0.9769747212039497 0.6459091937441328 -0.12848908071304968
Ni 3.7938578841526156 4.522258806043888 0.3974276079885577 -0.6009082035534102 1.7887133839828033 0.9728355022245956
Ni 6.227645756834909 5.687084980437814 4.620593706471817 -0.24180711011261577 0.9074047834246114 0.08969216245051004
Ni 5.671939820961975 3.287375998848529 8.926046678955895 -0.6148721219326702 -1.1039764187381953 -0.42013651138656033
P 0.33843269293086836 5.908684498892597 12.244056250521194 0.06041038276725724 -0.5182909456718107 0.6681574636193719
P 4.262974406144705 6.568407280496511 12.692997484724495 0.0031799403898783943 -1.1059862500793727 -0.8014604207812972
P 2.486015393695716 8.666719372336075 1.3800398947454249 1.3675880263204125 1.069490469146184 -2.054340993553785
P 6.502969966980656 8.021073646736829 5.624778944619493 -0.09695424332956207 -2.5641390712632353 0.3860915059867092
P 5.093913261268413 1.5982296982730082 12.668906730450361 -0.6350141440981838 -0.6106454854458322 0.26473929342875696
P 4.032985254442004 6.471200735530435 8.187418438100922 -0.8601263100536218 -0.38203584786009687 -1.421264689908262
P 4.994296636675078 1.3274243874283718 3.6412742822965867 0.6966404015504132 -1.1494348081813108 -0.9760483527349384
P 0.2928675814324949 5.89639674442938 3.5716074616166824 0.8230479171440858 -1.0644552207151217 -0.31255949823582946
Ni 0.9273420402140312 8.920033347704097 4.100009203712472 0.021724279050969037 1.5306440463750544 1.1314473704649546
Ni 2.166278163146143 6.655836570611097 4.547934370254735 0.323811674110881 0.1247049310802691 0.5888276182397923
Ni 5.879215797995669 5.829873069263358 9.207703738485842 1.0812949179802798 -1.1251695078760429 -0.21695097030088445
Ni 8.826095016778014 2.6745402209021814 10.021329275378129 0.02346748699432087 -0.37989694714022315 0.34807646019551663
Ni 2.660271454018074 5.4224326759142825 6.810250554911313 -0.7619783035262748 0.1108428283861962 0.2852222438734572
Ni 0.6544452549655885 0.12966502267333452 9.470147716260003 -0.5367177849184305 0.4177106755538871 -0.8836385342429491
Ni 2.015702960979495 1.5905064885583855 11.483582098499445 -1.2642589898127583 -0.8921823100479022 0.6625701993395815
Ni 4.306812293910211 7.119466509815375 1.509350708746268 -0.08138827057050499 0.49898658891624387 -0.6221393450180447
Ni 5.659506001066803 8.025072187936598 8.029340037276533 -0.18539222165799685 0.6636922287591666 -0.006988772613007318
Ni 5.937806294388633 3.0626360736067118 4.308485656015045 -0.36960636384749246 0.6303236806010499 0.6658254730520856
Ni 0.9429984287017116 8.012063235403103 6.730684149580656 0.23377755493991997 -0.576004241222879 0.320288491448971
Ni 5.010117348773708 4.6170096259352205 6.958882173924009 1.162327862093895 2.1733974680990245 0.3429694779862545
Ni 1.1403145690939707 7.8370403315629815 11.47596569913194 -0.2136159923903805 0.3431268294997252 -0.21137476176468759
Ni 4.723573487635917 0.7338126461452065 10.669969342332456 0.3915638419551902 -0.9598012947484568 -0.21447705483909513
Ni 8.516253719243394 7.414372616932592 4.732842252202413 -1.455579918250364 -0.03529867530129405 1.2239163243296536
Ni 7.108968056893607 6.18430996899175 7.141732359099022 0.02677418277005066 0.09362569317696133 -2.0426689565324954
Ni 2.194149273381063 5.505480003070218 2.4192854011070577 1.9327787218675554 -0.7592097396422022 -0.23329367332496598
Ni 2.5812500553303996 5.738947337871348 11.300625102977316 0.66178729842697 -1.423805968272877 -1.5132366495318843
Ni 1.3177931980088367 3.6093681145039085 3.7437291408145974 0.29921110195338146 0.05407492746753268 0.23722077629351404
Ni 1.7839427659143392 1.504209205541451 2.559152181293502 0.7212707985045836 -0.5955032304877551 -0.5755823231941121
Ni 1.3429164523051027 3.5572866589224406 8.19596965623294 0.2756135171390996 -0.08526189459329832 -0.2694287284846263
Ni 4.293830728645206 2.657916148927799 6.349551966344582 0.22277169074771958 0.33511604338010675 1.3657684566131703
Ni 4.343273877361987 7.156201965952067 5.869331732797061 -0.04647603207435222 -0.11143341078234356 -0.13347213574993785
Ni 8.575757124586078 7.458995606394856 13.332551368902267 -1.1957308630343728 -0.13557092726049555 1.2500618723767696
P 0.17852117093544484 6.012263148327713 7.763917237599441 0.8115031497292797 0.09192567976671912 1.1319777890471279
P 8.866920305009447 1.5883611525265462 7.981373062331451 0.7918699488793847 0.8146098136790616 -0.23239970075578686
P 1.9163602090710763 3.472230932077124 10.430133554698084 0.5312688459887173 1.2374750368506946 -0.8155667782756921
P 4.188380615863168 6.3420697645926865 3.4723067035199504 -0.3331136682380973 0.20914304422069144 1.3170540221266027
P 6.976587130094859 4.244177610869992 10.210338857236897 1.8414215130097964 -0.16689339152286098 0.46254994335576466
P 6.5541293845229065 8.077080610802089 10.10181863165695 -2.61100745368 1.180368778756006 1.006735240295834
P 2.5772058686831443 8.645704208313544 5.417263785440974 1.003460169088988 0.8195337333432402 1.715582211214768
P 7.124788768992237 4.216626018767473 1.7704052390989564 1.1990447578989543 0.8188919859941833 -0.7235943044314377
Ni 3.0599521212945384 1.7661045250368304 0.34957292084428904 -0.3805739186025897 -0.15792821190977316 0.054256704461035594
Ni 2.05278532251708 1.3014247405403752 7.0185407737881444 -0.7354702299334173 0.3988722026911453 -0.39701046689205816
Ni 7.0653127509180464 0.9089670088740877 9.150744610386027 -0.6573606301141841 0.055093341429718015 0.004361105182173135
Ni 3.218780020366645 2.0473717724452465 9.430196994802401 -0.08830968028068663 -0.7860075765613367 -1.1330447968590616
Ni 6.884693715216146 2.143501084850654 2.2520277007932457 -0.8162378362007878 -0.5151940519140418 0.7234238402918445
Ni 4.315996157944383 7.101527848953397 10.19466603638812 -0.7387342453966697 2.157854378158103 1.79551292340314
Ni 7.3659062807920135 6.512555510952705 11.381100765621893 0.3067745161229362 -0.4420466811960903 0.2781393688847468
Ni 8.171256298055097 4.0010151830228455 7.837084151192567 -0.8121685512274205 0.3060669485329503 0.6858055157184382
Ni 3.4363079649056822 8.62454297885906 12.562336478387017 -1.3257692905124134 0.4496093240346966 -0.13787309303111095
Ni 0.3894670419470082 5.161167263594209 10.25683696168188 -0.6788424541370438 -0.516468290640775 -1.1787782943404344
Ni 0.07895201760749578 2.676019133400726 5.999097175454865 0.1498186954287613 -0.15759165450596085 -0.9009924521403645
Ni 3.771162967662602 3.377534886722775 11.965258421821769 -0.24402288681701195 -1.7132867303123718 -2.6289226433975244
Ni 1.2272874047336975 3.7914843208833466 12.529039950263916 0.04568207541814713 -0.199534831706966 0.21062065720748244
Ni 3.1006678604520044 8.712565659790963 8.249642312113767 1.2688175557177181 -0.19951811953641768 -0.5367131569327401
Ni 5.538700759750492 8.157124467513448 3.6491837254369517 1.1152658756090859 -0.07842173174301333 -0.4376009867199108
Ni 3.374558803546691 8.94630686727701 3.264377083678259 -0.0013349167613396363 -0.6207987718297502 0.539991827684012
Ni 3.4847560428672684 4.386372308878219 9.008914163048736 0.1702175708000875 1.369220933938145 0.6063406874228913
Ni 5.40476788773722 5.053526169332845 11.604915914097646 -0.176368935113464 -0.21177096876184176 -0.29665825362454074
Ni 8.325054068814254 0.06629088338384331 2.2995546536245652 1.1013166125178453 0.4153961684880976 0.5089454999011687
Ni 4.9041012324428435 0.3936682489336149 1.1505227169697283 0.01912797907870254 0.3411483656171157 1.2165675972740662
Ni 6.405297838450222 5.936719932738467 0.35410916541544263 0.2248712535892256 0.4384317101513223 0.16004680091467274
Ni 7.949602005063331 9.060931715003724 11.384026638805743 1.136368719025972 0.18630213506677593 0.04819250054482668
Ni 0.32922235453715365 5.290426041784919 5.857893896566032 -0.10759115421811793 -0.8382878740222919 -1.5014008332392208
Ni 7.530357698994389 6.515202946906889 2.563093209229439 0.05075743305852549 -0.22473189979788397 -0.31344498616457633
P 9.099054792743988 1.7672365321344818 3.736674180451169 -0.9307545138941454 0.46686939666672495 0.01806225681834954
P 2.0575780945031044 3.519784359267985 1.2786166233405964 -0.35066916062335735 0.08216140129110366 0.89704452323621
P 4.810181159695755 1.3906250740174162 8.043422570734899 0.7429919922317592 -0.624913308218756 0.5561923487032743
P 8.93292362207413 1.8206599638720362 12.582806635766566 -0.35400516697512585 1.1042877793310273 -1.327044043459779
P 6.651226380415016 8.23530598996738 1.5119561508887662 -0.8526541700462928 -1.3072722601494906 -0.8501900247765164
P 2.2248321431811178 3.474869238941812 5.74696815590358 -0.5432782117447675 -0.13597304779492064 1.2939665441795198
P 6.9816263874973075 4.10830024279382 5.936231526450367 0.562761774390676 0.09999457281778262 0.4847519333741006
P 2.635047779737339 8.978276938696167 10.287634858009602 0.4152987236782848 -0.5290906073904759 0.8540829320730193
