# total energy = -340853.6833374397 ev
CRYSTAL
PRIMVEC
9.43166900637966 0.00000000000000 0.00000000000000
0.00000000000000 9.43166900637966 0.00000000000000
0.00000000000000 0.00000000000000 13.80420095854551
PRIMCOORD
 96 1
Ni 1.7763227735175693 7.067969980662277 7.02428154765313 0.5059164832668578 -1.6572482513605655 -2.0660675379620934
Ni 7.025008729316956 0.8493755351874637 12.001592926815075 -1.5164024488543755 -0.8277736047545292 0.6303653324722628
Ni 6.491110254036026 8.084147407928208 12.884675359929632 0.5404790517330756 -1.167052521263074 -0.13111854791609678
Ni 1.6910133292983738 7.162126330207908 10.92514147697013 -1.1020180094602439 0.08359222020035927 -0.16585440873538532
Ni 5.146974839551757 0.17804255494418755 0.3711408827802603 3.5528025416590236 0.8770187149335863 -3.0895928532320727
Ni 7.275098858992599 9.402185394866374 6.859168867455222 -0.2488820146815262 -0.26587803501889046 0.09228049200297657
Ni 2.3521355849079626 2.0630266414418488 11.495006678020598 1.9552352510988584 -1.9352438955785962 -2.125942102830539
Ni 6.825029055930598 4.79551313370498 10.71880957465269 -0.8363335785093983 -1.885019709315721 -0.2540967261132463
Ni 5.119028804922517 9.023720821269507 9.628719931735223 1.7998627157314036 -0.32613286604488995 -0.19773094572900785
Ni 8.955577014250856 7.100320604617152 0.09315281998621412 -0.007707395946586725 0.9954612100439114 0.6449455442792829
Ni 4.277714517051156 3.2025985915070874 12.516213071086161 0.20153823529023998 0.19525394494342502 -0.419370065534181
Ni 6.641507644585423 4.47779793879422 13.441964373813503 -1.9923416690328528 0.06639976758147274 -1.5202519045074527
Ni 3.803839181959388 4.377935429629726 10.349008932007704 -0.986610701631817 0.6139346977200651 0.27366744915632224
Ni 0.7954339350350674 1.3982826250163203 1.0142646848350132 -1.177712057859449 -1.608091072909624 -0.6639598805982565
Ni 5.3469450812693236 0.12484888612695802 5.444984448856418 -0.1840763310600507 -1.2819263251855342 -0.17536389088771734
Ni 1.3283090742521177 5.049960694362299 0.7143951504446671 -2.6755190030998244 1.016876442494894 0.6474788522240977
Ni 5.046348365215152 5.53548414041158 5.120571825936808 1.6297508172712445 -0.9862211795028822 -0.5675208863422161
Ni 7.9104726588013685 2.8479489816087797 -0.02782530926870876 1.767358315345795 -3.1762755394322975 1.5767925199066588
Ni 5.78805479897939 2.0084361424765964 4.518059846531412 1.228342221311491 2.931800138458899 -1.119939369825355
Ni 3.4488688953221693 4.496359462975909 1.0896633314880915 1.8962464312694762 -1.269201678530014 0.48769841759693433
Ni 8.58975087683461 3.526500961145077 9.601884004522745 -0.009687145380776866 0.04448059891087823 -1.0549997317291766
Ni 9.036736524201789 0.9830628381389445 8.039911938129153 -1.4260903934316793 1.6029578654481167 -0.9443705620156833
Ni 8.49915026642338 9.049176895337789 10.186077796801271 0.3367985732888522 0.8116630723459117 -0.11889449504607912
Ni 6.795121234192725 5.95966401264089 3.252670377954327 -0.1427461048526961 2.187767877888084 1.4408104732506735
P 9.07963175386557 4.5855830497435806 2.0053774522875103 -0.9666314302964126 -0.6057688740798213 0.39709839862017415
P 6.4792546463651 2.950744739767432 11.884326159229612 0.11298609998144413 -0.09986010412244736 -0.15339792813958744
P 4.569813299524178 6.6654735149846465 10.542626944794188 -0.21611227644967296 0.29197241811309715 1.28957201465625
P 6.411714466149108 3.956717101400951 6.049814732450766 0.7406713145183824 0.18927021655616436 -0.40477725532167064
P 1.0435858567740552 6.264071122886831 5.0073635054323296 0.29665953917612137 0.12291081529432381 0.45907381188170615
P 1.2221556420036883 8.308055225038624 0.6411525832773277 1.8332312638895203 0.27275290776185285 -0.3464324968341905
P 5.458002981289337 7.844733927324554 4.327341128731437 0.24527501405655824 -2.277920782025096 -1.2681459835719902
P 7.593464839049973 0.34721839805747784 0.4609558351811595 0.2459967227139312 0.8545398171047799 -1.202589280717103
Ni 1.917637467020743 7.505391915874864 2.992267661622049 -0.6366233975668326 0.8059606226444959 0.09750985872271593
Ni 3.4654969274015985 7.056953791513795 5.093529345177794 -1.61580515372443 0.47277856306230837 -1.1973180050158347
Ni 7.5875040243737395 6.9316163449434365 10.037711044542686 0.08591958278195526 -0.34029167404377525 -0.2504573295884461
Ni 9.495804139290888 8.79817189378937 2.3327997207184907 -1.2968004140838894 1.4429113216437601 0.5389759848249879
Ni 6.996261002840437 6.978482307168443 7.64439396419036 0.30822076165115947 0.841865564071221 0.11867466572578918
Ni 0.7331151266620534 3.402087818116286 5.278947465116942 0.010154057714866382 0.6555315473252452 -1.1843755859225538
Ni 3.2222541892685914 7.654931024564234 9.135247475228459 0.2944730730477638 -2.301781647803094 -1.2292691040011345
Ni 5.181485315659888 2.48865899066505 9.816954347975514 1.5412480471431456 -1.2714771048277522 1.579596565014357
Ni 3.3796781730676617 8.741015980912827 6.646156514132758 0.7291013502925959 1.42105694477283 1.8115455513859704
Ni 9.043442440712552 8.007335897290162 6.651498611336268 0.3513204210541111 -0.6189038687998825 -0.6906924114970944
Ni 3.4390788231165828 8.920491206346446 1.428389454965695 -2.552120192425489 0.20171666984963324 3.104897859020259
Ni 8.226801398399775 3.799859017729371 4.048606077769103 -0.8956792674575671 1.6330582843779229 -0.7590865838007765
Ni 7.061028272431726 8.265358060419464 1.773025462108058 0.3281542673502929 0.23394467664540353 1.2729171797083885
Ni 1.4364620202843472 3.2011272511756115 12.954869611743558 -0.907329707212302 1.3489773531977607 3.100471190707473
Ni 1.766155434560323 9.045602292865807 5.054739720938957 -0.47599012802107055 0.013162505523887008 -0.3468816685564671
Ni 2.7351933812062943 8.725887584171247 12.110162752607891 0.45025724203134065 1.0623492301157123 1.1716648232241047
Ni 7.063867204737971 2.5894080766959453 7.650135964150631 1.5335825601780877 -0.3429237123499836 0.6184330998110511
Ni 8.932459994042869 5.402261818731522 6.920943468538965 2.6418522069749986 0.5783182340680362 -0.3980833882412628
Ni 4.005610872416132 6.195710387485976 7.346181574006683 -0.20628037796091572 -0.10623438307990737 -1.3521254119084392
Ni 1.4288883902447658 5.271350255905382 9.640701923767956 0.33219809840236336 -1.878076959449301 -0.6424040088043517
Ni 7.280871040293001 6.031090040398984 5.471405382642071 0.4642584414064392 -0.15386201226019952 0.3356078954148607
Ni 4.769594907865915 5.752148435890117 12.903020898895997 1.1145503375993 1.4441158834748227 -0.9711023215835727
Ni 7.024678620909253 6.155540910102941 0.9018835216835505 -0.6654508633214862 0.1574024213132902 0.5299717244438485
Ni 1.319839435677343 1.6320182410074873 3.6760589331720293 2.133853130147499 0.3313450063734487 -0.5178368888535275
P 6.730250216244728 2.668568072863077 2.153331097453027 -0.6244379112442343 -0.05868542965635054 0.21313699587143295
P 3.947172252583944 4.072736059205299 3.6968482175222723 -0.6104400543032454 0.419254108781607 0.15337453110081972
P 4.669383426956134 0.7724697078615023 11.391819505607097 -1.3033538989316908 0.43075542455298715 1.5975613770228938
P 2.763790200982148 5.258872158094215 13.018686169120663 -0.8760854044860397 -0.5140591669786502 -2.929600559704419
P 5.213675601245307 8.061134136076928 7.593014005281738 -0.28038162795170424 0.8631363005245394 -0.20946906010154245
P 0.6505220030548123 3.8194957521532924 11.09991595867806 0.6284218355926467 0.2738955060067283 -0.8637675063506349
P 2.352795801723368 1.3462009499496097 7.13009072399067 -0.9286138134020588 -1.0770078605691518 -0.14519276662097574
P 7.385930398961616 6.16171865316138 12.176947456153682 0.5888134771724053 1.5025796840386703 1.229055445328432
Ni 3.7083718304517377 1.9967125781687514 5.624990677242997 -0.5179371618768176 -0.33866493707362966 -0.67166881920674
Ni 1.171309515548665 3.205248890437501 7.422422468682842 -0.007834665553070379 0.06880400614759118 1.3266915452163668
Ni 4.9221332872309835 2.481368310689214 0.8196516309910242 0.7063118632019062 0.7380495606248192 1.2656440430857427
Ni 2.9994876040819487 2.2940365051522695 8.870509963919604 1.037396931045749 0.961169378740577 0.12151702027059072
Ni 5.371439125120871 5.501209456023238 8.988577480185466 0.04754535387913102 0.6438217150874846 0.7207982297435394
Ni 1.591065935114757 5.171534905084846 3.173365134087806 -0.49480520384504456 -1.2964072924105285 0.7253796784666345
Ni 5.382851444358597 1.1221044994633647 7.454475051903905 -2.5122979182222283 -0.4425130793095476 1.5549242590786574
Ni 4.877559220522313 3.4992434383376168 7.776210024053606 -0.32040444820154496 0.8381870867783693 -1.9270045383879395
Ni 8.801010826095613 6.579711350663459 2.6212522200367157 1.3214657780410533 0.18111416310793324 0.32847205570102783
Ni 3.1365203199537777 4.397826819111018 5.652033158002012 -1.6499853991505649 0.00309509398555596 0.868594495425633
Ni 2.861068432897768 0.18437497737080644 9.861679321384848 -1.1306457004992656 1.8892674288484816 1.6584307017044406
Ni 1.2267677280427358 8.996057736704012 8.201959325969822 1.385760326354065 0.345495843952534 0.452107407866202
Ni 7.67128553824871 8.259538720775103 4.484046419368594 -0.588940746778889 -0.22041681736229782 -0.5896650265394232
Ni 3.714210033433681 6.168311389646644 2.7247695008579185 1.8571121842721758 0.5023593620432187 0.8823074741363515
Ni 7.258027538479968 4.778536129880264 8.185269988043247 -0.010726128168252495 -0.5647620926501564 0.06072868533862445
Ni 0.9149501556273066 1.8669045205912183 9.706893375346764 -0.5804203680127036 -0.853210299660079 0.4437598072324551
Ni 0.04673674836256271 5.6242078487333025 12.2672547416655 1.020725898147971 -0.7216803752381765 -0.9281463868473372
Ni 3.192035122460598 1.1413639671356253 13.684725153671264 -1.3658311915303059 1.7198078192603412 -0.7130021307378882
Ni 5.482581910160008 4.613283860984241 2.3496267610094215 0.14439752441319004 -2.757886349754147 -1.581819797917921
Ni 8.078196024920766 2.0208199235998476 5.625473578685123 0.5699068700758896 -0.727999632587985 -0.529308636938553
Ni 8.567048850053451 1.7676927965733389 2.9773731702664987 -1.2617537068924012 -0.26142925521891747 -0.904640590415913
Ni 3.1664281416916515 6.9240332832350635 0.5183088699354443 -1.540207264583457 -0.4431016048231659 -0.6626851276508909
Ni 5.576936324750261 0.579029953615177 2.5601274609327067 -0.18544595771406772 0.6780680378648645 1.4694451062682305
Ni 8.767198293478055 2.199257665466399 11.548359742040404 0.5518710956201012 -0.7043128304940064 0.5223969974203841
P 2.9774646574537766 4.433157850404009 8.133352424013509 -0.9283258498479948 0.08736325720701729 0.17689909658532116
P 3.535800586573504 0.9769794117684214 3.2715261702023115 -0.34318236532800894 -0.16269889382553915 0.665540594821815
P 7.099301984387669 0.9191208395669117 9.09959105136216 -0.22471313074480656 -0.13620958928575896 -0.45412263852401796
P 9.2052238554933 0.32729494090229505 4.466155486837982 -0.15660049423728514 -0.07633888107205562 0.930089883726953
P 0.6324924249929644 6.978736962225814 8.745927050852565 -2.0932183873452725 0.8583787312348958 0.8775087671961274
P 5.150360808647909 7.5639531474013415 0.9213325658985204 0.322615854030567 -1.496881090991996 0.1564130608168274
P 2.0880394270769296 2.8883542507116027 1.3966952751587094 0.7194710262916835 0.030710284599663237 0.5390628881118393
P 0.7713718616141708 0.18369023821654293 11.430264873935045 1.1674289307658863 0.39897273282475154 -0.5197451616198339
