# total energy = -340887.86532912677 ev
CRYSTAL
PRIMVEC
9.08758074866044 0.00000000000000 0.00000000000000
0.00000000000000 9.08758074866044 0.00000000000000
0.00000000000000 0.00000000000000 13.30059301240722
PRIMCOORD
 96 1
Ni 6.576764039940182 2.2373351393186387 11.091191575981103 -1.1927360420721071 0.6358633794723565 0.7162933998946502
Ni 4.700460312112548 0.26593714809681995 5.605627892620511 -0.38454575876614416 -0.12574391386774475 -0.09430883528691501
Ni 2.816241301375915 1.7660622846943939 4.630162421790109 -0.6220208171623094 -1.2800396496857827 2.1442177612112747
Ni 3.8822236211329213 4.133467968532534 5.068483708299515 -0.10715252401880256 0.95992393636925 -0.5109527601391844
Ni 3.476872077900031 2.9696487534847464 2.9248006332962335 0.6228875360379789 0.7192851355331226 -2.239618544010788
Ni 5.421114560064827 4.504068602644864 2.76023181440344 -0.6098790395934529 1.189018484011204 0.6098001067264014
Ni 4.913109703697563 4.855957907813881 10.994017165333338 0.8643087235660858 -1.2976799884753651 0.10285183976091965
Ni 5.667333475261597 8.011802105067234 12.22300524007918 -0.5206301353279484 0.00024219791779313127 0.0007769873753405973
Ni 2.184081915614015 6.4206303135802605 0.35258450510304434 0.02074571718778363 -0.07556755012366986 -0.6605868503609655
Ni 2.9094435304398436 1.6297122218165485 13.447165991884424 0.22591666413460446 1.3617369668562742 1.5531872217828928
Ni 8.26644520769987 9.0201509871562 6.622405505935762 -0.028493222343686415 0.12133678593898457 1.1583105134043858
Ni -0.3204208302467688 2.4199228134949697 1.1498470595109513 0.4610265647327027 1.0727179749445461 0.21521984654239062
Ni 7.076662774200871 0.8502604170910121 4.770762746225404 0.5298804502816229 -0.47382911581400977 -0.9835289773826996
Ni 0.9834761733381875 7.341911083670249 2.2159320689314153 -0.1225557459477502 0.5875009290085688 0.5295148394120881
Ni 7.653778682833265 4.061530678627107 3.3681628008959033 1.1360799841409595 -0.8485275494724289 0.80134600669062
Ni 7.855613853222291 4.1582679766366155 12.391311780970216 0.015536147962386147 -0.15270784405109827 -0.5019934940633677
Ni 8.311292419130302 7.426970840304255 9.258861743065468 0.20219000994162598 -1.0164118441536494 -0.3966751950398265
Ni 6.9485642347229915 0.9187362474556381 0.20815285658688484 0.8002669146938283 -0.7715649187734454 -0.06833580826192101
Ni 1.8502859838913992 6.483143782157753 9.071895672441885 0.7533267984988639 1.0558075723424527 0.6943035258871204
Ni 9.185544958388988 4.901304936190344 1.0909004664119684 0.4478103231527449 0.4302435179135751 0.8794815746517822
Ni 6.074366220949327 1.9157074783367207 6.61546259417632 0.7616759417945077 1.4141375919451775 1.4282097537675273
Ni 4.137421066196614 4.478986879534837 0.8065109854256879 -1.637461298541625 0.2913628095535563 -0.7456623399750707
Ni 6.331081292012793 5.643605801696277 5.009548929055619 0.233351780256411 0.12107864718159148 -1.7879986173039661
Ni 5.228703211003736 2.9455030512009266 9.11521526153362 0.5000379129988938 -0.501370258657072 -0.343364399431828
P 0.41396384359208344 5.89110606579106 12.433607199701628 -0.6753521815955982 0.4527005613655107 -0.8546683722628443
P 4.026534404823949 6.0826631822534765 12.442119536671614 0.6015306676287576 0.8738202626009467 1.5856535698417145
P 2.6317724979663324 8.664381284969798 1.1375442925738664 -2.097640427672368 -0.44161113632056853 1.8066090333163016
P 6.522038628139969 7.904159710053365 5.598113372026423 0.007730792985354428 -0.014131040084743404 0.40470680709505136
P 5.016635424592285 1.0879015647357695 12.381907952320125 -0.7080015921995032 0.311107082060019 -0.4003930102110459
P 4.3872386634048235 6.336706504550875 7.951426944260679 -1.342947859174229 -0.43388394287963983 0.247819891965599
P 4.653286679987854 1.0667184138048005 3.340231212435403 -0.233931564019281 -0.30888127805329385 -0.06003962969139983
P 0.30048086037429694 5.600021764002186 3.479235757675726 -0.43471183809757385 1.112745423180077 -0.6737421567960009
Ni 0.6371748216258217 9.118115108578698 4.607139035739655 0.5963606933920438 0.8092894299074127 0.04478141798074868
Ni 1.8642081577336316 6.629753723800532 4.637305260327965 -0.2893552922052242 0.22242356337968144 0.8525137878136867
Ni 6.186434267830796 5.718305716176142 8.942906550041982 -0.44321473336226247 0.2531862984838349 0.13948774581639847
Ni 8.771823753205252 2.4502480707479264 10.086371401531133 0.9488275693457725 -0.10102352830292924 0.4615698388306825
Ni 2.325630074730605 5.36840659121042 6.62978734784963 0.6079509693328046 -0.10246694561767512 1.042508027020069
Ni 0.7603351696768939 -0.031765638815616365 8.96479944103632 0.6572670419591131 0.7400455080089255 0.38427579293420916
Ni 1.9312199788254227 1.4425716696408974 11.375332057252452 -1.6595385900566386 -1.0248021250998736 -0.7996969011229712
Ni 4.359385228139521 6.940094609382938 1.3472175014347756 -0.07178468604246992 -0.24543930754856444 0.8530694032068404
Ni 5.978383192149286 7.955540892105574 7.9073758049115686 -1.2821947483555725 1.0843918117380487 -0.44422697667686073
Ni 5.6459140472288665 2.634707786576673 4.327666844744257 -0.2563482411515843 1.0730720158498552 1.0411237450780328
Ni 0.9782417267760948 7.33576787902446 6.952619113292446 -0.5288939179986376 0.974803938804876 -0.6437998607106138
Ni 5.405974650390441 4.5790229693881646 6.910430019256829 -0.661687539624312 -0.4684673372814642 0.7776031545477252
Ni 0.9021868539934386 8.2931990456839 11.836370478338106 -1.0837323237771788 -1.2058833780873426 -0.4589429427307967
Ni 4.532394592113689 0.4661247400801037 10.163103299086144 1.0953475394186039 -1.1825655292970083 1.0931114509992337
Ni 8.375968731946992 7.227071324633504 4.729318833818418 -0.22071480821869088 -0.033975585614496324 -0.3394833192098669
Ni 7.462594157185164 6.334898075964318 7.082578789325736 1.069096833252191 -0.2847033952555097 -0.40973845598168784
Ni 2.5902422535413954 5.4147805162214615 2.713068178617667 -0.653209841170604 -0.6063514860561687 -1.299431681059149
Ni 2.2601904051236095 5.430147615416772 11.209580035334685 -0.535996847592006 0.10180102989890209 0.8551028886971016
Ni 1.0326218105045022 3.5861047995603688 3.4567040097485515 -0.08400205404426822 -1.0811558212992542 0.28660035516790644
Ni 1.5691525831190036 1.305249235613497 2.538683863662866 0.5783467733131266 -0.4368252848961509 -0.6530339777143721
Ni 1.1176633919768346 3.447073900335618 7.920450107461712 0.04284640574156492 0.1389205604590188 0.6518641257759871
Ni 3.596219277031912 2.878745682372571 7.2075648323669546 0.5795616195568342 0.03963509789311883 -1.2919700825747813
Ni 4.415255675125191 6.919874742020688 5.847034025006023 -0.5505174098056841 0.2674638914487716 0.13098227944854862
Ni 0.3693629056023356 0.1915407588169101 0.7014549159180206 0.5662975554580763 -0.4053464975615793 -0.7222601590010465
P 0.3336523479453921 5.540797999687675 8.028051608361814 -0.9224804468108112 0.5993688840907484 -1.6059837967586341
P 8.772614372738069 1.6999046962012776 7.9733861745951256 1.5224396561873907 -0.12333761841909724 -0.9252816637050323
P 2.02448582095521 3.5156306101696932 10.342514863759954 -0.9076233271933207 -0.6484011069280511 -1.0976083104283225
P 4.161357754121184 6.186379742345775 3.8241203555356087 1.0288793804930407 -0.04442609152385897 -0.2446515215399464
P 6.92112882817619 4.193791330128318 10.282089721258796 0.16215921927198526 -0.3088432257265068 0.6799886519263452
P 6.467276866016409 8.075705973512783 10.055554506154895 -0.8836120518803879 -0.4422482556839351 0.39147770999928705
P 2.3905699273915677 8.799286422494566 5.8071322750670715 0.8351796674106133 -1.36598365794777 -0.43550785163630795
P 6.984778244358303 4.16427486756985 1.192844039482975 1.16750040743377 -0.3663305213096981 1.330494978122857
Ni 5.664307310842887 2.9257193877188503 0.10522418975315129 -0.9947176470096675 0.3259911982607031 -1.6752765696171859
Ni 1.9120270080977495 1.2394006248688378 7.149188939344533 -1.2423503626651249 0.044159725236349756 -0.8040379517004861
Ni 7.1379039814611875 0.8543634598389024 8.881244587788915 -1.5557999768153914 -0.08161298498680139 0.6621130571975049
Ni 2.895266904334176 1.8194972600157568 9.209796076610518 -0.4428699484283341 -0.07576989594246306 -0.18511274274436504
Ni 6.545975316064538 2.2054104678383757 2.1442019758690716 -0.15083942338379183 -0.9651890414229312 1.4615929572136634
Ni 3.953152189565445 6.845929096750292 10.34639798705159 0.715563206596845 1.8989705150688587 -0.9317490165969308
Ni 7.930222891893785 7.440629474302216 -0.11955712224921484 1.7801564955517275 0.2692742051846331 -0.5853412023530887
Ni 7.593264482039905 3.7081782729433392 8.294755748281274 0.6345500599775716 -0.5361781103648766 -0.6668436299039547
Ni 3.1916310905893273 8.597523952752235 12.411754294062973 1.7514575849551386 -1.0684874818029662 -0.7496395794552637
Ni 0.029910863566791505 4.933711249454967 10.00018387611526 -0.13215547382104337 -0.17236572749134188 1.7771331353443716
Ni 9.089125725708774 2.398812363210696 5.814460500254001 -1.1010494748993878 -0.17445449169957053 -0.5640354988967771
Ni 3.8428925712705304 2.8307814307150614 11.295622159457167 0.9880824010813369 -0.3977522301540892 0.9613506415134476
Ni 1.178813723428782 3.417348423417901 12.48799364473662 0.6067636338929228 1.1545867846958955 0.5393498232246389
Ni 3.169884509646466 8.299514914365593 8.030911470051207 0.7304727767188259 0.1859306106599701 -0.3408038377935034
Ni 5.824257821154334 8.128959197217405 3.3234055565157594 -1.260732207606422 -0.18398479978750892 1.4873757226047222
Ni 3.0932216777058166 8.353504232118011 3.7213997943030415 1.1659238069752693 0.7583281083681972 -0.9635409642965469
Ni 3.504162083153442 4.568690389976533 8.857130692038023 -0.4466538409507985 0.5439677816126244 0.8059577944310184
Ni 6.951481348171658 6.227610096603092 11.077864638683693 1.1007599686834266 0.325053259827466 1.7248770062531324
Ni 8.17199798006128 8.900821963185992 2.7857561027002276 -0.6070084029138771 -1.1757945291217622 -1.314385217045188
Ni 4.741908768309951 0.1703021736428357 1.157239806521824 -0.08219585407346489 1.5637544557757779 0.5990444108717942
Ni 6.287869845133017 5.891415043539516 0.3057089456298038 -1.3888767604958596 -0.03597153299860257 -1.0254374446910275
Ni 7.658622363419368 0.2522385287431767 11.357483139730567 1.5496522120464409 -1.4216976636806224 -0.5388674842715816
Ni -0.08753612241207971 5.126222561905264 5.695699450086104 1.3372106995801358 -1.1386929962837744 -0.49536467589294053
Ni 7.456859893677039 6.285961453157254 2.4676589668734707 0.018835387538948208 0.5838674460210396 -0.06836717572048871
P 8.680257288691978 1.7137814321393254 3.4017595872501682 -0.2061111993729031 1.6683502748109977 0.6354237208317766
P 2.040734415491706 3.6389490821273283 1.3463659951103517 0.22576008395208216 -0.8853804566347203 -0.37254462054021
P 4.772688404604756 0.8825258728526615 8.047178239749377 -0.04957652537654688 1.3899846488480578 -0.8503057244187743
P 8.790026177621696 1.891825315897173 12.297009954625015 -0.43438170845166485 -1.2957310922791103 0.27273491003972383
P 6.545257397178419 8.103359481999671 1.3481744236969082 0.8294293951903973 -1.0307796828395475 -0.7250294942160674
P 1.802085455132129 3.5396399987409586 5.652738820437429 1.3468852465554224 -0.337379899713619 0.29680892026979205
P 7.329352046953561 3.9359312238793938 6.166341626600263 -1.7024238194559391 -0.7373296517396591 -1.4678001144656398
P 2.4907423309574495 8.553312871980392 10.32799018330823 -0.8731569179853349 0.20782741073306144 -1.1006494112474914
