# total energy = -340868.0011270701 ev
CRYSTAL
PRIMVEC
9.24536916461915 0.00000000000000 0.00000000000000
0.00000000000000 9.24536916461915 0.00000000000000
0.00000000000000 0.00000000000000 13.53153230865767
PRIMCOORD
 96 1
Ni 2.190791956929881 0.19482859199437494 11.727590099575472 -0.440680396976183 -0.07417889730625934 1.0140384588254665
Ni 8.35013095382111 3.5466161207872675 11.537741988028083 -2.2800105746745896 0.3042509783701341 -0.07884622087494161
Ni 2.341140152639697 0.9425746464648542 2.2358557360178644 -0.6890039680510779 -1.115078699298944 0.32121743102114353
Ni 8.994560930795732 4.594717412549861 5.579659888412071 -0.1637659016374728 -0.12472524279524326 -1.1196223528055687
Ni 7.9857062317516325 1.5941512939156595 9.649214437152713 0.23168621962853003 0.6971289111510575 0.22257628690746187
Ni 8.89371244236856 8.666063713862668 10.885400748535389 1.252633489758688 -0.08046575875623561 -0.38812961946266056
Ni 7.614116348467355 -0.21088687394790953 5.350327578154935 0.01720685079658972 0.2770127114794713 0.4482206712172861
Ni 8.889968067798243 5.8795926123267455 1.1650015903847837 0.968393407292842 1.3489776103080768 0.3983325281375914
Ni 4.007997030804649 0.7155740183475535 4.156724513274524 -2.5366074415018702 -0.00757189880998696 0.01431255996793019
Ni 4.961693856548738 2.450919667819771 8.381647493259997 0.33520088978442913 0.43060450079741974 -1.639296551978151
Ni 3.031501124343527 8.523592572804478 0.3517373017661567 1.1551549984945395 1.7412289652485948 0.8572867837222978
Ni 0.18338097571544895 0.09181206446414336 1.0647679190166883 -0.2034033135234368 -2.589406587580773 -0.4021321043893397
Ni 5.28413535658413 6.083231116736068 9.943863432507051 1.4984852022543225 -0.9892224282230513 -0.32705383519726255
Ni 0.6816268713172188 4.7499748993629805 12.810044410081085 1.3670990024991359 -0.6642933526782753 -0.2117408868548547
Ni 3.736210909215579 0.7401667007106153 9.503966911690904 -1.129176572152907 -0.7460804013490957 -0.6492056051072174
Ni 3.1651984099270747 5.231279580242165 3.3108416371953253 1.1875943499701676 -1.140191435206172 -0.6910050576415068
Ni 4.406047161052492 2.0922917923073023 2.0401488339390945 1.3299733012914319 -0.6546735702003241 -1.384136417597397
Ni 5.710966321492203 5.9934308446336555 3.3901493396684765 -0.5849997598532699 -1.1136656210015012 -1.5679630945404868
Ni 1.0898626249332517 3.7363865712324578 7.286378176354595 -0.1788724182616081 0.3368505095727102 1.9928687451809164
Ni 7.102191004435364 4.582411825999021 1.49535620201211 -0.9362600170934069 -0.3346738136363656 0.5070521395331976
Ni 4.458597840207245 8.015688964422088 10.667908058215897 -1.2249031137229551 -0.5735537227998575 0.8153538909339376
Ni 9.114593560539953 5.116489074896386 8.90797065091755 -1.0168952115479712 0.033234850793729856 0.351634095639788
Ni 6.303973554367821 3.306569352037442 9.996311488062469 2.5916611879429046 -0.006058033268621824 -0.5314627071670782
Ni 0.9831340816252873 4.364137901972883 3.294914639485985 -2.2007997713713774 0.33258762053129814 0.22381658707246616
P 6.305841118968325 4.710340001133489 11.73526190702843 0.9099460617892264 2.2724314767757505 -0.7106169183351633
P 2.325117927626469 7.669274221767365 10.640587991906557 1.4042504147384525 0.496251449373268 0.16083484403360687
P 7.920073355024048 6.831190739237595 10.160570266435242 0.513485039642735 -1.2402268885642187 -1.34142628032338
P 0.14216881748177068 3.672417860980569 1.1134910152773407 -0.25235351816989443 0.09604253014857007 0.7570456421113478
P 7.865849264024289 8.555637022830936 3.2382442237669533 -0.6682204556468234 0.18763653760748333 -0.6783187204230898
P 5.6309014232726105 1.191718858615151 5.380637596898944 1.1404994533648938 0.33956430895944745 3.2176782707488
P 0.6928239380878595 0.9207010272156932 4.820040006137502 -0.14650737166734124 0.5026982334398762 -0.2520385580326369
P 6.732746046830873 2.5437894025329117 2.1577379125748366 0.11030829603896487 1.25710823770059 0.30313974758382634
Ni 8.931202414918264 2.0257713601260128 6.413499746428817 0.5936628348449066 -1.1676063368840148 2.6967779124786007
Ni 5.455017517530171 2.991496411341659 12.184265116614359 -0.31428085180231036 -2.49547081936256 0.7292147359420086
Ni 5.953685001972451 6.235539330739481 13.4993412397774 -1.2113436298709654 -1.2293683485831601 -0.3686594265531909
Ni 3.8182080896208404 2.535376116461338 6.03798612840962 1.8245098248561225 1.400350565463414 -0.9321789050454978
Ni 3.8356910829849564 3.61884094583247 0.08282279188459264 -0.7975682848157426 3.245422016520972 0.5693103741424712
Ni 1.0801734778969776 7.342727777758589 8.918348577967375 0.21816530232395973 0.16544251800894733 -0.5450576722426935
Ni 1.2389257143090582 7.518833572364455 12.865118150520379 -1.7263425350550656 -0.9476595171796002 -0.2626510434411606
Ni 1.249641097338678 1.840965672999982 0.08525709762376336 0.3473758345840663 0.7226360542832264 -1.2597986400485592
Ni 8.010604011301906 5.986163984356449 12.264886586066378 1.3133122956959835 -0.9325542861070455 -0.043958664969137196
Ni 5.2919384482812815 3.62700460693269 3.5978585801847376 0.7463454820850243 -0.677445316679201 0.17932261842514924
Ni 2.344819809624847 5.033641320514658 8.845562559005092 0.8979307824959053 -0.26737518838970725 0.7781669974709953
Ni 5.541091905800888 7.374457885228525 6.718717123440756 -0.7761941900153407 -1.0318253504952424 -1.725014046051629
Ni 1.5898152157095409 6.323333357701751 4.660110834212332 -0.2681349493738672 -1.7931529078113957 0.9692382717916405
Ni 5.157483042414362 4.922290092551982 5.669197592026097 -0.5364138805247665 0.9256585874284768 0.8987049416577684
Ni 9.137586794012487 9.234931287471387 8.330498412092552 -1.6002013857489021 0.22779742609708512 -0.9920778953939753
Ni 6.118511446020822 0.837905046902098 3.4057518249150562 3.400742872714885 1.2786515110890042 -0.08393674802397157
Ni 5.74681986367414 8.315451573541468 8.686581037434136 1.1815244896270038 -0.11223996584403896 1.9183165236956383
Ni 6.776504379772366 7.805967007007165 11.731432475060469 -2.545836416299306 1.2395162356504394 -0.6069338409221998
Ni 0.9898092382666898 3.5960141290075076 10.498912877145909 2.4677898085075243 -0.4939364280868461 -0.6210067740754982
Ni 4.907395802594504 8.757870231105226 2.0791605942771305 -0.9362597599830909 -0.2591612851203472 -1.7420203508016385
Ni 3.020304982109817 2.3022356385856506 11.4901653175618 -0.025567306946143065 1.0155245564526898 0.12802525370275372
Ni 2.146876452710128 1.5388732308146271 7.269423093578046 -1.1570763838869687 -0.4875570069230635 0.11714871599956599
Ni 8.168616618169231 2.526186219367773 4.5139572625582005 -1.825388885026966 0.842725083858039 -2.025445393565357
Ni 6.886875598588242 7.420656995667705 1.7086533437389857 0.723029175956587 0.14214163849947778 -0.18938643041905448
P 8.081229387456577 3.3397972093355035 8.138012596681184 0.6829611042911077 -0.31564713602221767 0.9906992698788939
P 7.59756713740349 7.698757704495111 7.300031737750749 0.38600588825143844 0.5544478552083419 -0.39930414802224135
P 5.789293090281624 0.9171082767020521 9.798345017724477 2.816055501895711 0.9723624192429189 -1.1839544392247352
P 3.791636898225562 6.524189005948938 4.823653096463624 0.8340612375354539 1.4986867767421672 1.0020033820378034
P 4.63903046764992 5.451245406851927 7.893389370123195 -0.16554767612824392 0.5776104093677343 -0.1606461250615685
P 0.08375749872177517 1.5708714539945356 11.68476277532344 1.3986112141748042 0.15512956611871348 -0.7185446578226722
P 8.34612770891013 8.052772140722178 13.146871704761939 0.0643182024620957 0.33307638724225863 0.6238244460299515
P 2.941645380025257 2.7703194413523633 9.009889753110754 -1.4554583050708352 0.4405469567221122 -0.07553232601036024
Ni 2.2198224165614655 3.23561114258763 1.7643363540157708 0.07639261712812649 -0.7019520435713137 -0.2224580161620427
Ni 6.988611642469119 5.400913616331436 7.709902072660688 -0.38731535109148135 1.2611947490651376 0.5141530122440371
Ni 2.9597385677637957 7.890857988006275 2.9771402018779884 0.16234922379560426 -0.7561439562326848 1.0179557916020017
Ni 6.835952104431947 0.7674682762813377 7.530528040003943 0.06337306494000698 0.7564853987325036 -0.7792895411112126
Ni 0.2972266043178062 6.328630954316049 6.899498301306396 -0.17885262076726616 1.439234129902489 -0.06023554775228981
Ni 1.0449393754587715 6.054903305172001 10.669816302441363 -0.9991828818698728 -1.5133292092456903 2.931709892737938
Ni 2.504635263507511 8.553279453657034 5.519809990187531 0.5788442817748353 -0.2675122281882038 -1.4925804067341133
Ni 0.5829602900470702 8.084751873163468 3.979055326718435 -0.2459787249918022 2.7220721682690154 -1.187773298750193
Ni 3.6251647784401144 7.4925674781563885 8.303178345783211 -1.4834581327178709 -0.40383417468211097 0.20343545231295287
Ni 6.858390615745914 3.4786441656243987 6.468396900314302 -1.0032192567227756 -1.8182062512355979 -1.3249930744680212
Ni 4.190195523785423 0.49697835546944813 6.954693156083644 1.2541221584890725 -1.7066458279570866 0.116175039232387
Ni 3.393559031869791 6.501824457589446 12.731589130658262 0.9513765610198712 -0.6326078486495362 -0.5558295660472169
Ni 2.1176148588458084 5.434400343970161 1.1696510866104919 0.12897090544547465 1.3651411074418167 -1.0720366326068052
Ni 5.508233863275202 7.986991338085642 4.2662211201537295 -0.6253367689094198 0.6943600901566686 1.4207486695037919
Ni 8.87851305522387 1.6969043284205727 2.4837259362773225 0.22355562010159563 0.9512492914133877 0.03507293244373314
Ni 1.8162712915745165 3.254425469132303 5.2312499950603755 -0.8713270638654478 -0.5266146350461577 -0.9115296042262625
Ni 7.308917462194034 0.9553055200039279 11.990250117119214 -0.3131557370589316 -0.8193103044785245 0.02252029258970315
Ni 6.860738939550507 0.7416422616523991 1.1656348981824791 0.4152421594087365 -2.286415192649353 -1.4561126508253825
Ni 8.247525845225146 6.371631166974169 3.7170850137251783 0.08752549381649442 -0.3434415325266666 -0.11154216844606596
Ni 2.719562363843638 5.483567217957665 6.591858637535387 0.9290347029895613 0.15110733233319784 -0.5404201734706822
Ni 4.949610158861323 0.7255534699801434 11.660514020698686 -0.7515329398232348 -0.358006574825035 2.7257318765087897
Ni 1.4530669582538842 1.1988840198299526 9.709144770090246 -1.398836699922049 0.6466506998958476 0.24049096240435355
Ni 4.250928354779014 4.010178937961673 10.412338314395553 -1.8378137410538802 1.045948934380818 -0.7515465666699895
Ni 7.353905429253681 2.634292322702841 -0.06702892749330751 1.040034625778912 1.618260557243458 1.5840795404863752
P 4.312511759749072 5.501207382600042 1.4031789454602444 0.7107161629171889 -0.2157934596576735 -0.23206802844798097
P 1.4313033588995054 7.487501015774824 1.5797793673241636 -0.7063530008524866 0.35620988793592845 0.2119584021822995
P 3.1633585814344993 2.790881142696517 3.634082861675983 -0.21902430789014538 0.11222916721076155 0.9940573877178492
P 1.5543314882999801 8.572685483837509 7.287081748959042 0.9631195604884123 -0.11130459851396315 0.8064529888998822
P 2.731340964343841 4.569606989505472 11.873933201300447 -0.9679753459188168 0.19581007455721114 -0.293903573697539
P 5.249622392952058 8.2983106588418 13.397029209388547 -0.35087407754531186 0.1614526801232639 0.33729582464024493
P 3.7666559103515045 1.612595805687956 13.49530840968463 -0.8654826892695288 -2.6366331246679042 0.07411924771291752
P 7.109652017468068 4.757066097623307 4.511101367978521 -0.2948427976823567 -1.105924543603502 0.4593023829527445
