# total energy = -340892.9501790665 ev
CRYSTAL
PRIMVEC
9.04549708397686 0.00000000000000 0.00000000000000
0.00000000000000 9.04549708397686 0.00000000000000
0.00000000000000 0.00000000000000 13.23899931526071
PRIMCOORD
 96 1
Ni 6.058275862690387 2.2205790489847987 11.433451172221995 1.3410177320310517 -0.4940271880284394 0.24836265184294648
Ni 4.80371970716512 0.1411441254818893 5.9623420355698595 -1.6676419358900634 1.0174834799512735 -0.8207285249822898
Ni 2.8803756883226503 1.7298698843411213 4.858050580112377 0.43353530129096945 -1.1444581809023258 -0.47082169644625366
Ni 3.555025033670657 4.422054008387717 5.071741400321823 -0.40730850638395655 -0.20266437847488322 -0.004532854873347033
Ni 5.0784495408681884 4.2513021622526965 2.703284757917279 -0.044904573822174276 1.1557504659866935 0.5445380522937977
Ni 7.374875081871959 6.144958860068778 2.5608588855159993 -0.05931509282054946 -0.8557564631207004 -0.39841351788717194
Ni 5.014262694432096 4.448123130629658 11.46787290635783 -0.5422178888010534 0.7354663732786753 0.4808546552022235
Ni 5.472851299366845 7.529326942483046 12.525072600086038 0.6519356024438707 1.6158735450685202 -0.49485842568048316
Ni 1.8204153089219104 6.464798587116941 0.4056986796533965 1.1334823986171123 0.49239119508691326 0.46334287157070525
Ni 2.38405831556308 1.4398802972646472 0.23874322859295768 0.6679304352102303 0.24454379231748855 0.12812629805699224
Ni 0.5586299922253184 9.032598082451205 4.864869075721669 0.07366724777716345 0.6114196446076954 -0.46439213877082597
Ni 8.676314048146699 2.1808240898406863 1.559461767090624 -0.8896718849212226 1.0399790899506283 -0.981697837711232
Ni 6.8597249844393415 0.91299819027346 4.804538324640101 0.000695740515443963 0.1312391326543611 -0.4599086490781757
Ni 0.6200814803803679 7.328878729824676 2.697194424813359 0.9926347963387097 -0.15489713839293323 -0.3571861358062687
Ni 7.521954862459734 3.8697902369236337 3.920067822682614 0.9365698350243418 -0.8153754882004925 -0.7422725975672313
Ni 7.536662840518511 3.90390985146097 12.750612116764852 0.45187857968484757 -0.8234407817071303 -0.46010533847001406
Ni 7.911019777751331 8.97162238743631 6.855643656210486 1.1994067692240635 -0.040974899750464915 0.5264817090127191
Ni 6.795266773094417 0.7234914107392585 0.2229724046412489 -0.4005493332832521 0.1663190070766297 0.08778800344926171
Ni 1.8728882367933546 6.545140691125589 9.109834867353102 0.22115061020452884 -0.21292050898525267 0.4284843691306233
Ni 9.393929504060017 4.9706814900734315 1.5462752416207064 -0.9212393753148587 -1.5135701216119029 -0.2987357049788597
Ni 6.34518998080008 1.873856104968194 7.211958445204659 0.6512817709099558 -0.32014708077510023 -0.6443824726869612
Ni 3.0845958732138063 3.8830147534807873 0.10585492818748057 0.8728841239399225 1.291621183875795 0.1945656606271488
Ni 6.228919162861873 5.5505973457476525 4.877035269134371 -1.2408663219204308 0.5732212791611031 -0.6980761055556751
Ni 5.0892317732458405 2.9669591852344697 9.200919403552772 1.0897787870815747 -0.30726328283389664 -0.05338612893062419
P 0.13300498731627552 5.600456124997333 12.58884516276131 -0.5981226703884731 -1.0579662705566684 -0.5482944340124363
P 3.991298397602328 5.879573024726544 12.735228440083079 -1.0167368315932361 0.6595722930535222 0.3383510053776366
P 2.1234756391071996 8.37754128352098 1.4580246596189532 1.2801538066661435 0.23887039608179506 0.2552012720313347
P 6.530595532012111 7.937658766301824 5.55689753438107 -0.5407410471452107 -1.385100838393195 1.3198009887441204
P 4.4409410060425305 1.0758352265675017 12.613906616641783 0.6851282871457556 0.793580246702272 1.253061578435042
P 4.154271116350786 6.137252096657905 8.19783982269263 -1.193547739340125 0.8469033836054447 0.7321558208482036
P 4.682727139813208 0.9633273353651192 3.813877306557876 0.4528725681670008 0.5473737219703799 -0.5074300916979068
P 0.33506148933433183 5.360153452728278 3.6846913280585847 0.3083889117979076 0.6679828857147205 0.22363043920358905
Ni 1.418967108290543 1.0158364452244077 2.717754839405979 0.2124836785581502 0.01654736283571989 -0.3879748390523512
Ni 2.084417183229093 6.372389790162162 4.846387316330712 -1.1453482968167628 0.10705507920898981 -0.3719674078805013
Ni 6.104082259301486 5.861671986240491 9.231924653486397 -0.5981195850646795 0.8130938912551673 -0.4385664359569737
Ni 8.375904048571018 2.514919520099571 10.28042710188649 0.5691034003379877 -0.13220098234699812 0.41103197798213087
Ni 2.250402052465604 5.0691145880043145 7.252085174273875 0.30918261134379654 0.40112448906043174 -1.0483112639654075
Ni 0.9226768720218559 8.960984883010036 8.809270189779385 -0.2527044737514099 -0.455778428959886 0.7952887447529464
Ni 1.27125414291549 0.8998795060307508 11.227823508003688 0.5818699559750365 0.7711162612718011 -0.5216678325638434
Ni 4.248217647788956 6.817346831176506 1.5686890785406602 -0.5315655512935297 0.5135760566946446 0.2786664450328104
Ni 5.843137762967161 8.096235373527179 7.774734893236954 -0.44220428981987714 -0.7087834646708504 1.2188695059343655
Ni 5.236854283651282 2.8563146664060772 4.787301225630994 0.7229846958718967 -0.12490959089190745 0.07826360889859424
Ni 0.7236949344208835 7.3590725986808865 6.621896255589154 -0.29210894369096146 -0.47162696595636844 1.191423751018587
Ni 5.328783669267122 4.767727674756832 7.0330991201433894 0.006784884132317348 -0.1124968190498514 0.08313919182334069
Ni 8.249637956490774 7.396964185451009 9.092729832599629 -0.9160506320250675 0.2367420368848826 0.6247281887911434
Ni 4.71720857422899 0.4054815877263297 10.625673820799038 -1.2233684222459835 -0.5580648831356388 -1.2431792863243236
Ni 8.20033095255572 7.108023876022024 4.603967997772756 0.7309862260201346 -0.2691057979275688 -0.0478860250480014
Ni 7.430975254024812 6.178580972273252 6.804249856126503 0.05961411211820701 0.6149045178325022 1.093840101635142
Ni 2.614329531702255 5.299548623088789 2.6422927810078547 -0.40031227757178156 -0.6592743021971291 -0.09011202359674804
Ni 2.1208433994915143 5.3400814949715585 11.455732040336619 1.224482995466401 -0.28875982471307043 -0.4669102772069894
Ni 1.2919773764534108 3.2533848465082635 3.793370260397326 -0.6032461076579675 0.9911247874520865 0.021371523697240612
Ni 3.6110980693326264 2.4575529783721617 2.2321744715392557 -0.9069787516307863 0.2603293372865194 0.944664181996702
Ni 0.8422651176866074 3.2928774862405037 8.192967918029371 -0.20450785944152522 0.5652490595889039 -0.38700476182959803
Ni 4.013785503047667 2.834614519196356 6.965381816243374 -1.024416202515365 -0.0010909190713336051 -0.3042062411751277
Ni 4.1146247031702075 6.802720262590377 6.016953318922912 0.46191745197808837 0.4301869536440269 0.948838882199682
Ni 0.6675531529820101 7.300168322470088 11.417313101093663 0.5689987564393233 0.21255386967445328 -0.8550506953029274
P 0.11669686084507633 5.734582753936786 8.101234819697588 0.31770530410282705 -1.2450325374829783 -0.6816135891242778
P 8.638748099267177 1.5216787262840352 8.212151607984511 -0.4103969155012932 -0.011683349875199233 -0.23988366783765783
P 1.5882445384209005 3.205488940099145 10.286583467118225 -0.028790184758814934 0.8716350820241698 1.0249918725131766
P 4.232749847985445 6.141512525726592 3.9357427643665353 -0.031162284535417303 -0.08317904392234061 -1.813652570426644
P 6.732373432723765 4.031948860945591 10.326273298684217 0.8838275103253036 -0.044656976587742446 0.011295113297845064
P 6.252726910863535 8.011108201626099 10.209479651021658 0.9418115430392554 -2.146511699451774 0.5331812325200818
P 2.437101109743075 8.444993554360035 5.887436275234843 0.738205112366077 -0.07931750408440533 -0.08857270413408617
P 6.888317800333435 3.909319058643718 1.5795056838067647 0.543669019425283 0.19300782922172569 0.7595290706548339
Ni 5.212539987819798 2.9444268523043253 0.488213512032105 0.3781596527341423 -0.4181901862934669 -0.5747078910089586
Ni 1.6760129954346263 1.1230527207045367 6.992217092077922 0.1893650902628158 0.21677819216844602 -0.3246321131296474
Ni 6.888417300800008 0.814868116490774 9.30803617856633 -0.4075396485581562 -0.0821079223453489 0.18979703559391184
Ni 2.732490858505336 1.8616265930767626 9.148386775401386 0.027180417069533835 -1.4768244294514372 -1.0133288343529516
Ni 6.2901571772886395 1.8797899509746872 2.481279316901174 0.3985251037643717 0.47724662613599095 0.547372179308483
Ni 4.071821411550198 6.911546636529585 10.616962102675787 0.44902105563139444 -0.6247107052896467 -0.8951976998354583
Ni 8.112652950511608 7.292271603623032 0.1824467691560491 -0.9467830281119178 -0.6068765053217032 0.6655228542100022
Ni 7.468893977285817 4.028041206258388 8.235120838417878 0.636412309997291 -0.08745787380335261 -0.206280892181548
Ni 3.0623620416833783 8.378463924211013 12.545964079867435 0.027793110952868266 -0.5228932203305123 -0.12871919444598479
Ni -0.005051005503088157 4.903165900755648 10.244509242553283 0.7095589093842941 -0.2769512621139166 -0.8548776600601729
Ni 8.762246269277318 2.248954772951825 5.973793634722634 -0.13875112476069007 0.2798596940099632 0.18804225768633423
Ni 3.5925276640714516 2.6142300312356825 11.166936458859013 -0.7931177052435566 -0.2053388399832528 1.384008376659965
Ni 0.92521865666793 3.4955328001573855 12.44453963609151 -0.8057369366694639 -0.8410561807960483 -0.08183384274835585
Ni 3.3162872323758763 8.522404917353281 8.350445497373952 -0.07088454282570372 -1.5955829131402843 -0.7696391625056422
Ni 5.821853708617652 7.840320173503235 3.4373205044641124 -1.09732291797742 0.08542413120277546 1.2997906070604646
Ni 3.059566983122393 8.406097917427228 3.709686749811241 0.4408971409726794 -0.2767486591848073 -0.26902635083988513
Ni 3.2798881526043386 4.367518707209138 9.357722188824054 -0.12569891956242224 0.7890119106052992 0.03178397727981623
Ni 7.28707044287039 5.930788628520392 11.330875236682918 -0.8319351923313866 1.5337594520755842 1.0986814888878433
Ni 0.44374675352094617 9.083307138415233 0.1877555713225291 0.3399129505481178 -0.3967029629539684 0.961451685867686
Ni 4.5213283375359845 0.2861289689734692 1.719758827837984 -0.2459753825576925 -0.40423398122369086 -1.2615945556067178
Ni 6.039298410065961 5.649193262623835 0.5012706868954785 0.2959100626046065 -1.1509152493815793 -0.08938105896799446
Ni 8.061600165663059 8.818572578854198 11.409554778350111 -1.7744077659934085 0.7752634506709551 -0.8421337301309431
Ni 0.14943613254614596 4.725105293076045 5.765041655853959 0.050386937092984196 -0.17690449590195986 0.5535130020988983
Ni 8.008430734525609 9.000893615602488 2.52490213054586 -0.24849043567006238 -0.15088467479943046 0.022882561025128333
P 8.565153935991523 1.814173916018739 3.763873799356817 0.13959881747296604 -1.1286394687025143 -0.3367983161785361
P 1.594865842196439 3.0989329858971777 1.4137930840287836 0.8547650457417085 0.23047600137051272 1.4290049959753133
P 4.517827730212032 1.1244819092243932 8.081813233172372 1.4845056001457788 -0.0969663275144201 0.6609264930885714
P 8.621661155507626 1.6981744629893647 12.420114080647403 -1.6054883451794544 0.470110529311842 -0.03217452785001555
P 6.3500293216742785 7.910513229921508 1.3790402847041692 0.1261321504450989 -0.5719105307694796 -0.6822584217971283
P 1.9757445827382245 3.1349159728085043 6.173425039005416 -0.9606638998590682 1.1594374279199773 -0.2520133612216563
P 6.945928570478794 3.608321101765563 6.095314459097075 0.053052399740289274 1.0828627766880319 -1.111297634989957
P 2.3969210122417897 8.246616760505761 10.329887879269881 -0.3322574908853891 0.8848641791199342 0.8410314982056999
