# total energy = -381165.561002549 ev
CRYSTAL
PRIMVEC
9.25901227389295 0.00000000000000 0.00000000000000

0.00000000000000 9.25901227389295 0.00000000000000

0.00000000000000 0.00000000000000 13.55150037814314

PRIMCOORD
 96 1
Ni 6.353571088996292 2.0761204897849206 13.067792733161047 -0.6794461491593137 0.29726374841902353 -0.3617477870350222
Ni 0.7352692558809076 8.591094676436404 8.709495218633256 1.2728413321651304 0.07144247221170277 -0.016377927137391148
Ni 7.497827572332776 4.10740884333496 1.1726936869751021 -0.7794636047952318 -1.1059034605575793 -0.8567507087131697
Ni 5.288988404152403 4.64978324985434 0.449376889719888 -1.7820092324897503 -0.3019848080437767 1.0628238557592857
Ni 6.759652838477786 5.8650285784020655 3.067314393500161 0.26485113641627295 0.19250132189895233 -1.3460501522486368
Ni 3.7378168602519923 7.303592018029734 5.681452924645744 -0.6247495289473821 1.1386693421346905 1.2972665550870304
Ni 2.2241998691332157 6.3056094066962745 3.471894331230871 -0.6831649927717977 0.9344270776497262 -0.16986455833604294
Ni 1.3753243874830519 5.942341328827768 11.812436438611025 -1.1495319958808075 0.12342837836069065 1.0718733675560639
Ni 3.8508601380900047 1.5216260365221577 9.80375118522137 0.47594153417132223 -0.32571094801612294 1.572028522859112
Ni 8.09646899494042 6.129984466567564 11.399806715824015 0.4835376013510253 0.913878306964097 1.1638638391224472
Ni 1.2944932124870774 2.034741965036122 6.356533972844941 -0.10042651814887865 0.5949165047463497 -1.229803893458682
Ni 7.688433593921221 8.453727974003383 3.086381476967425 -0.5692419827983809 0.24283555137713014 -1.512106906802815
Ni 4.691559912120301 5.21473112769562 9.244345751979472 0.1739569832378617 -0.6091128508513897 1.0022615207951964
Ni 1.0379722842782033 3.241691218807628 1.1861942524117148 -0.25668736965855793 -1.5194952288470862 -2.4925500461713392
Ni 2.82193390856221 8.764627079847006 11.017071565168678 -0.9554232202854192 1.2282278072208137 0.8229000787123119
Ni 5.593600640829672 3.324105684860225 3.0662033120569174 -0.22781336693668508 1.7170505682301784 -1.9052859157639248
Ni 0.40357255722216917 4.985959458531756 5.9144439255903265 -0.8269685923547306 0.916751514746834 -0.7906414757889222
Ni 6.451105521689028 8.241178093910875 12.090783635871217 -0.9176197762844004 -0.3073681838428771 0.01806019993582051
Ni 8.560965851300447 4.323532702069901 10.18028002011499 0.41369435530564236 -1.7319010029794493 0.19044289670802686
Ni 2.548320844151438 3.0308449969280944 8.317775122706887 -0.26477888841744074 0.6157624949574234 -0.27050936314331475
Ni 2.113906517867231 3.9098770807502956 10.808202142356913 1.7262782574760334 0.045801374604830795 -1.541438822997713
Ni 8.16782820063274 0.12627070241982824 12.16648254050061 1.9342702188114174 1.876303669598962 0.1721402417440971
Ni 2.503275750639936 2.307475423304326 2.7424175132740736 -0.6516031588051164 -1.3195773027690887 1.4065613222598163
Ni 5.862760120455443 7.39439514897882 1.6162873977829069 -0.3753373527939987 1.3024072187477054 -1.1674898659108086
P 5.594989492633727 6.315914687082359 12.041171997627982 -0.5635192213819907 -1.17207491417833 -0.7112792345095105
Ni 7.6382127126866095 2.4350090549646413 8.552460522852417 -0.8502357904127873 0.00671674989854327 -0.10786009160878844
P 4.059511974119133 6.998081657185843 8.417500237645221 0.34109411534041256 2.078383379214969 -1.2324194767046583
Ni 2.829526298424375 2.9943830075656495 12.963134416614713 -0.7334066625361692 0.0035432372665680917 1.8582977199398447
P 4.310208983763005 3.7847878282651166 6.385886892773033 -0.6057840435884727 -0.07081512304034901 -0.06408628895694769
P 9.340028382266803 4.973746821668103 13.327533945752922 -1.2458614611421768 0.11224896470510345 -0.2941809957286417
P 0.43010240438321906 1.4064254088818466 8.171663283414338 -0.42569472220062815 0.38527312385047197 0.06553484847801617
Ni 7.2408714705586315 0.41599629956003836 6.453129541718138 0.3509350126902343 -0.6560653083415282 -0.15230186686193126
Ni 1.8025814974703644 6.895769574287158 7.525568498266961 0.23951317187211651 -0.32131821826506596 1.01277836116612
Ni 5.146714425345055 0.48666200525153624 0.6085439359705522 0.815474475672202 -0.7010824964821668 0.8142058933724236
Ni 7.985138634327407 2.183358367081985 11.324555021475527 1.1832558704958138 2.0250342741698675 -0.38551635020952957
Ni 0.20646207968473484 1.1213959826417463 2.3019116829772837 0.7450825562122007 0.20750216618315875 -0.1803906546783474
Ni 5.350421948951749 0.4835000526443054 2.905129835229888 -0.3735607205095502 -0.4356379494562691 0.8470633062220767
Ni 4.783029691935333 5.352884846150938 4.629706934076131 -0.3277318351008936 -1.2036406047997528 0.836377030152824
Ni 2.8917931543061535 1.0426666033759078 0.7276129788357562 -0.44503970238614327 0.1066321327389583 -0.583468153700092
Ni 8.086784068360144 3.7912135826118756 3.417742073489582 -1.5036268943562618 -0.6155835461773979 1.4774872598464168
Ni 3.059409049031483 9.012972300436012 2.5332221732389595 -0.2631051002594436 -0.7037890967800524 0.49876136027931517
Ni 6.835456369943083 7.5379468714458975 5.224537347333448 -0.07927919464730218 1.0003576189042642 -2.529788618807824
Ni 2.581884762749423 5.175463657688985 6.412542662497651 2.2233061800040095 -0.6204527013442411 0.5762022161662979
Ni 3.3910205647795726 4.539888036105518 2.8028427516636762 1.3067606106203946 -0.48513425641418384 -1.3865576254443797
Ni 9.129496966796188 7.5697978728188815 13.172396421536423 0.4523963998615306 -0.4459339320656384 1.9831710582771782
Ni 2.3557796890493434 3.6547820403935845 4.845027110567125 -0.7359032037057779 -0.7706148961553503 -0.44716291937673314
Ni 2.4622398093361375 6.887223506186209 9.986859258870329 0.1935189645301893 -1.3061468882957956 -1.5436389159728254
Ni 1.37960205103954 0.8351258487900238 12.544190047625268 -0.4564006359249172 -0.2834589813254473 -0.49595937205414586
Ni 6.768263719662924 4.283552288137184 12.246856320302447 0.2198935978689761 -0.7171979139867906 -1.6267665378319403
Ni 0.9299103549107328 4.191952882153774 3.0244099835693086 2.0259182194367176 0.7812276386741901 3.128489016076638
Ni 4.28733922405624 3.167109876929899 11.450855352733845 2.9047037964627394 0.7992613562474493 -1.6643095290827208
Ni 4.522694050771323 7.449680709792219 3.569315803976879 1.1460782330042518 0.7094123565041008 0.738656855191515
Ni 9.043527040125213 6.759958385874678 4.207699683908144 -0.4943097522658648 -0.9129722502100599 -1.9044616200904168
Ni 8.966223548711536 5.594433951912105 1.8588049962021005 0.4662772716086808 2.7272750526261933 -0.2729015175245752
Ni 2.32523420837217 7.612250442962816 0.42567011532587967 0.03220872352206066 -0.037793673809005876 -0.11354300092617865
Ni 8.561576946094231 2.1229433136056124 0.2965624516209693 0.49581076229142357 -0.5156378243196797 -1.7055376824945723
P 7.9884903966811915 9.332343402284367 0.8176096498372879 0.07492785965714192 -1.1598976553858475 0.47562400293090346
Ni 0.30627052573131053 3.636328829423713 7.842158192902397 0.3962964715441691 0.6673054000317217 1.1101069571159654
P 0.3679198055108863 2.211135403163076 4.215004118496268 0.26930017332656203 2.109364658087832 0.4122193134220127
Ni 3.59337627263032 5.3645882373531055 12.18006088163825 1.0587854240238541 0.37910401892528256 -0.19476774933562588
P 4.948266020569715 0.24966000029684465 5.02969347594023 0.19649373088779706 -0.43150181580070845 0.8266544035484215
P 3.825823769568915 6.651442764917883 1.7819135308236276 -1.1060975788462564 -0.6195664420845459 -1.2727328316117241
P 1.5616527455150095 7.233316116744574 5.244268301963049 0.04600860551963044 0.37180208594723063 1.6024791260394853
Ni 0.42901724817365106 7.96342625112402 10.991526876887303 0.4188185639060852 1.5024932949724512 -0.002366700459963666
Ni 7.091634714706957 6.240194486725305 -0.005164676908677494 0.9128007576292022 0.17632496924940602 1.2606201075085903
Ni 8.820051525840809 7.6752024657345945 6.265048452709462 0.4562491979487175 0.3544139723777703 2.6791411732334436
Ni 2.589569742731858 0.6814345822521455 4.806567952310449 0.5095646215424062 -0.41133639659642707 -1.3449178384164062
Ni 6.658822197503426 1.9093101291059427 4.36394921546909 1.387048191927553 -1.566554130008102 1.1326971837116557
Ni 6.227639266416652 1.2462352418021956 10.50823978151962 -1.9092410437569314 -0.26406643573144845 -0.323753567179436
Ni 4.2823578755856975 7.917612659614275 12.776042190090525 -0.7882886592860294 -0.5601703595144158 0.2745357106938885
Ni 0.8721665264041585 8.128014448916511 2.1966709745744493 -1.03659988906575 -0.4521909687189439 0.27138868042447456
Ni 5.822001949512456 6.420291529663071 6.6907417155654105 -1.1221656880527124 -1.5812377001622056 2.5915372607705303
Ni 1.5400329524318936 1.5974943810716435 9.98360656794523 -0.9699905765766327 -0.7043004891988321 1.1003218527047438
Ni 5.688588845214976 0.051542142250869505 8.37492174493772 1.1911650980405615 0.79624750912179 -1.4905785458127363
Ni 9.215244677178514 9.49493165347902 4.562627243742702 -0.04055066772885274 -1.2562859989096107 0.9894453428671347
Ni 8.148523160556383 3.217312240140457 6.041218318264424 -1.0536097933601856 -0.28958180639373354 -1.0082326507769668
Ni 8.310481798933196 0.3834916119379459 9.660498528842766 -1.3258695635357036 0.8931994384585069 1.2937500572933396
Ni 2.0835647354546527 5.150677282492625 0.603269076818753 1.063717828328465 1.273116183093072 0.2481587633622565
Ni 0.5982293965724405 3.1643784683819254 12.106273037091237 -0.9032653073349411 0.14754918266829428 1.4591722635873128
Ni 4.797362642553176 2.984883261225916 8.497711984736586 2.210451949749161 1.0373858753021554 -0.22047543851437512
Ni 4.236849831472844 2.3425393018506897 4.636035468796605 0.6243054994314281 0.10178328928708921 0.6358572088247694
Ni 3.0371318660944477 9.270493201943804 8.495869441343208 -1.3379198098320184 -4.860816822180861 2.514383339996347
Ni 3.9332097910584123 1.2550220442158473 7.2232200900303 0.687558750964119 1.8634229569815524 -4.306676728020925
Ni 7.677572772813515 5.035745166201098 8.181500983693056 -1.3464250190895521 0.05116906667464736 -1.2201162338572729
Ni 5.945257917616283 2.3315118185264967 6.603049612657406 0.2584364911391807 0.2714151627870358 -0.27481107584246217
Ni 6.58525934694867 6.771384006716033 9.753231237898287 0.14815236346993194 -0.5658015896582642 -0.26590143205765815
Ni 1.7059266709201952 9.02095356880331 6.640113437801609 -0.6479655620525293 -0.08904295890228535 -0.7933321352472079
Ni 4.321782748796792 0.9238318135149876 12.098263991687855 -0.26785392779833866 0.14264506049845754 -0.13655000334431322
P 6.160039219607304 3.5738027212051775 10.1162622850589 1.1816736136103583 -0.2257695970337789 0.36556407545731884
Ni 5.039495066072045 8.36780434239254 10.185293775127628 -2.15620887213488 -0.360097910136425 1.3836959876258685
P 7.8632807770396616 7.9313622924744145 8.44169033246704 -0.976525806591989 0.15962128334147993 -2.0381111619584837
Ni 7.07304261855668 1.7143523718647928 1.985146067113334 -0.3327100050417754 0.18509705901508122 -0.045052669364264344
P 6.927870568984871 5.167982375971144 4.955390830324515 1.170739740306674 -0.5911398113127367 2.227023995175229
P 1.6526966107767982 4.952089992536878 9.071495737755262 -0.6164404948610545 0.5232919984308279 -1.060568741176522
P 4.076141159719678 2.80615655206815 1.4662043682319623 1.2389498216240082 0.21830028523992726 -1.184513911272631
Ni -0.06099374172806202 6.473966022383767 9.296735093830815 0.49640905799705476 -1.1938261898124924 -0.22541709879036664
