# total energy = -340897.197187776 ev
CRYSTAL
PRIMVEC
9.00424170044450 0.00000000000000 0.00000000000000

0.00000000000000 9.00424170044450 0.00000000000000

0.00000000000000 0.00000000000000 13.17861789130606

PRIMCOORD
 96 1
Ni 6.257596869430935 2.044160976647538 11.265241103044842 0.7416064247381421 -0.1674466929231697 1.072977656363836
Ni 4.610640010282373 0.3167827320696908 6.165273677221104 -0.07790236890443357 -0.17782829326780986 -1.3381334685047213
Ni 2.856676741858592 1.6251305770816524 4.944472274156393 -0.356646975473347 -0.450407908676592 -0.2930959901945791
Ni 3.3044937023848346 4.384624537443487 5.047344836031896 0.9877849244455763 -0.21526149841360348 -1.0932338355097109
Ni 5.01424614368464 4.607497529902279 2.50802259559582 0.06578835924971896 -0.1893838593158932 0.7826528011564908
Ni 7.108956933667006 6.107352091143628 2.5907841834628913 0.701220821832244 -0.6364971564016135 0.0843938901660482
Ni 5.105603180751823 4.6139445670144505 11.190676076467172 -0.10524399414218004 -0.010016246585421459 0.9238089358142478
Ni 5.707230599308975 7.777116694712766 12.299314340991101 -0.3824191993414446 -0.016442718937055553 0.6560804778501798
Ni 1.9168139851985766 6.461741038994029 0.3038103209418878 -0.06872404483927519 0.6123974351399324 0.40912936164277924
Ni 2.7765660027706045 1.6138212494100201 0.3886149712681095 0.5555225763297594 -0.47311306358359173 -0.0493420407682376
Ni 0.5329844817960685 9.195942084204898 4.673678706961592 0.6436617924708528 -0.13109437954638067 0.48434004264766256
Ni 8.540676397383482 2.2256864908673686 1.2231749211970697 0.18074058181859842 1.3637552828378836 0.6785418921774895
Ni 7.051536883856497 0.641477491388636 4.793511658647833 -1.4050801097285994 0.15825371356999196 -0.816228323119091
Ni 0.876842068464351 7.649004342712779 2.6016432990456844 -0.26944852597896823 -0.9489440403189786 0.10450274510078132
Ni 7.616742144426586 3.836203183545311 3.7117708651594925 0.12278380279815629 -0.3224541316417221 -0.16494269555439334
Ni 7.665941321494896 3.876407123078622 12.323062128253174 0.5035389841736166 -0.3735884884236921 1.2559995780174433
Ni 7.805399018133624 8.79909813637699 6.869512534642233 0.39042792857853403 -0.07115579420921939 0.8084656484545368
Ni 6.906523570041498 0.6168797037028356 0.303854441726594 -0.838716219808962 0.5267740434421573 0.18050918253408266
Ni 1.847535348968052 6.169193223666534 9.144063244783817 0.6145188523583094 0.19703289122071874 -0.5356114392281291
Ni 9.099776782028915 4.946336152204186 1.22719171345369 -0.20005933675186835 -1.3081806308963728 0.9528919692231331
Ni 6.332233029518642 1.8710364200054408 6.881373822334782 0.6382771311201718 0.23683948169469535 0.8021127096533154
Ni 3.3594195772231763 4.476008587236 0.6270355880028629 0.6612278263790742 -0.6464768933221448 -0.9482539562304894
Ni 5.896157600269317 5.6864938304970565 4.927774808205537 -0.26950380469693586 -0.3657088285652992 -0.9215162831253292
Ni 5.319805088379578 2.795618978370265 9.210061635735062 0.007285220807503582 0.39242310463169194 -0.1395139710686436
P 0.1891512065805832 5.63787092490246 12.32928225847257 0.3232827981906045 -0.38353274412059757 0.2891897131616374
P 3.993777414638914 6.116977625603003 12.530138078938785 -0.08945844917314916 0.24141758798368096 -0.0902248950255285
P 2.3734911196331683 8.409070399574105 1.2980857106589685 0.9055800715110469 0.6982666242999264 0.34532229448914725
P 6.2889766520230035 7.649778707505581 5.76395822292685 -0.24036677812166343 0.33763238204405727 0.30209716525192487
P 4.844165020763094 1.0904677046183926 12.68395844163565 -0.5027481128412052 -0.05183266840057526 -0.18090256131775942
P 3.949305464503411 6.121623814359821 7.977610544659555 0.18515542305684243 -0.759991097892917 2.1269677158815754
P 4.659632089789819 1.0010825965003243 3.7766365224952185 0.7562486001313492 0.25669508296804183 0.49259096980254524
P 0.19529299989652302 5.667026659775664 3.426691167961657 0.29141551716836267 -0.24127797708202317 0.1053272978846057
Ni 1.4995754297462696 1.204839583667018 2.5097099905047884 0.0327414560970791 -0.9057914161909045 -0.056243138763445076
Ni 1.82974296721714 6.449513278661166 4.767259791747638 -0.24382182654979942 0.440784526654215 -0.33802344683488883
Ni 5.857385335178514 5.612001738277778 9.109468947877438 0.10350001486787982 0.2988156662871757 -0.12762698982307052
Ni 8.592243690039085 2.3819731153868924 10.260753102304541 0.6792404609064109 -0.037119530560116715 -0.9462749781272477
Ni 2.2394359680605076 5.258405163703733 6.940624434498509 -0.9373859031677341 -0.11144112409182742 0.3456745356222434
Ni 0.4409359189604294 0.006287662032723594 9.245564460636716 0.3745799058026839 0.39389737518437323 -0.5342119877774413
Ni 1.6452730659363033 0.9205036368399442 11.387538515705385 -0.5403576956638628 0.37347921653933747 -0.6901067141969535
Ni 4.235712386939144 6.868795796996801 1.712363671415071 -0.49086910201543205 -0.6388227192109966 -0.966394117474626
Ni 5.543587509257824 7.901429256682954 7.983764943913983 -0.2055483848908976 -0.29144199953092387 0.13777616244193044
Ni 5.175530122390275 2.8853462476758507 5.0260480033814625 -0.2673049972734042 -0.6113584523524568 -1.3525085062794706
Ni 0.6549928582955786 7.332775371512359 6.894302112677878 0.31057846325005867 -0.33493863726197803 0.1125191876473546
Ni 5.184120169045321 4.395321576674299 7.05910044694899 -1.2765887150227047 0.19430263677374923 0.4848882018416489
Ni 8.05131386529919 7.116781619771025 8.907322819564609 -0.11535562865488522 0.2504215912545042 0.6077082571943792
Ni 4.5804307791212855 0.3327229412871197 10.581455380819662 -0.057162308143604776 0.060321679708192896 -1.0635072549795554
Ni 8.251307079403189 7.230397142510402 4.7628711243056365 -0.6452877581100499 -0.4650225732659733 -0.23408428754706137
Ni 7.18846438855595 5.922576045642381 7.043365534444071 -0.16500414491994808 0.44394749776322895 -1.2663608666471093
Ni 2.3667739552676923 5.168578847738603 2.6642948133285014 -0.8293293792774233 0.2412828621780296 -0.02530582575464029
Ni 2.2315482522640506 5.109628076826042 11.388487562788658 0.6651297325366415 0.6549782459249365 0.025853984948626438
Ni 1.1861377734966514 3.207923209328898 3.765289377008124 -0.481857385435125 0.4828724569632006 0.5972780629999908
Ni 3.6263233119704092 2.6086639063590376 2.655135698593163 0.40013795677744635 0.4204082769907082 0.24275713273071098
Ni 1.32299324426189 3.329993715096668 8.278201849166246 -1.2785707784497398 0.5883797320690963 0.4807363844568044
Ni 3.637614631158488 2.5634626126396154 7.269193719054002 -0.15733428707951613 0.6645862013283458 -0.7979086988742967
Ni 3.827604132648489 7.004075525451103 6.101370573331315 1.149736912802762 -0.4371358741580343 -1.6395726884576731
Ni 0.6033877478245125 7.223968113881782 10.91764135349413 0.42968250320378254 0.11215203411592298 0.7176321733107318
P 0.06258128119695765 5.361980956862003 7.925555222099651 1.2925758344795801 0.4956359272764561 0.10247877269221707
P 8.477799777056246 1.6043577913026272 7.991830043273442 -0.05741041959866887 0.47211341867448364 0.1289364526631134
P 1.8227286628730304 3.1302976409713006 10.455098855966146 0.41771093266420317 -0.35547326688022 -1.0248792581947124
P 3.988482920474169 6.128034834504885 3.839181786725069 -0.0974869759045805 0.3897617557494449 -0.08914400325652388
P 6.956046899813774 3.9639463616324506 10.277292093600124 -0.6186616708820895 0.4204113623145017 -0.15202932992683493
P 6.291173687016538 7.6866240648561535 10.15466512569055 0.22151956350817334 0.46522054820939235 -0.19016933133166602
P 2.2953433052525174 8.49281885233991 5.73081450937071 -0.31501747285801873 0.6429627095212992 0.3713392873781992
P 6.934670829835704 4.0031148133614325 1.5651848374527575 0.5358603220141416 0.0771400368171123 -0.19353104871504734
Ni 5.346898851885901 3.0686455975257063 0.4233785479198914 -0.35738899584569417 -0.7431503721864944 -0.6171364924868146
Ni 1.4004027108168444 1.1683453917457396 7.089490663369792 0.14235478295154838 -0.47012749859270647 -0.7331716637072276
Ni 6.883112541421878 0.7558124530459766 9.196632709549174 -0.44910873024919423 -0.8246533139579926 0.2750427322372941
Ni 2.7119065425715663 1.4406246588337086 9.197871693217659 0.3410588912271029 0.005862629428364096 0.6695327467003437
Ni 6.236490926706169 2.090262694544638 2.5754580635346382 0.41853959921308564 -0.4987215081803153 0.3671447896808774
Ni 4.144112235343988 6.837262942294527 10.423628130532132 -0.2729447120576848 -0.08601059983386476 -0.4405060761818478
Ni 8.262760474943251 7.144199535981312 0.5392280230440859 -0.36784053019632135 0.13035364472561423 -0.7229960087258065
Ni 7.464291326903969 3.717959480532672 8.166696920699346 1.1263923245395504 -0.366318180014524 -0.09079002350037914
Ni 3.2313162294649653 8.385983523658448 12.414601051004247 0.1950587982134834 -0.6359145444252661 0.1894648490654737
Ni 0.024226812924597024 4.885017265704332 10.188152801282563 0.32843117516076337 -1.1612510840899484 -0.7443575051207181
Ni 8.573721964704255 2.3416070995015996 5.815855971255661 0.46616157196642294 0.4910429085891349 -0.23805561348998358
Ni 3.7083339460732967 2.7658779677815692 11.528997855291092 -0.1943586868226653 -0.5735264691063479 -0.0015182364167393209
Ni 1.1934222050940644 3.2441742867222034 12.495267351809861 -0.889268735945533 0.015076948937780485 1.2057900470425877
Ni 2.768435172446174 8.307142382660984 7.988245454622107 0.9779334855727931 -0.4846218355541396 -0.5364871569648632
Ni 5.695155911086316 7.916448331966618 3.51823009071273 -0.8062701834651147 0.21666506362934942 1.0941447773597546
Ni 3.1186731648374812 8.304855305249683 3.5520590270680827 0.11205793174021993 0.009450089669306307 0.6595753783773157
Ni 3.492619325827043 4.23645073476484 9.369352075311317 -0.28431027358214905 0.6030643306644646 -0.6554096770354003
Ni 7.279299179600079 6.061790627753135 11.269286708875148 -0.5137645185563668 0.6210132018334014 0.23097968047980866
Ni 0.5872791592858579 0.13550033237783332 0.26784197674037313 -0.08710923221468224 -0.3319415023068671 0.244150927754444
Ni 4.512925978520786 0.25240420421408843 1.6675432571228066 0.21244845444484056 0.6202102463161318 -0.9076986605159465
Ni 5.9813107147523 5.500646280224373 0.24969032574256778 0.01153448300216078 0.8052332575601681 0.26721218044928174
Ni 7.978523574775721 8.74643232622462 11.44118848948396 -0.6039480188209986 0.37517974417021194 -0.40914067449668895
Ni -0.046629366465218966 4.853952631574451 5.4767967450302235 0.2977013501770744 -0.030482484859573312 1.041618168215948
Ni 7.810207283242423 8.732502764195946 2.437504075272633 0.5849995027429538 0.7332966193208661 0.7854082524144409
P 8.488757939298583 1.583341890995629 3.4233568972317165 -0.4686018059767994 1.2824472306860106 0.153634983851058
P 1.8420787784513248 3.2252833874745246 1.5551424065991177 -1.0294987592445948 0.10396538454007256 0.05759579613659758
P 4.7611819285483135 1.0016768764575916 8.221599384509068 -0.2616747955708203 -0.9314775081030989 0.802640042911695
P 8.498581567077048 1.7120485229528837 12.278873811733638 -0.17676668477251492 -0.7944870747872576 0.33255419619020143
P 6.2946043031334895 7.733581185722048 1.3559217564395645 -0.6147427954436575 -0.610021221598272 -0.8703539013189011
P 1.8382429714544177 3.2462542665726386 6.131101679254056 -1.2116513909193714 -0.6784084519234187 -1.0338444378078002
P 6.870497598692612 3.873624812369598 5.920019741401954 1.2049194715121765 0.21424642688552778 -0.781001638706313
P 2.3888433518625733 8.132775240653693 10.076911697099723 -0.13273217226011977 1.517822983350986 1.4513802783467198
