# total energy = -381174.3430017169 ev
CRYSTAL
PRIMVEC
9.21078299648715 0.00000000000000 0.00000000000000
0.00000000000000 9.21078299648715 0.00000000000000
0.00000000000000 0.00000000000000 13.48091195556803
PRIMCOORD
 96 1
Ni 1.1121467603666118 2.9923162243015105 12.769025195124316 0.5965350141863791 -0.09246535432027302 1.0682015751314313
Ni 6.889030002548866 1.118787734777136 8.319987746378155 0.8759879596762268 1.1533056039906266 -0.9902164167052042
Ni 0.028329604707973792 0.6828984909369662 9.135083997685506 -0.632999170550684 0.4163456768855604 -1.404849224664716
Ni 7.063215116387177 3.252308990856108 2.983244524305775 -1.7097751176146876 -0.5830866019909571 -0.17731304419428817
Ni 1.6119791006738282 0.10903079943092571 2.924266039776693 -1.3048829339817074 -0.1701275821894425 0.1898911379696149
Ni 3.5599491369192235 7.508943318431677 4.370727373242312 -2.245386556842817 -1.3088352337612363 -2.251029356950891
Ni 0.22861255057787833 6.466761664337383 2.5680869104284447 -1.0820842466507945 0.24881670866122954 -1.3702069520004982
Ni 2.038677825419933 5.84559568199156 9.413033185340405 0.19956594205521758 -1.1360113356865533 -0.6758604886905845
Ni 2.414173808490443 -0.011155179068773632 5.257285483029623 -1.3608720477528176 -0.21017122837488966 -0.852258477269771
Ni 0.7120110121843222 4.182441471990587 7.632285832202509 0.007298076323310011 0.23903006158811088 0.7548969711994612
Ni 5.833566399633525 7.211471876597713 12.001691458110686 -0.7680065119982257 -0.5388379165852268 0.15016656568648332
Ni 4.881935951405892 7.093933077079408 5.981911583359096 -0.3703319291596074 -0.542487340412356 0.5996923288684382
Ni 7.940035586581138 3.2950562339063745 13.1891980802451 1.1375370283024602 -0.6878192037143573 -0.22972138259267535
Ni 2.260915593210677 7.2016439713327625 1.8735100679587418 0.0514364614034211 -1.1300515185586926 0.16141488490679298
Ni 0.5038546891630777 6.738949507340711 10.965225094753883 -0.7267673028427806 0.7892016580186022 0.09883346263014592
Ni 7.684491628126794 5.308846524156771 9.14857779451133 0.38868600618676286 1.7627987209995706 0.1634735672080346
Ni 1.227014432868202 8.907094096026007 11.729808492018579 0.06197695592342875 0.06146993438002317 -2.9904547148773144
Ni 3.802754582738678 8.808041337619937 2.2674893289066427 1.1594842219975128 0.3082495580065659 1.0959406929179125
Ni 9.160261672513755 1.0495502803473022 4.595656531771967 0.005092326921242844 -0.4790895928820007 0.13000140359251805
Ni 0.5207481859263818 5.375790493665355 0.1437572928047927 0.23871844388496308 -0.5277621183870395 -0.19693621774185438
Ni 1.6140791591559358 0.5471573424171653 7.416173234984578 -0.4284648287465975 0.7486790153142073 -0.4587753068046809
Ni 9.234362420270575 4.575410310063544 11.218288589395808 -1.2368050073668635 -1.6640310786103534 -0.3140797915350978
Ni 8.675682388550268 7.624980760350932 13.335183461413148 0.3618470316170478 0.5294351352140881 0.3987531606147778
Ni 0.2786381542095548 6.5785068814642615 7.864952969376105 1.0166635551531396 -0.6273782248194808 -0.32059136740137045
P 5.156269906805408 1.2417885285054846 2.879145177994675 -1.286692636225926 1.5897028002104234 -0.6126871984662093
Ni 3.1388689896910376 5.579164578248396 0.3372509706608313 0.4696832119664362 -1.5625990020150957 1.0100041408550928
P 8.494128648458947 4.436244592492658 1.6951303636259056 -0.33873435685898434 -0.41072447404404094 0.12837260973984344
Ni 9.25112604499617 2.048109667023784 1.911741264194196 -0.24278232954169152 -0.22166380239552147 0.11867543705673755
P 6.985632692725811 1.5377586127403975 10.491398478650098 0.517543783093141 0.3041283367493407 0.3025663915788595
P 1.7366838892231853 6.961638603489451 12.810640432966466 -1.0006000739323733 0.7088559697799985 1.5882714670805356
P 7.437615016302552 8.365205321379744 4.770652194498108 1.2177657313472254 -0.296356920334038 1.4366730540435322
Ni 4.580992044450198 1.059875567884331 0.7004072679923966 0.272225317393157 1.0048850744609725 -0.7211008485856226
Ni 1.5857191588646684 8.206835121636953 9.350494733252837 0.9588070491559874 -0.057210130662404705 -0.4588809791446097
Ni 3.8974137977413923 7.7671031392058385 13.586332034307572 1.1373940749666926 1.303310447288265 0.16646067486081653
Ni 2.294203362308644 1.7206755486885237 1.2755082833175342 0.8298729104857192 1.5991228079727426 -0.13233725081454628
Ni 0.8575837502821998 7.462742031825312 4.860731808284577 -0.9624225344213876 0.2974354981101974 -0.7543709234926621
Ni 3.2791676335483246 6.962375466114752 11.495604996271231 1.4092296131205988 0.4687118491921025 -2.5405072907769086
Ni -0.07053709588520796 3.6227022002464095 3.7445930946453982 1.724982164372429 0.33571202509289283 0.40075836397026465
Ni 4.063346050176333 0.1970416713968623 7.510148088824043 0.159133545071784 0.4535166295089028 -0.3683434379746689
Ni 5.765811881237109 3.8632694258415126 8.670517902625189 -0.21859133411778484 0.5398771564830186 -0.16326942161702848
Ni 2.9225169121198844 1.5065064266448243 12.087618851003585 0.1280584209335343 -0.02876447372720207 0.16497663411612232
Ni 0.48650433757208694 5.198823723416534 5.652883078518341 -0.022121257379071578 0.06351704671703899 -1.1419274440606721
Ni 3.7203088657503263 3.862302293645805 10.183467271849988 -0.19341149241804756 -0.5341230276080607 0.2728441819240785
Ni 7.4897941009566695 3.5261547747663617 7.015938010347873 -0.3927406358721107 0.3051511215869003 -0.9735633815295555
Ni 6.657857775426349 3.817823423426081 11.065563678441103 1.2779364872998507 0.36282430792865256 -1.1639144898547247
Ni 2.2769147229625224 7.401757438798848 6.724926090502953 0.5380313615235315 -0.5226430519929193 0.8604649243399632
Ni 8.150953302290697 3.1378650143640656 9.149952964385797 0.9659158922866268 -1.8159925314137306 1.5199976224048015
Ni 2.2845412511343866 4.764655053806441 11.789448310753867 -0.15184523894048688 -0.019398973351902073 -0.40733293186398883
Ni 4.918023798480003 5.004734107912283 12.315513881600078 -0.2753841747371128 -0.5815061448777147 0.6130232416493894
Ni 6.331777642165079 8.588603647805336 0.2970799835642724 0.3824240844374511 -0.5199264243927046 0.8490397132221571
Ni 4.130566343169405 4.086391428782618 2.1749835949263705 0.516840072157897 0.012284988014940133 0.3501004326040809
Ni -0.533791575472489 8.579881036478337 6.67390019585743 1.4436178607924814 1.3036228363223614 -0.5007812189228215
Ni 1.4186355585776946 2.8533807763010297 5.4576798793716055 0.31685709716991883 -0.2180056368176439 1.4374528696323503
Ni 7.145227926583165 6.274873425926219 1.488265392355501 0.0850790891585309 1.7033499308146343 0.6795392230937523
Ni 7.819328277774038 6.159793905419854 4.143479860677803 -0.541567399701248 -0.19533673446521843 -2.548371524016334
Ni 5.164421449597799 5.735886047867076 10.129974729566271 1.2162860614779054 0.9612699088741832 0.016230602926249466
P 4.827094950517875 6.55454042457635 1.8127649552855007 -0.36764204103227005 -0.7766271637877011 -0.5048065380321306
Ni 8.839671165810977 1.032316905698078 13.125163797028172 -0.2566706574880096 -0.8219274303863973 0.956375042675727
P 3.868924846490697 5.098407769153656 8.412237420596135 0.17937429759869106 -0.08604608105749052 -1.319110133324683
Ni 4.82432250489018 5.466931189632257 4.123244691908759 0.5300853672035775 -0.07230430599136581 -1.3223242693866066
P 3.669741668089054 3.147416596144528 13.73313993838111 -0.23054233583207392 0.33228731568206 -1.0388789149079138
P 1.79946458489882 5.804672173938914 3.7616735702998727 1.5480799824633145 -0.7604382127326645 1.0102375970221376
P 9.217322472060491 2.2046469209861392 7.138236942425622 0.2291220584457796 -1.4401846667412164 0.11070655991864806
Ni 5.054315751812216 2.9599863766164343 4.495236893195964 -1.820346694617368 0.19658500505002274 -1.13431337915884
Ni 5.924393928984674 7.4869663906320785 3.4335882496195027 -0.41851928749811146 0.161164973679516 -0.15437957532656638
Ni 2.5440642677653544 1.587579736993553 9.564652802357157 0.7994122800030168 -2.9689343243070354 0.45466514129104924
Ni 5.173770394156304 0.14795188329931797 11.807916851378751 -0.49723283944993074 1.0767306956483649 -0.5361344016111347
Ni 2.670463840352904 2.3966456887910983 3.587257265812874 0.3218198404918329 -0.565569161932484 -0.026116237471077604
Ni 2.9834278188838184 4.966610677835779 5.574882485317117 -0.6662260509246138 0.202362016743116 -0.06371579299140641
Ni 1.4234988519046805 3.3446839317203887 9.656674049161296 -1.416989716681992 2.1969174055978358 0.9770590533876399
Ni 5.9672701229943685 6.595427089497733 7.850716783455292 0.901133605703919 -0.962113487821401 1.3592939046324202
Ni 7.019611270534997 0.5257726679526523 3.2379935922030754 2.422327305299351 -0.40189350601597235 -0.8814878064485335
Ni 9.391682590772312 1.7430116970179563 11.021966280136894 -0.5128358360945103 1.4671966765536861 0.48136964716542907
Ni 7.496324545973399 5.549644019322281 12.709817362103111 -0.31268522518041636 0.3604547792552114 -1.011836051857509
Ni 3.983672778815676 7.344724271600561 8.74789861014288 -1.6477092015218784 -0.6852236750730393 -0.30836268654566246
Ni 5.709008983609228 8.704456874068267 9.365742263126876 -0.00460433154123078 -0.42879984348851313 0.9932714014814441
Ni 7.73416537985489 6.466577448681058 6.2091462008276626 -1.0237531150100692 -0.08999992349891597 2.890540360478164
Ni 2.7523845427207285 2.9220195298478067 7.628456909785789 1.263834757791146 0.36739084425341245 -0.6111705047113667
Ni 5.19740526286283 2.4960576677270025 6.842276990051807 -0.6730055357402925 -1.2718691980598482 0.45346443611472875
Ni 5.079866463344524 0.08810021655925433 4.946847101146928 -1.1032868488703387 0.9469756037386983 -1.0994409927616873
Ni 4.972579265100716 1.9584703286559326 9.753655302511987 -0.13584912062254667 -1.3876786264227003 -0.2932636261206949
Ni 7.961505921325842 7.91207164995097 8.787236021394566 -1.3657219196459511 -0.10448963247465876 1.1860604298241444
Ni 6.791478601741846 1.7581634347507058 5.223165980243348 2.108113045068918 0.20648375222097343 1.2434785627322973
Ni 7.881758963702654 8.863416563911297 11.247569667968701 -0.16297554452569352 0.45928438523061543 -0.013459725049331657
Ni 6.3528427024658685 8.63374569438783 6.694418135658934 0.6216449218801293 0.5896873951369264 1.1652532632708061
Ni 6.989482799943008 1.4705751628785901 1.0755431094547907 -0.7011961392418957 0.7480933180140664 -0.051419492122556615
Ni 5.191160352113404 2.5894734270495214 12.123734330426146 -1.0031017573083048 -0.6970906017139542 1.6892798258748132
Ni 1.6605107153327072 9.038255643329563 0.30456927107217424 0.057448986146088156 -0.6907811145561586 2.666328337739492
P 3.584772196609047 8.942960884312527 10.219407746399039 -0.005621974172467737 0.49096911792840603 0.377379322924692
Ni 6.308345410680511 4.308564721093648 0.8869698317791989 -1.8366297480481077 -1.2293804327680184 0.008851793963675077
P 8.846570042140357 8.923286652216994 1.7365973078647123 -0.14181382284641383 0.5077635637779255 -0.5053176733405943
Ni 5.323721938405032 4.7846885064318085 6.2571380636135085 0.7552096173438735 -0.4304566623656457 0.96740996033365
P 7.468148761338457 6.741031144257185 10.850826251097642 0.6005335938228109 -0.7143180213358342 -1.5224401704080233
P 3.500843543587277 1.553407732745225 5.71135036460112 1.0213460482304733 3.532379755028297 1.2341937949962616
P 7.4958916391810355 4.212938373895227 4.994974362440173 -1.1616056392158898 -0.3484371859690451 0.30683108039248447
Ni 1.6759387765499443 4.174197821370034 2.105125333734721 -0.06816328723979873 0.19963176229614651 -0.1411067694770602
