# total energy = -381174.3898395835 ev
CRYSTAL
PRIMVEC
9.16719600474444 0.00000000000000 0.00000000000000

0.00000000000000 9.16719600474444 0.00000000000000

0.00000000000000 0.00000000000000 13.41711798731664

PRIMCOORD
 96 1
Ni 8.725676412477172 7.163063670756036 9.67015979023045 0.4023861293816748 -0.7865403091363551 -1.0106222340550661
Ni 2.377127280371146 0.13690840653366235 6.289811239961357 0.9179661038802255 -1.3975084680289287 0.9331561813571027
Ni 4.440763956492319 8.19899349625722 0.8919819290998854 -1.4452960198258527 -0.1011471983649871 -0.0031817401620912946
Ni 4.505860215836094 2.541412601269581 6.523456483099044 0.4008000158414775 0.6523197252561669 -0.5758736291822857
Ni 6.957498465922238 8.662092740486127 10.331127461466787 -1.4627769502194357 2.5100433178600965 -2.34438688406813
Ni 8.161270484399786 5.1483798216867935 13.078108017728988 -0.6928328548788648 -0.32383301426711975 1.2592486810823604
Ni 1.2541915969018218 2.333152240789103 8.24341039469018 1.1832676975703555 -1.2851083224579418 0.4899036527783692
Ni 0.22807250464239368 8.08111252190127 3.1155889269259833 0.3380170190769856 -0.18376522757753513 -1.8118872509961053
Ni 6.848683848486581 8.605833658160716 5.125862437962513 -0.28692225728369936 0.2195912361372089 -2.373931430494466
Ni 6.678604859667392 4.758599811682857 1.981601271866058 -0.13716166878638314 0.2663395480363413 0.32248447065902525
Ni 4.1308393915163535 8.36381051452813 9.187854353500326 1.0186834137966454 0.2977463444823969 -0.19620139645835888
Ni 1.8921367719100286 9.11308211869713 1.5803485159715802 -0.36953745828277007 1.4115081247421304 -0.921026487973104
Ni 4.1048778922258915 5.298125969606883 5.892181359956565 0.3845164481901055 -1.4715660092659753 0.9128370101837763
Ni 7.920365738688613 6.303134842739873 5.32815220363795 1.5484052270132171 -0.4342824638696392 0.4519387434988216
Ni 2.013427943206674 6.593588283247992 1.6313474611879282 -0.4176715947858355 1.237543942415417 0.38534331496677504
Ni 5.882571388308898 4.677754309478555 12.75804270045249 -0.8962603367720177 -1.178889108886686 0.1445502479409704
Ni 0.6678705698824241 2.553898322326646 3.673633737645441 1.5793772499146994 0.9424674314556994 -2.452769423839292
Ni 1.8357401816434604 2.892149523180976 11.101565204658298 -0.9755372174264748 1.6421700168712043 -0.3486534157449092
Ni 0.5516589419321218 6.606349020187372 12.27262408393457 1.5944464855429958 0.24087739920949483 -1.2381846613232095
Ni 2.39545250532935 0.9319371532021022 12.390534393317967 -0.6752084569288822 -0.982436001428837 1.639070552010274
Ni 3.347814171391321 3.583878637573766 9.191383723990025 -0.9942911009952103 -0.22617146045788789 -0.2726798884320723
Ni 7.888564735497011 0.5744568418563625 12.820015696092783 -0.16412122809436253 -0.9276344802079249 0.013525802400576707
Ni 1.9295664334929932 7.77639492429712 8.633271076019597 -1.1924182537213721 -0.3103519490615494 -0.4328483025262739
Ni 7.957978744193119 5.427520942235722 8.027072817746134 1.2090427496519307 -0.6232608602169976 -0.9906311356451197
P 5.3717293869102445 8.839111296735709 3.1629649962526454 0.2751712873953584 0.26933565455018776 0.5487947706876226
Ni 3.3537636816453853 8.126260962581187 2.9995441419442845 -0.480603715533682 0.39445504746005616 1.3439742435562143
P 2.5786864205192344 3.5486582702453924 6.815010903856027 0.05862603717332484 0.8694038787008059 1.298445662996796
Ni 7.066863115122524 1.5788020099933666 3.549404480006072 -2.307086347845459 -1.6333974128848967 -1.961194554006087
P 7.955916125075762 0.9531867137089138 8.88461450790381 -0.11980826510960013 0.8036381451589063 0.36749625948302517
P 3.585712076789194 7.010659035973575 7.347978849706468 0.34650165950922907 0.38983683196175445 0.5866835753135959
P 1.4768077864391014 2.3787682084689545 1.4958874716344541 2.061744742217023 -1.8549737977729344 0.9220806402692313
Ni 6.132377481410977 5.544714376885886 4.33739190336766 -1.6059064065534796 -1.8985915344628852 -0.9442268373489673
Ni 1.6453466863173294 5.500207639931368 10.238495695266105 -1.732247587685591 -0.1938228689238533 0.5491770937277058
Ni 7.648090848001462 5.239281737987718 10.567671372004066 -0.41032415328182875 0.039517855588964194 0.9780867233212059
Ni 3.617073054569092 7.416820825367362 5.22340507110172 2.086296206304142 2.5099638707724123 -0.6696661869544144
Ni 2.6938814064245813 7.42032269426883 11.118457596869643 0.32233740355819973 1.1554596742191519 0.2425509302571758
Ni 6.263981748294405 6.509873448671544 8.928729805585835 -1.4155792094877104 0.9182242426376187 0.6199017139367775
Ni 5.302150368684748 4.546516730438212 10.448339230509106 0.8168492445325416 -0.7900868888370329 -0.5656876897882194
Ni 7.313057332970208 2.6798097604461706 1.2579849826385427 -0.8719317873289821 -1.7461086619383992 -0.3063896219796917
Ni 5.312665142585228 6.76876423308607 11.306377782694163 -0.4909986856147608 0.863127558773791 0.021547644263788697
Ni 3.191128456040836 3.0828272015854985 13.07880564135046 1.0863980435348 0.25394220281325297 2.4264336141582405
Ni 0.0023898880173105256 3.884278485825583 1.7353969701026883 -0.37015426593116246 0.618105027047671 0.4895722375808794
Ni 6.226817935397678 6.562401482193559 0.5950894500671826 0.5341029730034027 0.8524819061344867 -0.2908827845933442
Ni 9.02023675682785 1.5528496778989818 10.842051050910527 -1.2349486708844153 1.5243906092661748 -1.0753466708166448
Ni 7.578475160991657 2.8348362133066938 12.356951287208972 0.1455033558828591 2.5230813819909774 -2.0087643333652503
Ni 3.5155646924069153 1.4243714248778578 8.178820164569865 -1.4137377854035975 -1.3212955710117762 0.4890086517679255
Ni 8.627770758373313 1.1992250892232874 4.983976243958963 1.1481436001737129 -1.2505933194002075 0.3045263435187078
Ni 4.028881836746397 0.9873528534884164 4.537212943139522 0.05975577990239386 -0.10201443146128883 -0.39017801735125707
Ni 8.835545257461701 1.081023263004638 2.038060199065951 0.8936964326995835 -0.5353335029763941 -0.5714305058092675
Ni 6.939173240964034 7.096518994432073 2.9422931690033267 0.9050954185651445 0.9539687472270797 -0.3142785378094652
Ni 7.629609780709948 7.460429177106319 11.89263830621945 0.4435942281888683 -2.0495438292754575 2.2849792315337742
Ni 8.545431003208437 2.769538275649222 7.012470473918419 0.24923477003525463 0.4407786131169441 0.2793755552846931
Ni 0.11249799681945266 4.3800771184616485 5.607322659214324 0.8450861278910479 0.04657887620080366 0.40546014032130817
Ni 3.7718244915473003 5.926473090322324 9.339669537575027 -0.241577510600313 1.6550651276663173 -0.20840976559909266
Ni 5.719725317194574 1.2035245041834666 8.423226779182507 0.3753620353843471 -1.0222181664227814 0.7741550480981249
Ni 0.09777547991956503 8.028107794183244 5.212026747330772 0.978630768750134 0.7614550840329531 3.242951700603609
P 1.6018391737352207 0.36206115922548676 4.320486677081805 0.08364698469769465 -0.5767575744491357 -1.2638162458483848
Ni 3.8234083038733697 5.634800412735945 0.44193035504757333 1.1493749014776526 -0.065442545874526 0.02947409819971698
P 5.898513142287046 8.324189893082728 12.856940245171899 0.6070842504571351 2.0428499621950498 -1.5015391585892979
Ni 0.9221649221838705 5.338223285248296 3.5422128146835545 -0.907737998394314 0.4410115550633566 0.032450921439853786
P 8.611489818140312 5.928700718969069 1.7400529889902678 0.1206533867187148 1.1134429634677339 0.7819344349332276
P 8.969047133933097 7.343153237691461 7.480419164872132 1.1894738263810676 -0.6022127812974468 -0.5651349026085428
P 3.03604700000385 5.791797812753053 3.8842289829667664 0.038716442733591386 0.20069825588744789 -0.8490908781750667
Ni 6.731013719640404 9.194972681254226 1.546684738537105 -0.06622159013239563 0.015781174093656695 -0.6489312683999082
Ni 4.079548929464752 1.2884035726617102 1.9520159799663026 0.36288961394894925 0.8682656513313046 -0.39341837866542567
Ni 5.902638380521759 6.867861622679958 6.169874980244912 -1.3250753497691825 -1.021865153958737 1.7584443006856165
Ni 1.4476744373059491 2.133921568444609 5.642823542742659 0.39516698592541616 0.31333288606674425 2.481766068181958
Ni 4.434686105493175 0.28568191494996764 11.42040945141732 0.5114448692842546 -0.7343831675168255 -0.48220319881031787
Ni 7.833414883896934 3.6571061998379646 3.8529000903731387 -0.6656794343925245 1.62329914810863 0.5884496660750833
Ni 4.932088997442741 3.423095185576799 3.335709805691065 -0.3789960325925086 0.3262794189250832 -0.7707493648506856
Ni 5.025695236586422 4.557636539279783 8.006732643090176 0.957620227936738 0.36781276228217946 -1.045308986803974
Ni 2.545602009876834 4.170450845765678 2.018632160419667 1.7761905689254442 -0.7958407606016745 1.9496068491684875
Ni 8.912522202921451 7.828528768387819 0.8110731732426512 -0.26601096105232896 0.5031864859302043 -0.676067462495068
Ni 0.40416700752740076 8.711265580243909 11.043522185976276 1.274231784754754 -1.8143490822730366 1.3529656484215473
Ni 6.766729115556944 4.358699217209757 6.194871173788451 -0.29657983497812146 -0.8320056405580059 0.4185087459751502
Ni 0.24163537123852302 0.40289185055307053 7.232014736050249 -0.9769757496452143 -0.26022289361564216 0.8274038801199363
Ni 2.130988065699924 0.9308279224767683 10.177340413515894 1.0223523780078005 -1.8638111935589061 -2.255506161775322
Ni 6.839424980448668 3.2039533633527553 8.549870676268595 -0.9378322466765332 0.36690593419719386 -0.4634400592702019
Ni 2.7647805008851862 3.7818717384478466 4.637841254478293 -0.31405228073127206 -0.27550193126189976 -0.8241578623788129
Ni 7.115000061723588 8.465153867160916 7.437578107444832 0.6084880727831973 -0.10041803350844641 1.7311906071759864
Ni 4.8964011031144326 8.966425315855037 6.689050879597294 -1.1270824086280395 0.2955855893856522 0.2953274506282591
Ni 1.586786637776556 4.884162896351451 0.16834730548021568 -1.4048093725657163 -0.6155470365125076 -2.5678574006550874
Ni 6.882859155462159 1.4006467214302185 6.3667982693367895 -1.1983312767716974 -0.026324239716825633 1.3658939264474412
Ni 1.1686158215217155 4.590491770020255 8.249179311181527 0.6815544537515681 1.2045008959175192 -2.2215017798054193
Ni 0.36511016864074375 2.3174304995168074 13.200645927692127 1.1927589248902426 -0.19260673712856508 -0.9454661090727072
Ni 5.766111329344906 1.738109543421914 12.790364400381272 -2.0977389009234453 -0.8045352030518789 1.7854545107258735
Ni 8.788031680193882 3.52590528958193 9.481340302470763 0.8614979935901679 -0.30234142005224707 1.511880906834938
Ni 1.7938735971591597 6.361997408751191 5.742714811516828 -2.001379353755089 -1.2106046948224118 1.0641294619445867
P 6.002606653742976 2.646028642901908 5.001673515985884 -0.3161245898792685 1.3635161702438838 -0.6530656022832558
Ni 3.3854088425036744 5.175716400388826 11.713426039948608 0.07321447651046101 -0.6110267800446509 -0.26544737523937506
P 1.9321332483945926 8.067710081236491 13.11315329161229 0.004468320183998756 -0.2548703710544772 0.00921046285467446
Ni 4.7284947397655275 6.197042882539126 2.5120060696933297 -0.756462001693736 -0.09498452119770093 0.46600781999737806
P 3.946120390561972 2.891049459651719 11.128600182609393 2.2443457742831283 -0.8727833366960002 -0.1444232354448029
P 5.235119830968697 3.2029724733725016 1.0332310029760736 -0.9872228812945192 0.13396810154974992 0.1481510779183513
P 0.31848580939240717 4.2358312881878435 11.676810425377294 -0.7454224560501226 0.43140102855678614 -0.6063633131307105
Ni 6.038459557600673 2.2047289909444423 10.536865009586835 -0.1895386397262026 -0.3163446763098745 0.09731188377929692
