# total energy = -340888.638059502 ev
CRYSTAL
PRIMVEC
9.08895806321025 0.00000000000000 0.00000000000000

0.00000000000000 9.08895806321025 0.00000000000000

0.00000000000000 0.00000000000000 13.30260885147385

PRIMCOORD
 96 1
Ni 6.781780363432666 2.008777820540669 11.356131010025054 0.03631657504284713 0.8198710620780009 -0.7742224110009506
Ni 4.691774527426064 0.7974942381817541 5.787845572373353 0.15502260822720398 -1.5252431870744572 0.350670446174938
Ni 2.7219247129546114 1.85217507840371 4.493993353279488 -0.025195525429021128 -0.45830145249205584 0.9889254658079225
Ni 3.4469145173247027 4.616799714896303 4.767720949539948 0.9470846185127366 -0.07610722467722376 -0.4561836348181047
Ni 3.8967361256299977 3.0006103356710034 2.806757409066597 -0.9280934221222145 0.5508159148827094 -1.495209102606212
Ni 5.56405089223315 4.643866631093858 2.529131558824562 0.09337783883221337 0.6676627833711405 0.2624294143486577
Ni 5.846744745319966 3.365750124563063 0.5193312305363356 -2.537225020481211 -1.0882466667077644 -2.532120095154478
Ni 5.688651414111013 7.994619975359417 12.409112215146626 0.040236221812227475 0.27221503298051186 0.586099677785668
Ni 2.100567204919146 6.587831093876045 0.32241896075123877 0.45251544193789806 -0.05812312939497732 -1.2755852134588548
Ni 0.7509006051410748 9.00183100701301 0.20414617126314705 0.28321832606955094 2.573632869686284 -1.1057381386243086
Ni 8.20701074020309 0.16578531615790915 6.498856559714621 0.8926327673217594 -1.2245161626971814 2.1991108137047286
Ni 9.080414135771926 2.4575541987040173 1.2484883220375818 0.13095116910029705 -0.5568546648776216 -0.6252254401425361
Ni 7.07421757923398 0.8857162066409762 4.701021633047082 -0.8509801247779796 1.04303793138161 -2.0094469612545716
Ni 1.2619290727672472 7.407673261388406 2.2917334356108596 -1.8378746761988025 0.3889621426662849 1.1889197536498104
Ni 7.836235797502271 3.849237232396815 3.9097960490296844 -0.2413067734374296 0.5921057747704319 -0.815002678242106
Ni 7.813813338718065 3.892000778639089 12.746000796645516 1.2566845198996097 -0.049333813238121485 -2.281340606339923
Ni 8.354142788358232 7.790027536270449 9.051400364823024 -0.21076489609483057 -0.4542306248567919 -0.5174085430668574
Ni 6.926876485050449 0.9887968032398092 0.14073796637375174 0.9530567769357715 -0.8966272331931333 1.298453633416596
Ni 2.1218717218993564 6.848847782714651 8.777433728973579 0.5753483528064349 0.9670705747163603 1.4710546168471956
Ni 0.48619561724505805 4.764322588234956 0.9457133256845212 -0.3430676941270156 1.4207903213750046 0.8119165831176146
Ni 6.68991826739214 1.8543655172229214 7.022899505951699 -0.8789678682401572 2.4773198594851467 -2.578825212520501
Ni 3.9707747755108844 4.794234348210159 0.5572930803960824 -0.010839770927981331 -1.4968522946365899 0.3328228764705558
Ni 6.051800721254495 5.7617448123852695 4.560506346138354 0.8851104908027854 -0.5862097210009711 0.9502298490099377
Ni 5.2225333045490965 3.0858374925496026 9.712566598934268 0.6561465552014248 -0.05833190297167373 -0.5844063492436451
P 0.6964859239513035 5.665592728283882 12.242749750171207 -1.49501729831038 0.3082930096499916 -0.7842558839775526
P 4.03442474667659 6.35638078461791 12.522197936443334 0.7721539585076961 1.1373634788390734 -1.0017167040353199
P 2.5838270888089956 8.708975699154916 1.2156708222677663 2.0809133447256745 -0.2867870172574158 -0.35541927371383303
P 6.315435029926848 8.254818657999978 5.780781634405343 0.9388349769094347 -1.3392914933685645 -0.127579938635219
P 5.002871373500575 1.5421507293444139 12.530790637105914 -0.7055037654783141 -0.4094090976667272 0.37986429413007483
P 4.4077173306758395 6.671767618753283 7.9313744628138565 -0.17324247366934034 0.42444028096823677 0.4311508602191929
P 4.818301908348212 1.1520981072429866 3.5403162828091044 -0.5502906385068588 -0.7405998378504987 0.3238229869647907
P 0.4789417200599445 5.642479508710214 3.7165357224709736 -0.9290159339364839 -0.7572469594888765 -0.45313250669660665
Ni 0.6731672939323492 0.26500401460619116 4.723755843082322 0.39810241440465627 -0.86045052616226 -0.6724838589088676
Ni 1.9556528624564833 6.837422962815281 4.516328558069236 0.8452882165995248 0.6712111628440312 1.2817987984687345
Ni 6.318697965761274 6.220028240361459 9.05045602211217 -0.10927008458243762 -0.8188940428767123 0.6861220185175925
Ni 8.962394019309455 2.655166318236331 10.2633747079714 0.17070608040073182 0.5035490114759457 -0.49196284930024314
Ni 2.6206828125098296 5.895316135568365 6.751459600358441 -0.2513081076245156 -1.4812413275722103 -0.3822669900342965
Ni 0.8469963377043737 0.442364118466446 9.118791351001127 -0.47896283749614926 -0.1961674578966299 -0.2529577274127966
Ni 1.7615127247869855 1.2068863445965319 11.310848913588574 -1.135469090029838 0.5503855122135102 -0.3333101005196195
Ni 4.3296977172977975 7.0670645694799585 1.2967179674743525 0.37843836031682565 0.47547796427134237 0.025078540235182616
Ni 6.121049490397936 8.460828974498895 8.108644585992327 -1.7505795532255592 -1.0452614213954903 -1.4484260808144023
Ni 5.3322824694535536 2.7890375770253777 4.855731145283454 0.5194060331128603 2.1733941256649145 0.14284457810377332
Ni 1.0747965215276738 7.795480910924086 6.8604880109128406 0.024200251395287354 1.5973351199447008 -1.16544095380158
Ni 5.187658973639085 4.962743625007559 6.898772518772928 0.34401334586973653 -0.6558850740099221 -0.3369258428953359
Ni 1.0255707263208387 7.592315438202818 10.930633270466533 -0.6026159302731363 -0.47334703397126865 0.7710728096283752
Ni 4.602566407050309 0.6459076918303662 10.370114518962824 1.085678391759956 -0.1366633889937259 0.7960245944777065
Ni 8.223552643319122 7.412817611478337 4.562169625407714 0.13744500435475684 -0.20808760637298354 0.03507987442226862
Ni 7.424351498870781 6.413795730762957 6.762208201800759 -0.8817677995827976 0.22292647115802897 -0.02986619143181308
Ni 2.524194436971469 5.343670933521899 2.477225429975464 -0.32342498019542365 -0.1820580150784413 0.36041055628083735
Ni 2.588962349941171 5.7693886258581175 10.944334874283797 -0.7759761604672636 -1.1422066658639878 1.6344507938500754
Ni 1.1946071626680912 3.4146123614596564 3.398883011167014 0.09362466473569682 0.3643836819959725 -0.1042363788132721
Ni 1.42343985209248 0.86321921840317 2.4534796189419743 0.2600729983013392 1.0669047106968788 0.6709221708487025
Ni 1.2703090918183368 4.02992571258734 8.009447701042658 0.06842811086541119 -0.38949256124845827 0.13717349586092506
Ni 3.9037800678909464 2.8077153852140864 7.006563922176728 -0.4306705781486647 1.012459544374121 -0.41195166158292285
Ni 4.311310755757282 7.085378819358425 5.607302515506926 0.2475383561694382 1.3979800083487086 -0.17955838858503914
Ni 8.707430576336385 7.258359863371809 0.36860086400556863 -0.749739852478554 -2.4000471537449117 -0.8562274892198478
P 0.1897683489888316 6.1586777755080355 7.787479901411424 0.18778231915672822 -1.3526787133087477 0.29640499996315406
P 8.95568636848548 2.0817803292373642 7.793812178280073 -1.2763799414460082 -0.668297845851978 1.2779287739903669
P 2.0931869712212228 3.8057556584918113 10.074225317005757 -0.25593480776324956 -0.9562979095808886 0.42653238761057505
P 4.221039227324068 6.369968776463224 3.3891987266779293 0.7177471016220413 -1.367536861367503 1.005219574982256
P 7.089859675532163 4.331779088623936 10.36737419819937 0.4124622826707542 -0.17538985902964632 0.5797107435401887
P 6.538232651401211 8.172718102589466 10.343097592032928 -0.43951311614095917 -0.39894445068997747 -0.2850090994213866
P 2.6675636566156005 8.970374124219276 5.510698710205063 -0.5181500492185721 -1.0679514067938383 0.15828688080077255
P 7.493554823225441 4.010502609862634 1.5745501370574504 0.3057756425447766 1.4067824371316868 1.0085429829285342
Ni 2.6677636136862337 1.6033648598314958 0.12824701172959488 1.0550948625461443 0.27891918447356484 1.2954156179212206
Ni 1.7710379525153392 1.3878111376887146 7.061303988054166 0.23493275159028573 0.2460797693460407 -1.2717529841969581
Ni 7.101738943319338 1.1412004468934673 9.012769567672432 1.7724416434059733 0.569258180748297 3.3008490871410254
Ni 2.85842268053516 1.8380144822197646 9.151875157233196 0.2844416569536908 0.856475343564596 0.23660911085144415
Ni 6.237560839872903 2.1659804338895285 2.371150021796008 2.1573134180529685 -0.07187853130785685 1.2634007555775209
Ni 4.312028783420011 7.218213936963281 10.435496845476836 1.1636594364211248 0.24264966061856916 -1.00599167726159
Ni 7.615746771297947 6.411987028169501 11.520617514119621 0.3046759817226946 -0.49712099646241475 -0.6116443590239917
Ni 7.708017870437495 3.983535672200396 8.372741522614463 0.13362100262297635 0.04381442608178906 -1.4303720515261689
Ni 3.0203879077481957 8.469227171465496 12.225788846102619 1.3301373376731223 -0.4575010680779476 1.60245624322135
Ni 0.3439934197768047 5.470225581317316 9.850527888713543 -0.7521680023040724 -0.9844838850968012 0.6043298276404496
Ni 0.03148142297967412 2.3452510366701076 5.520329369843386 -0.21477607413675268 0.8082851570126145 0.04369229868162798
Ni 3.6540336866698575 3.0806840535019155 11.5685599484913 -0.032884666543162716 0.012068244018443731 0.06421021612932168
Ni 1.2953673483518016 3.392926108253691 12.299963830349846 -0.3905315440359338 0.7176458001574866 0.1250718275013846
Ni 3.486969554155671 8.686880442849928 7.606870495153377 -0.15240625365027946 -0.21876205536769422 0.8595498687248617
Ni 5.949449967963474 7.945485069730144 3.4853235439060475 0.09627367232276968 0.09986010412244736 -0.014375809105697822
Ni 3.4505319225116153 8.36453146707341 3.3439566216555767 -0.26141382859994977 1.4324345904821523 0.13535778280842495
Ni 3.7806701350850784 4.896757791698544 9.089513091381521 0.34531509540029565 -0.34633556624501 -0.5303692169925833
Ni 5.411129177987397 4.920116413131625 11.589019192400198 -0.10273973966308758 -0.26459685431362173 -0.045598771675721475
Ni 8.212436847983458 8.908878236041758 2.44462061181714 0.3495810697655012 0.3844290306826218 0.3285856984607567
Ni 5.169681015197593 0.1791033659578677 1.5921363614196562 -0.6450445317509924 0.2629791162045406 -1.0696272518343644
Ni 6.511692894753508 5.789493400414528 0.3804174179842256 -0.6258484184385157 0.5075355069275195 -0.047261761200441184
Ni 8.33066601047432 8.946070251179567 11.236726645296331 -0.6301935827810888 1.0594145729674207 0.5529447883002541
Ni 0.09617571539155229 4.823409902607119 5.902540039192883 -0.2991979893272589 0.7385609530435989 -0.17381145879893292
Ni 7.897204526129938 6.146244081297742 2.3571021286882377 -0.052301637617193794 -0.8581511886051221 1.332152568330938
P 8.556971969642525 1.8353241507239701 3.250997488413895 0.250735008729865 -0.7478932861881185 1.0899232830792391
P 2.240091795432463 3.5646528760967375 1.1873578099618556 0.4078121854932525 -1.4312904495753802 0.24956130013673797
P 4.900057083363995 1.3746048820691557 8.261119123516481 0.3786245081857028 -0.10909473534683792 -0.11837436087655098
P 8.82468722034735 1.6657696437846217 12.396581269088344 0.10587777107143702 0.6330652479019291 -0.4445522212267634
P 6.876532748039618 7.792926913794632 1.2638277560424886 -2.399066277888881 0.3325999618264724 -0.7965665830241055
P 1.9563254453304317 3.6417272378681487 5.9376724965031675 0.5327534009540437 -0.9705788449799349 -0.30237175906955027
P 6.964622926611376 3.9973145321585872 5.91138632177686 -0.1305685889498977 0.4732866130469785 0.8218585248216749
P 2.6509672197530305 8.712184101242807 10.16329892080672 0.1366837007087001 0.21116650240862342 -2.188931816289198
