# total energy = -381174.18033152 ev
CRYSTAL
PRIMVEC
9.14204384957892 0.00000000000000 0.00000000000000

0.00000000000000 9.14204384957892 0.00000000000000

0.00000000000000 0.00000000000000 13.38030526581191

PRIMCOORD
 96 1
Ni 6.171281784719141 0.6205198767051119 5.787142248167281 -0.9444129852178444 -1.2679096991914678 -0.7517422276205633
Ni 6.403014309827224 8.563206112842812 7.844404694746884 0.36126621941291326 0.4302892835498461 0.5454520794676349
Ni 5.992134295291257 6.670702493024706 10.142926590231914 0.5505546908015228 0.39947615482373133 -2.692899917580433
Ni 0.37778124512008315 6.112589863810435 8.292912447175084 -0.17604780432861938 -1.2541949207085368 0.053911148196158776
Ni 8.480507185032819 0.7836998725100756 5.113390993288474 -0.43639539644758396 -0.8796376406136722 0.06498360396023647
Ni 4.335705671364978 3.3596188016606647 5.603444763562409 -0.3846457746791182 -0.021891914977084877 -0.13881128857466415
Ni 6.238548942670271 1.3116912959595486 3.5881296705493977 0.12682969073275577 0.8138477387020563 -0.8258542762446294
Ni 3.8890528396147164 7.5829413291423515 10.284290012819348 -1.0585686800273577 1.4691010926652506 -0.43252717174142935
Ni 4.643189171029063 1.824011428003772 9.887724610395354 -1.121179155769727 -0.20044165979195158 1.2016418292021693
Ni 7.3182791624278565 7.154590868990102 11.941922643908196 0.9130301000311889 -0.8578408564535548 1.0869873403793668
Ni 8.469756141576644 7.828569760758414 9.818320956818619 0.7977048103936067 0.1562816774452857 -0.14871234973846
Ni 5.7071219391775765 5.487191792557521 0.16874201522565782 -0.1418665304612202 0.24818241751134032 -2.4210849482518175
Ni 7.959611815946171 5.486167883656933 10.157230231891377 2.197537555680338 -0.7971342826021175 0.8021409917880895
Ni 5.989702511652361 3.9663488195653573 9.73968475325346 0.22458380425579386 0.0523268344281744 0.42019179010452795
Ni 3.3479626958727207 1.149749132879046 0.6719091330621245 -0.6856453359914901 -0.34136022451760567 -0.9498174440628674
Ni 0.3097031878878612 1.199143595288663 9.438547660364266 0.2016091977374915 0.38901510739140743 -0.6190725331672629
Ni 0.5905988816985533 5.998469731613645 4.212748839674364 1.9189580139343791 -0.09460168393698547 0.9331422974000316
Ni 1.4070153861955428 3.751172535698032 3.658362507494732 -0.20939269833765226 -0.3560275967217933 -1.5344438797371187
Ni 8.371817426826649 5.269702571620117 6.213211768402596 0.3471979142453053 -0.11574977876951033 -0.07043408555184645
Ni 5.052899003964359 5.884724423210822 8.047959612592534 0.3528882797618632 0.5603073993129125 -2.3996630309326155
Ni 3.7700325719651135 8.076465419225778 7.832201894742375 0.41232035777625115 -0.13602678385099157 0.46595794059604917
Ni 0.7938630825527871 1.2935626231928876 7.074702205430471 0.3638026126815218 0.20970971535743882 -0.2958378146057744
Ni 8.50796988447359 2.120177077498859 13.109528016649996 0.14150117670200146 0.10839770927981332 0.47800715845109937
Ni 4.4513342407813825 7.565790855057502 12.675578054697656 -0.18993304695114388 -1.0389794450415204 1.0234432970791343
P 2.8831354811370224 5.9575408017213904 0.2306766190543516 0.015640534750734354 0.39582287434186025 0.7626362488252478
Ni 1.185293398999459 3.4841151535196624 7.896869055449513 0.018031917801046366 0.6135307774134272 -0.11170723326902052
P 8.258620641049141 5.910376997988054 0.41340047599928914 -0.842881149819929 -1.5629275889991083 -1.153867904252
Ni 8.833938596610793 6.897342899761115 2.1632872990311167 1.766510622633519 0.5774594856121668 -0.5872386764861177
P 6.022595585083751 3.692517182964347 7.614557259061133 0.4180955696971316 -0.08312247965279233 -2.0046505683071927
P 6.791222055850169 1.364559734996161 1.3818509965548411 0.15264896578870485 -1.3564641484931093 -0.01845332160918112
P 2.3188062621691805 2.3784398135846776 5.995675008837666 0.6259888006711218 0.23045646098648698 -0.21121175382426202
Ni 6.6972418460461975 2.882358407417826 5.469962696896377 -0.13971426000490778 1.6379138126980113 -0.7615358166722175
Ni 6.779968199987457 1.710650085438669 9.044778809125003 2.1236023989537682 0.1748923505679375 1.8103936971697143
Ni 4.287380828074724 4.332515098094396 1.4102708679767877 -1.3910339160481786 -2.138225805293898 0.6610362791935582
Ni 2.5324101145106024 0.8258328095648972 10.581519796207546 0.2700969581962445 -1.8994867925836452 1.1416225112257437
Ni 4.815315570852915 8.90835483277853 1.691351231071336 0.7340327261559423 0.9070849381913475 -0.6691326830484475
Ni 6.353638131505117 8.838491334400908 10.352770319976802 -0.6751259245174049 1.012808185962791 0.10256490464812014
Ni 2.327957447968186 8.995423657503533 6.077883008898002 -0.19455023400818106 -0.8917915023673868 0.326090957063361
Ni 7.591644554797349 6.3707977476337225 3.8809977848619654 -2.178958764236886 -0.6542215702645701 1.6114594751612248
Ni 4.926290839997898 7.75260851919604 5.967562310085896 2.4779400095676483 0.5065451179897921 -0.8194082635089696
Ni 5.147656287487527 2.3341100434154693 0.09386593425703181 -0.2010461261451699 -0.21335656808140677 0.10433819449845902
Ni 8.711334647809133 8.765400694577682 0.6124785350179938 -1.0419246437127732 0.6757771849481587 0.11210215471459403
Ni 3.4982853213403007 4.989316089646593 3.9870363503791126 -0.342970506427519 -1.3422472335627786 -1.0539324668069268
Ni 3.875376342156862 5.153397490965824 9.717741105627733 -1.2891547246131734 -0.8206735033746383 1.454453775065721
Ni 2.4833447656761742 5.873260300341738 11.474669130759855 -0.13142605185418654 -0.09448187052966954 0.651134189588498
Ni 1.3166005734561181 1.2960949693130919 4.084365290810633 1.112563389076258 -0.08586121874019406 -0.2700509354496575
Ni 0.5414539970834548 7.127000180936755 12.69780236306667 0.6193319574762366 -1.260418018800113 -0.3627340622076914
Ni 3.9321758600082317 3.546281051055364 7.908910955483929 -1.4558853653059247 0.10540263120723137 0.7045930807385865
Ni 6.629526727951059 7.324386047656364 1.192197470443424 0.9003242224287462 1.2453104737347134 0.05674476099021195
Ni 1.583292273884278 9.161699149324026 12.780386101125346 0.40611654295838445 1.2165020341434534 -0.8739195071829724
Ni 0.5019759095351576 4.473969941119382 12.166310451063309 -0.33527262356262905 0.04941171766390845 -0.859328753852991
Ni 6.926771138609265 3.4562684882411703 0.9996669431622294 0.6714636451744694 -0.20808914903488035 -0.5380876686827636
Ni 3.1690986098012495 6.619589326389102 5.563062527886718 -1.9105811027245936 -0.20280810314159908 0.1898998797203633
Ni 6.701520322523654 5.27416388897268 2.113619489513218 0.4239715688619343 -0.05561553248177518 2.1296475767065837
Ni 1.5711516397773058 8.109267072219618 8.603282090052703 -0.08611215840873557 0.36850953123888797 0.758345591869694
Ni 7.240425517808146 6.485329271799497 8.231644298336148 0.596960788869888 -0.8437239574361985 -2.230367457726165
P 1.5573837218818989 7.802716061018566 10.8286539224301 -0.07464709519192951 0.7325268310343771 -0.1577171243402316
Ni 3.801563480876972 1.0118231187435858 5.1114236254723435 2.5895256296571403 1.7921265234294104 0.8761530244991814
P 4.471922123318206 0.40594148249938045 11.800184397526795 -0.03581366726449961 0.7239558015359145 -0.4044484112273422
Ni 0.8590787658852402 7.37066307314544 6.312507162445871 -1.280720734913207 -0.9451637473409399 -0.280019359516279
P 5.097749870627616 5.626223993987367 11.496665802239361 -1.3070904831559875 -0.7871134080310057 1.8891391308007335
P 4.876814099194483 6.49130816841543 3.8923311765053494 0.9264183484126367 0.471508180990317 1.871682625887183
P 1.1489263489410735 8.124863398866074 4.003066009899569 -0.5071133317884362 -0.0029413420165110634 0.09932685732679666
Ni 2.5133123851058845 8.232611526565455 1.48305982035609 -1.2752455707312491 -0.7745738808030983 -0.7671986713849497
Ni 7.729680273457872 1.7185853794182262 6.966816947074763 0.20416564561075803 0.15612458304213114 3.225069421006549
Ni 3.8904789984405355 1.601155827382037 2.9729569752367313 -0.5231009654659443 1.3915599637549778 -1.077912374661292
Ni 6.0207671763327015 5.336540053514753 5.649298512425618 -0.7251413372035834 0.3987459615259262 0.003853826528451427
Ni 8.397972814010421 2.314299234597842 2.675057080041274 -0.08628365098959334 1.304046039902709 0.5760327804679692
Ni 6.3769320589934955 1.6593266517966943 11.595158524840926 -0.09661485771227231 1.8473515053409864 -0.4306806054509938
Ni 7.049429939673457 4.416731605167761 11.979414165348476 -0.28795506942358795 -0.30290706274772994 1.371835745853173
Ni 8.452395400485425 0.3848489591472671 11.454451500995118 0.17175431915958808 -0.3417435759989534 0.8038317492269511
Ni 8.2508864720322 2.9272001320373287 10.760414965227787 0.38940488663065836 -0.35633792887336047 -1.201309385563415
Ni 1.937052799037441 4.551677313039009 5.844637475548425 0.5124164891689046 0.5416044235867705 0.7100548751841061
Ni 6.435139451583173 -0.1704726041085267 13.026556655936096 -0.5072377731814425 1.9000292953506763 0.4460012949684642
Ni 1.1072843396359087 1.2807454778480267 1.5021666918045629 -0.14088385483297672 -0.1395471382994242 0.20259984378553497
Ni 2.663049919773128 5.756845515162382 7.861156575724004 -0.44726704905476516 0.6592035968601937 -0.613208361077002
Ni 0.11615606534108294 3.0561669432926433 5.529745263625084 -0.36598599348608585 -0.6353026218728801 0.7659953951054679
Ni 1.915888967744037 5.824578917345031 2.16203026801477 0.5787082704176033 -0.14937697990565243 -0.21672214211952998
Ni 5.067608552366556 1.4969730967472052 7.73836521502536 -0.6976310475984566 -0.9196013254908034 -2.9171988436059566
Ni 6.05121932408144 8.204097492092828 3.458821861062012 0.6037754977988763 -0.7427649638226177 1.0970357257543042
Ni 2.5887799563054754 3.2245908153956186 13.154873467880412 -0.4142682255312414 0.7597900376257044 -1.9149566060844696
Ni 2.3288899364312217 3.0171487005452353 9.892233466375442 0.4207003543098303 0.42423202161217266 0.9032321401041605
Ni 8.468384835013358 0.03593371718438658 3.015559813340573 0.02946047135296217 -1.4799496053439802 -0.7966403736848344
Ni 2.791669333365744 1.0528069008983725 8.288041566262287 0.6512917982122849 1.1113457146190733 -0.4844523998558109
Ni 3.2574290365644774 8.50061968129437 3.659178892002076 0.4795835017992837 -1.410993132778925 0.31815010494972945
Ni 4.534426276472852 3.6159251403828607 11.57681409984164 -0.5573570584353369 -0.5787854035124419 0.5239054636451107
Ni 4.435939039097541 6.586879093832817 1.8253818203626841 -0.8534674099762075 0.789625375819582 0.18706318160251653
Ni 8.003932444071625 3.9323404167958267 8.42212609361179 0.5502497579665943 -0.2955452230660201 -0.9074083829690374
P 2.4346542406357115 2.9622050175761814 1.8223439192228144 0.5700374821164828 0.3104979877211104 1.4939400060858012
Ni 0.5038344870306 3.9756828462394678 1.09636873939214 -0.5765171763035555 0.09007165727711584 0.7994899273184877
P 0.9736825121966818 2.0411532512784754 11.569374304633618 0.24450419732880468 0.13703697028306078 0.39140469066950656
Ni 7.483210773816325 7.620003174526135 5.768624124336646 -0.15546612352252578 0.7226825912504456 1.2183097767761535
P 1.268915673228733 4.885032796530454 9.857096935406513 -0.38185175687374884 0.3075453328506897 -0.01637561314454599
P 8.76093937722512 8.837595414112894 7.795954605457184 -1.3692767268767452 -1.3713883739031092 -0.32844505911783434
P 8.235299287429497 4.166056765398799 4.044303940870751 -0.9539335231137701 0.7846739453515778 -0.5413378001889452
Ni 5.614970138124653 3.6272887007706367 3.5193010515248697 0.020494263298609865 0.3986994245587069 -0.5644705295516665
