# total energy = -340855.45786729315 ev
CRYSTAL
PRIMVEC
9.36580816674166 0.00000000000000 0.00000000000000

0.00000000000000 9.36580816674166 0.00000000000000

0.00000000000000 0.00000000000000 13.70780696242536

PRIMCOORD
 96 1
Ni 9.047960501772092 0.9098386011642092 11.957579855088103 -0.6184559826291864 2.0829650850483805 0.22953806293727566
Ni 3.8356074170858734 8.86582363504812 2.4620180267563665 1.4506482852767015 -1.6131065238463442 1.5626342261284054
Ni 5.253656297636942 5.448746076721653 1.2330966519647402 0.02709891309932107 -0.8605130039690793 -0.36898364266182904
Ni 1.481343010510477 5.2540683931856575 10.386679116033998 2.0254245676297504 -0.30764252055018626 0.4974920066485884
Ni 1.7839990936176504 7.276717638548748 0.03019723791286239 0.8952990013000129 -0.7815518547828281 1.1228148916009373
Ni 4.11828623188831 6.215337455410253 10.52800634788491 -0.2072363141162818 -0.5366085130340759 0.3450330453835026
Ni 7.259147382880821 8.789417373993244 12.462274210179793 -1.4036688312033696 -0.7416136238269937 0.6088063753545644
Ni 0.977706055133558 0.06252988003270098 10.376850637197151 0.6529946398360045 0.38016228498646787 -0.9733834043082655
Ni 4.690181195425064 4.586417409420287 7.367863808116514 -1.478259362125751 2.755682400124293 -1.49902796213167
Ni 0.5574688095893621 6.894527114539636 2.9985692409252866 2.733199131420112 -1.1854806460612746 -2.0160593243647664
Ni 6.747952220508157 5.517275693311324 7.355389488540762 1.414260490676287 1.0269968187583474 0.2806161125600135
Ni 5.637738714846971 2.36164466322056 9.81750398311876 0.5917118817661229 -4.020000525309761 0.9586347852441812
Ni 8.010257081068843 6.310625185242603 1.324529415255022 -0.47206868147947734 -0.08958546166931669 -1.2692587570201947
Ni 0.21135818745101595 3.646062196292961 3.9087946499568123 -1.2031047869009408 -1.5127301422091108 -0.3603629908723535
Ni 4.4954660486573665 3.3338155258702455 0.1818352877087776 -0.7050363389235922 -0.2772996465922708 0.7215996425989121
Ni 7.510300888206581 4.664874782410811 11.707247731117393 0.6362428742989623 -0.36350025094975463 0.4594422509647184
Ni 3.6211397814036466 2.631539150204914 8.111525815842313 -1.6121284762037915 -1.0745647983452977 -0.25226532933146234
Ni 5.22682325793086 8.23536427455425 10.737886610845308 0.811327543383364 0.44127432180644 -0.2218080412828696
Ni 1.515509477822096 2.228771946183844 2.368174504506103 -2.5578056728460403 1.2944373131683513 2.19300675768952
Ni 7.1953568651013695 3.4783112105423006 0.7704444720690833 -1.7118024324573615 1.0949567317380884 -0.16976762774686247
Ni 9.03947507979174 4.273636887945827 13.46846824327984 0.7637932452478265 -0.5380701851812669 0.17863279144697622
Ni 1.3549046035184658 8.248485771457643 7.364697228456959 0.37501956444326384 -0.8384115440843497 0.1202828907531735
Ni 8.68913766853669 4.847414378875574 9.73300847375877 1.138188288733214 -1.1320274113381408 0.0744617186540008
Ni 3.1955762008923134 6.1037906830195245 4.039704293652378 1.4262379747531373 1.4737815288600553 -1.1965798412982296
P 0.5466925109904727 7.213479703436891 10.349846203206035 2.518206313286863 -0.48654476360846527 1.2014379407214792
P 1.3861114755256794 5.278101056322065 4.1861452566305255 -3.030409658003697 2.7580835533666175 -1.3620259588516028
P 7.984023453069983 3.791897191498339 7.465888227024647 0.874354794948178 -0.3883630756297054 -0.35537145119503316
P 4.616444189628908 9.189028300743477 8.412412697832389 -0.006683325557446555 0.2595058129439595 -0.7505227533911655
P 2.088593898965368 1.1743037292942473 8.47910099658394 -0.5817036056005014 -0.46023157963523315 0.07967283054129505
P 9.154000179102725 7.233990822793373 6.182001735261611 -0.9040703197347397 0.19666496635833872 -0.4231377601067293
P 4.0327576739141575 8.344194962646633 4.836511641869692 -0.23968415023234207 -0.3572139037204106 -0.5551345968627214
P 2.5966234182592687 6.4577245645179016 1.9154744321119062 0.2110466890013075 -0.4565335619583557 -0.9764206484726926
Ni 5.755485652084272 7.644522281584545 0.8842512139121963 0.5586112425574121 -0.05977403473483899 -0.9489165295151528
Ni 3.9439604489740643 6.379004948905468 13.101688219631074 0.5417887716834346 -0.07998547668570741 0.05061833637749993
Ni 4.384322006007426 1.5791501426747419 3.9683415201652945 -0.23503019640009845 -0.25298755220946756 0.28830448234320666
Ni 8.08271097117923 1.7172115173020925 5.841307359846486 -0.9396603010242074 0.6274643567753838 -0.8129643076558386
Ni 7.8789671855715095 6.862758294056903 10.568239048989769 0.13761726826656298 0.5535667381549692 3.198889934397704
Ni 7.706570759089884 -0.1608924046069379 10.151316362870348 -0.8858257717022551 1.6072318102331222 -0.19764147133899512
Ni 9.21690094512927 6.347573297508046 12.605452125676752 -0.06732973559490985 0.6826749405092566 -0.8325712832534887
Ni 2.8654595689480606 6.51315141582003 6.288607107390935 -0.7744440400934534 -0.6436227117028013 1.312639952219307
Ni 0.2626303663574653 1.1467588881858395 7.2584065474739266 0.8703287045079205 -1.5587336055224188 1.8681779551680342
Ni 3.563399575543962 0.5869373876456336 10.171178431737605 0.12294475385605279 1.3669467931919876 -0.977625210303755
Ni 4.306407849876571 4.057445943605339 9.769115536472519 -1.4017651864227536 1.6855481267465229 0.8738017506581853
Ni 1.858401071776505 2.541140372109589 6.365466673549398 -0.2594795876917144 -2.628481442095047 1.7593285030627828
Ni 6.224637702680111 2.434164113986422 2.6311448496912577 0.0632797338952523 0.0009662205680112393 0.6641629977479981
Ni 1.6857517684808951 9.344912807852738 3.0281370965455667 1.7520980467526146 -0.10223477500221104 2.4024197677421464
Ni 0.1594463238632663 5.976949546286724 7.977779268926163 0.07115373732669036 1.8389334564806201 -0.1692112410227602
Ni 0.8048029384431717 2.2117355415676614 -0.011899258969137048 0.3593425200276392 -0.0444407468118783 -0.15361647190829675
Ni 7.07708544262025 7.496167884047252 4.938140960248286 1.3483230074432135 1.6006852673638563 1.4807880420848754
Ni 7.452476390075567 4.0203105151813885 5.132408421397152 -0.6760330097127066 0.09985444769549254 0.26228826078510314
Ni 5.237200573112131 6.802376930362274 6.189308002024165 0.04122275409521287 0.40496391741117993 -4.067713000894376
Ni 2.8607672991774677 8.252316386899105 11.878115657745605 -1.3023892210255763 0.6369183030994321 1.2195207663651189
Ni 8.04856323548346 5.971058453101689 3.6408482510209272 -0.9290408736371484 -1.5790769450654611 0.7213366187455125
Ni 2.4658861054295294 3.8612790966092145 4.960868966340693 2.7524045007039692 0.32385204043051324 -1.978680626605992
Ni 8.587303238964532 1.3390576565088004 3.172493230679535 -0.6318907679778537 4.278403334997528 -0.6643267770193719
Ni 0.9813118911848117 3.990602172442229 8.196775272740288 0.740262509115738 -2.362099213746229 0.10913355900457333
P 6.980917326842919 1.6561277180130634 12.117125456515378 -0.9156467117184295 -0.5513381059347666 0.39839911970946873
P 3.4205335414509146 4.590706949450089 11.984282710064024 0.09678763584471073 -0.9857552956100569 -0.32665094333188904
P 6.361931081057584 6.688750948612119 9.355207703924265 -3.319489842170664 -1.7625385253596484 -0.9491954942081524
P 4.237512966777813 2.9477100941483445 5.828984766359125 0.11925316393707851 -2.070860331365046 1.22630873582123
P 6.873978531951454 6.178183295370454 12.974987570017152 0.06082021661116622 1.1504457659443286 1.7316230667277144
P 6.782849220837952 0.8852627211681323 4.3918989446190215 -1.1711346617522476 0.02085061819676409 -0.297134679040327
P 0.15075860043172631 9.184851150408777 1.7232496536715556 -1.4817162103261 0.19586689593707557 -2.09921959923403
P 6.217632078351961 4.7847664896630135 2.9835174510084825 1.4869764302837747 -1.5031936634735854 0.20875506475365335
Ni 1.4214580346358905 8.076360953405851 4.967516816806096 1.1049087007444778 0.07095499105232296 0.8478865734543204
Ni 2.4789045784457437 2.7096125250705 10.437261034896347 -1.1119499238619752 0.06322908316297497 0.8637183982802544
Ni 9.104033593821068 8.072033950144348 8.694697212121168 -2.59761534864381 1.5065468962165343 -0.26956551117280675
Ni 4.73631716526526 1.0236453430073222 12.057454957642282 0.9991232322765308 0.8828705457286731 0.855803514308552
Ni 6.766327935657663 8.08120307610325 7.8676916894102 -0.4198521473769221 0.9673587953807404 -1.1820119707863836
Ni 7.78803455642444 1.2061193788166076 0.7131716200248724 0.3077425364631603 -0.7281703538378943 -0.29569383282874234
Ni 1.8856743044550779 4.842300647748341 0.25808139344813047 0.8059847910142118 0.24330297793185193 -0.6676843806376952
Ni 2.710043352235065 7.92760382612777 9.762041541746514 -1.089989103320168 -1.95651823157634 -3.138036807666073
Ni 5.5324576679582895 0.8192215997442236 6.27366583400765 -0.18487388726068163 -0.9588494723581487 -0.032142903281131736
Ni 6.634757065922568 4.3162325823902465 9.54918669818903 -1.5512488671095994 1.1900132438243056 -0.9392270701415307
Ni 0.1908686094527624 5.075780873518996 5.897139750631782 -0.374262117451949 -0.7020703143167328 0.19294149476016448
Ni 6.52350999938545 8.995830414859682 2.6897186124562977 0.8060125589283538 -0.42227978298180824 0.8936228991491707
Ni 2.3195359907882573 0.44023792836874703 0.964949824739253 -0.49090664012158675 -1.8147293484305909 -4.134827020934053
Ni 5.308596126926953 0.5907623836023399 1.0308542053674519 -0.9178920561091806 1.99376837417705 -1.706948961019802
Ni 5.002802498164792 4.565718973905298 4.786574090592603 0.27794756458891484 0.6574570464827323 -0.11359545143066888
Ni 8.957589821100543 8.735779392004854 3.6527877829641433 -3.0111873194389753 -2.9246447583610404 2.955761277260187
Ni 5.4295649020905685 6.669382457822529 3.5153529808869974 -0.16842859722046477 1.5417440129429576 -0.5015875168742006
Ni 0.023760118125780223 8.56522802968452 13.483930255583775 -0.8091755300373678 0.6108871691429931 -0.013291060681951305
Ni 5.640529725608721 3.4139025494397783 11.95623679823161 -0.13939158655816639 -0.17086240347293802 -0.6433627731731952
Ni 3.272647434309888 4.194936003949244 2.148451713996971 0.4023326504359199 0.5245346125886773 1.1692166187939284
Ni 4.436199216105852 7.049240895658231 8.096680073699865 -0.985498956624877 -0.11729424043849476 2.948733423879128
Ni 5.796414232717982 2.818883406135374 7.572823275592942 3.906115824773447 -1.7870113136900319 -0.7503646305467464
Ni 3.0336132844395096 -0.07573941553059227 6.598362472905512 2.2581130032705494 1.3383499553909015 -0.4806278839033981
Ni 8.508667915623427 2.2948102578653753 9.241802755241148 -0.7209902911496873 0.2824462237902168 -0.4211132734775328
P 2.111324714800154 1.0412811593307263 12.254888998450703 -0.20263378234726392 -0.1329319469757517 -0.8926286535567015
P 2.8638111867532015 5.105826385343468 8.273771579694461 -0.6315480399264544 0.5197757577474532 0.6737305868317752
P 9.04368969335814 3.249392133231283 1.828169180374319 -0.5337972688375259 0.16433642942896215 -1.0299001084480714
P 3.26021900719297 2.0938574830194057 1.5642800494316889 5.437705265780906 1.1995412379193986 -0.704110227564897
P 0.9902187745218045 1.1105975037861244 4.807724894630385 -0.9315333010416988 0.6089398156086351 1.0015662945003847
P 4.383479083294146 8.611729266033803 13.159508034858124 1.8231520252766473 -0.2309061469293959 1.7499542609367345
P 0.1578344683193163 3.0969261460147686 10.897267374053097 1.0386955952525143 1.0473458147283445 1.5825775020195518
P 7.487513877524243 0.794988508318214 8.05714699844703 -0.24033515355277962 -0.1001023020402405 -1.0038193522006194
