# total energy = -340865.6749372941 ev
CRYSTAL
PRIMVEC
9.22845791198722 0.00000000000000 0.00000000000000
0.00000000000000 9.22845791198722 0.00000000000000
0.00000000000000 0.00000000000000 13.50678098101378
PRIMCOORD
 96 1
Ni 6.736774240863928 9.263618288659755 12.088893129713773 0.40319628398779594 0.3694623820704605 -0.4327176904856806
Ni 0.48659812626338794 3.368479405010606 6.703496421805633 0.13319317105693834 -1.7748214564920595 -1.2735902945160131
Ni 1.2453619318576787 0.5320981149170256 5.166721938895483 -0.4492966778902842 0.4131359116990111 0.6459852983977068
Ni 2.9345019454888703 8.014057408473866 5.178837058379601 -0.7024492949227064 -1.0556959864652526 -0.1716764147338011
Ni 8.848559167759621 5.495232890562028 4.644739136643404 -1.6333753013977095 -0.7680304232576256 0.7823890059721429
Ni 3.71294082324963 2.42120589062436 6.779039655036165 -1.4069459592927447 -0.33890507810889375 -0.3464291544000808
Ni 1.2603674043448632 6.124115380175607 3.2994902225552276 -0.01966431119814678 1.5885648299512383 -0.833471683580571
Ni 0.46750536978815044 7.388995500416064 9.459514455126213 -0.5652066363867427 -2.925023738967014 1.2744061055490892
Ni 4.197158007384054 2.4636383398839388 13.138437336996839 -0.08215883018794237 -0.059903618334167796 -2.4990605935963477
Ni 8.25118263329441 6.732307667257658 6.484699837149169 0.4666151145640738 0.39802862374392745 0.8119849744617048
Ni 8.150094105849996 4.656984377383407 2.6008793510113466 -0.32737702286463616 -0.33001188938432197 -0.8650777405216263
Ni 6.221724779005221 1.6256205381519229 8.020461958231618 -0.8176683979997273 -1.442653182886367 0.3089877217241711
Ni 7.564363885209402 7.8726036063314515 4.464909715318512 1.4033343306820865 -1.0302464360438965 0.9648072326034803
Ni 2.855100294025318 4.774951754261439 11.394009632301241 2.048049761228434 -2.677659446481595 1.5086636854492212
Ni 5.167493437972929 8.085864039115183 7.9347341989021585 1.7986635532169797 0.7743100856187503 0.11076081019535118
Ni 0.9002416017271517 0.8536757261901992 12.593074236745815 -0.09958525319450591 -0.7961127833161386 -3.335249676108082
Ni 7.431594061917197 5.858981785737222 8.757378312678208 0.35818218117095085 0.15455106790742415 -0.12412746131024428
Ni 8.183048928883045 0.5128586259617475 6.239403735735663 -0.4415944241500201 -0.1483110005349833 1.2934618366289594
Ni 1.4623045193292257 6.18720111813526 12.622721580480336 1.3028972710102464 -0.012953731947190593 0.03060486937005052
Ni 6.585630557964107 3.538707538773587 9.141740814184661 2.486736781923672 0.7142465446679505 0.02889277177495024
Ni 8.580370953768188 1.8869704648659862 8.240851374715442 -0.2760837719072987 1.3415584350258702 0.7248572303042613
Ni 1.6002976497725658 7.260443082367797 1.2081721695107506 -1.8395651765273482 0.023008030859399085 -1.3591779478798462
Ni 4.507649472224968 3.4337984297733937 8.687764363625423 -1.6737220806458721 -0.23467435572257644 -0.16095414322029056
Ni 5.837839388770347 6.486157010645926 6.53437754867793 0.4102228518172742 -1.7363855211133643 -1.4797719421155353
P 4.399224320778516 0.3364114344440841 2.511869952065379 0.8582159804047865 0.7057850441641588 0.6666150588329165
P 7.425992387993629 0.8813943222311019 4.368308986933455 0.41772687350380316 -0.46176549978125636 -1.223583109359951
P 0.45874110335452245 1.5581051404174562 0.8703783120786097 -1.5773494208513932 0.4589177459198161 2.542147911704125
P 2.899332292568415 2.208794475964134 11.242707219926155 0.004819789986146537 0.028266451044860995 1.5017667012190716
P 5.636308325932009 0.03660190958097878 6.277830111436394 -0.7692360135299526 1.066095327421706 -0.16251377439792655
P 6.7220640790283985 2.381191297325201 12.381342036584394 -0.8113134023159768 -0.8439183328351917 -0.03838039955041132
P -0.15316286948050745 4.986920202944184 12.343077158896287 -1.1583771049762632 -0.7427647067123014 -0.3924411023538209
P 7.503317636437737 8.00399838940189 8.134796091248516 0.6922188754439498 0.025755768807865325 -0.6263423273557988
Ni 7.437149593551443 6.4343761335699154 11.409002184947417 2.229446488573793 0.6456256010654429 1.515230025812829
Ni 6.3977114704754605 6.322121172109822 2.5328453139449123 -0.4341089144062524 0.24330169238027127 -0.2459213893913055
Ni 2.0702384095910777 1.3869726177837842 2.9206389560852735 0.24999504524004687 -1.7386897437665088 1.3721885012069015
Ni 6.882168594514354 8.713648342242925 2.48026340672629 -0.6950578875546417 1.3933131990006584 -1.1786199143856992
Ni 1.1268223905920662 4.780387315943451 1.2307689714370238 -2.0745640054688788 2.08567477067006 -0.656286937434031
Ni 5.119025577270166 3.0826463795828274 10.889126239625734 -0.9489329845753851 -0.7167631404422172 0.7815248581996347
Ni 8.889238210025004 2.675634473940276 10.780166760468944 1.0847599937107446 -3.9794274889834047 0.05142540565982757
Ni 8.122251848473713 2.934335833247315 4.862683934639001 0.2382556453159316 0.2392295791934267 -0.7469311793851653
Ni 7.489235009736972 4.005473709086815 6.9490361545067545 -0.8020054946514897 0.8518288459315201 -0.07404417150060796
Ni 9.237686322061359 7.886963086768143 12.046535430962894 0.2853664827608053 -0.9806136035081175 1.106946557110113
Ni 1.6510726249413783 4.7630655005323534 5.240496076753447 1.248592744030411 -0.3278861012905708 0.15363009875505154
Ni 3.7518387731472207 5.8619625776273585 5.1084128507263395 1.1680066576462271 -1.4933085431493895 -0.060194924322341484
Ni 0.33885420724073706 9.082482117701291 8.169832854375727 0.16802467691382678 1.5516108784347085 -0.977609012353839
Ni 7.3955661624153715 5.704442030343377 0.09621497884633319 0.22928532349652125 0.6790733392009273 2.0723184039678113
Ni 5.402542259774031 4.647100699010851 12.88799452463247 -1.1844414061634827 -0.0003828372607154697 0.4846172075684492
Ni 4.390771053374911 6.857390185148986 11.696197330755949 -0.15833650309178537 -0.08275224079756717 -0.14205756342610373
Ni 2.7519538204771865 8.315283501619124 2.6771248698853434 1.5986828922218466 -0.40077147659638723 2.029415176846382
Ni 1.4606710822872626 7.242447589532612 7.024282231394059 0.5336805407540035 -0.9547657892070781 0.45297824050692953
Ni 4.583295141337792 3.6269592813289044 4.104467376596058 -1.818359231873694 1.3571231222333466 1.107054800553203
Ni 3.899346443648548 5.555596233451741 9.291598050058212 0.49935657066115285 0.864003276510525 -0.33630337881998856
Ni 3.4652121003431207 1.2523017321715548 9.385051874311579 0.047363319775311975 0.3670103209855421 -0.46366323102460144
Ni 8.57782389939767 8.784689010881513 0.6808470130010877 0.025529511729672164 0.001871248880783874 0.5127067667158137
Ni 5.830659648552001 2.0156797666979442 3.4912326601370114 1.0338074139222777 -1.891830818700284 -1.902660562325936
Ni 5.204093501862336 0.018420001896937536 0.49207337031421616 -1.030698950200283 -0.5521490318718362 0.5223553455491714
P 4.267358886357003 6.462652128465816 3.1304257973289222 0.1281116427689729 0.2829542737748869 -0.2857282369755982
P 3.1376110746219856 4.4354644748112175 0.3343885564802521 1.1317191360691026 0.9805310710966402 -0.7804023145594172
P 3.7002240083127655 6.610344368124428 7.132755370821405 -0.9489496967459334 0.3660250742541374 1.0818466767186916
P 2.215826560856652 6.383379675412363 10.415807864228924 -1.1078107048826211 2.5418275522502287 -1.3191029342358316
P 8.57505536203841 0.014487756001003124 10.737634643864432 0.5046584424900405 2.05554735515706 -1.4636848067456858
P 2.7745727707023335 7.907773259251907 12.901312112176292 -0.27384176995065745 -0.2571342273879894 -0.6650243173070288
P 5.205468542084101 4.000001233573347 6.7130995550591175 0.7349210422981666 1.8382348877516985 -0.6113715649785794
P 5.5447897092927665 0.6240661574542554 9.958967823194428 -0.6912953351884159 0.2897245026191849 0.017071610770306084
Ni 5.979440846238589 2.247369429836478 5.791329806826366 0.27059292399605656 -0.7034990763434594 -0.4195955512814258
Ni 3.322272516484571 0.027398368553014956 7.1668332971765265 -1.035243889258488 0.04940297591316008 0.6642095347152175
Ni 6.394306169523572 7.825040134499379 10.010321422671325 -0.005794238084273892 1.4596219495302218 -0.39565626685700894
Ni 3.833888992017797 8.056960509084519 9.601700073977256 -2.1690561604111935 -0.10844887423272288 1.6681332737041852
Ni 8.099909751984491 1.7831595423516327 2.508830098044912 2.598722979885692 0.31292922287042235 0.7305517095858772
Ni 3.959506760465249 0.25676707453870334 11.820715989871777 -0.10358691815473128 0.21431378978835344 -0.6462683768557644
Ni 6.627740011198439 1.632421911597836 0.9400061038181909 -0.550219161838975 0.8846003839355863 -1.7265405099984847
Ni 1.338200217971502 3.227293228146254 12.749739305985786 0.39892156787184196 0.756352215588749 -2.9738772701346075
Ni 2.0886584114880153 2.8199214126469987 1.2820229035689883 0.1083444874443747 -0.8266700872777054 0.17847081194781522
Ni 8.411185635743863 3.3969399690637903 0.19991792840367598 -1.0821377255965492 -0.6247819248472143 0.8600525193928931
Ni 1.7003710468519198 9.08221449242323 10.442835248775799 0.3284139487695828 0.34351480896676323 0.36301611222448454
Ni 1.9385667727847127 3.375206950793606 9.73055518544347 0.1980903859509556 -1.0853672882774403 -0.5584353791011802
Ni 2.486506458471419 4.360021831771406 7.636504586025404 -0.3923094618719631 1.4985826470641352 -0.4184388119691632
Ni 3.6157282481081765 0.950355819312888 4.950005448641609 1.6254048815977231 0.9201312298523443 -1.2371999288124371
Ni 7.3227905436983125 4.0798919933037014 11.236547224301805 -1.4022480395964432 1.482760592430214 1.258188615248962
Ni 0.10135707556826386 4.669193627137739 10.068521615037671 0.2471012686320196 2.6686592998655136 -1.0952292686731848
Ni 2.886467822305724 4.700930293732714 2.7137415449989053 1.9160796639453197 -0.4160291740864061 0.24061720356957272
Ni 4.150351269096847 2.3614977682430043 1.7715898247272885 2.3010483691814954 -0.044251513619207664 2.6592117812993687
Ni 2.6825742742541525 0.42230438316931274 0.4727831248406848 0.5963113282113472 0.9876653681485764 1.8853081870904176
Ni 0.8298884531994446 3.338136235553126 3.269167355705049 -0.3956472679959444 0.6287177695665108 0.7857214127794855
Ni 4.167968395159599 6.9436393523477715 0.9090630845995378 0.07416347068729162 -0.9900588080814174 -0.1697473160318883
Ni 6.5504424481279235 5.038959476840391 4.592346412810997 -0.6391569626219638 -0.1484236148534476 0.7855581477287438
Ni 0.4102677055770404 8.719010076262022 3.1607754267069073 -0.7859160452887949 -0.04734943581824103 -0.523278371584073
Ni 5.309750115949528 8.364600380445394 4.381302655606245 -1.2696163974699297 -0.6913868664609576 -1.0082354789904442
P 6.351615323443796 3.7681639151089854 1.4550048091586456 0.1395355683351984 0.6224591902513086 0.004948602254526961
P 0.25003306883519866 5.231418965598223 7.572590132549547 -0.042522446743242896 0.9039379079219336 1.2503156402587885
P 5.952272266286392 7.41609948116321 13.138491784898237 1.1030544211445585 -0.8448459868557836 0.0641060864512896
P 5.846855592103668 5.738698065935276 10.378718692072717 -1.6864166453944054 -2.5245798209133747 -1.090097346763258
P 0.7522337488095848 7.466311520402307 4.985258157682842 -0.5746009331174491 0.5963334396985343 0.013962632827679181
P 2.484633081524987 2.818491001678048 4.7120293600059835 -0.002151756235680165 0.06911151008568096 -0.18672842397091713
P 8.523828192434252 6.999480750884029 2.18227742513715 0.1824115417631181 -0.22029391863118836 -0.43249169051780356
P 1.5812316558251343 2.015892021228821 7.995298722173312 0.9441628168802513 -1.0629932914576146 0.2459789821021183
