# total energy = -381165.2703200702 ev
CRYSTAL
PRIMVEC
9.26358156184714 0.00000000000000 0.00000000000000

0.00000000000000 9.26358156184714 0.00000000000000

0.00000000000000 0.00000000000000 13.55818799294349

PRIMCOORD
 96 1
Ni 1.985342990382721 4.442656193193804 8.157745139410219 -2.41458031436408 -1.7704284696306865 0.1085288355410389
Ni 6.378411231955708 7.995795502680203 4.10129784773307 -0.7869552851865866 1.015816890882128 1.3403536160844916
Ni 9.583730847904494 7.816443301796466 12.341788075927639 -2.919611823922823 -0.8202281883071035 0.9215083127055291
Ni 8.217232154192255 0.4891272916730688 4.403116448395909 0.15505757523019748 0.5093167671976583 -1.1931823855809065
Ni 3.6499252087081993 4.133085827555008 2.8292821268886352 -1.2982903683658544 -0.6995516616599372 -0.634512778981733
Ni 6.998793283150577 0.2537165275101657 6.4457519111098955 -0.3745215417609227 0.2685715226906536 -0.04026553238826614
Ni 4.314355589803496 7.497368501567167 13.316730002539309 -0.06802290500719253 -2.0904716778380705 0.8333626688065325
Ni 3.453611390148819 4.847122687434066 9.879769900086812 -0.3627890838153429 0.9702800827925935 -0.3658916340000666
Ni 2.1108645193313618 3.1291359219212147 1.2298701305784028 1.2333859543829855 -0.4407685858146151 -0.9793334512441133
Ni 1.4526314742409836 5.3256144612188745 1.3881282300917377 0.9979433530358168 0.24712055190572926 0.010316037214027395
Ni 2.6376751340752924 0.7099025234680045 6.698341060754892 0.09534216164743581 -0.893511827492603 -0.18397965758118637
Ni 1.389620593066913 1.2686011647137734 8.934642810443497 0.29109747170731154 0.2528548832863452 -0.227103485353854
Ni 2.137858595741424 8.689369111087117 11.913471564828987 3.469364073427709 1.5346583097407698 -0.5727445966350007
Ni 7.691903712483881 -0.016233500171926075 11.200676951225354 -0.4333396403403957 -1.1338392677358988 0.8454334839281376
Ni 4.767502204680298 3.070386288224367 11.12287954130532 0.28023096130645286 1.104659046627517 0.23977593861519997
Ni 5.376314042616358 1.1885730843752265 10.15836377564064 -0.34780443748105266 -0.9332466841883797 -0.06993606286950536
Ni 4.326972587768665 3.2233743362381535 0.14768650033723227 0.04717511502390585 -0.446086912703735 0.2485745107434364
Ni 4.914848731577499 1.7694922784984197 6.535331670304453 -1.0819621192506332 -0.3212413422805436 -0.20537740653067213
Ni 2.3560159394123086 8.17331351443244 1.6205829854068539 -1.5141751021857535 1.3491115647827796 0.06616631141442798
Ni 4.967252811965873 6.351537582104784 8.595958860953795 -0.2680148788562352 0.6867820206990946 -0.41841515782007943
Ni 6.229814121559756 3.4809760098177702 5.51125385484781 0.26827070362078315 -0.0214190891057244 0.8108462328715713
Ni 2.390328245185428 6.270712833759626 11.540702267312234 -3.2396249502232206 1.2203052099396274 -0.45923399160865425
Ni 0.07121100349328356 6.144255683082291 3.151356474798639 -1.7172714259917325 -0.1586481207949332 0.3907408318332626
Ni 0.1402663715779805 6.011295498211454 8.17313287459373 0.765587875254404 -0.766689335848699 1.0255629145252982
P 7.569809708679963 3.8309819085828254 7.252668217903918 0.900588017613094 -0.663287022900948 -0.4184858631570148
Ni 4.349835106842115 0.08723607308208457 12.31101075284432 0.832283833920057 1.8234597863250532 -2.1161927367532587
P 5.076377801708676 -0.44209794125487983 5.749716042747664 -0.46620065273447453 0.20946828877059406 -1.1548505798802433
Ni 7.8472354466101395 7.569337266024879 7.540156058029225 0.2066264484464248 -0.5967638423677335 -0.9479832190676061
P 2.181564173127379 4.224183887752863 12.814697615517286 1.2801820888009177 0.5741044530970048 0.4401854596176354
P 8.187181095896358 8.085226118213058 2.8970730161023734 -0.38416215017448035 1.1363154971905334 0.23036261572110003
P 6.1919909184086634 7.5208979985066176 12.04874116056085 -0.026708362529121746 -0.2596695922153335 -1.0485904857687232
Ni 7.978685667701003 4.1282965559338685 10.897067700263936 1.5213929600904315 -1.855080755664444 -0.5315110439065105
Ni 8.88078249504769 2.2383499275521146 6.065811675175494 -0.15234891804978276 -0.9440165211103743 2.148313014326571
Ni 3.071405282186312 0.9421618172140569 0.6075177156043913 2.2370299573480055 0.18291727775494304 -1.3989799103681326
Ni 5.892638283133731 1.4228583233892542 4.3033550868052295 -0.004211724088502424 -0.6463480810537642 -0.388888352005556
Ni 2.8218166065801693 2.228048824955001 12.17174114263275 -0.7290021057105703 -1.0522224260943556 0.010234533243814632
Ni 5.9279325285429065 4.026591694950317 3.250507366370299 1.5319249699700068 -1.3984281516297206 0.27078498540220464
Ni 7.014680325375442 5.058508353048755 12.629438028728709 -0.261144376988647 0.7303866447629227 2.8000928079188676
Ni 4.70246259916381 8.950435364137347 7.851126150828474 -0.7360471854828098 -0.56415351253188 0.16034170644727225
Ni 0.36683597358379255 5.527310420613617 12.921305690174085 0.31699876495410567 0.7447400852711175 -2.6961137965320408
Ni 6.506285710598293 1.945889396892517 8.08671292303935 -0.06760638629506421 1.5327420665546636 0.1357359920834501
Ni 4.904241930791802 6.137354314885484 3.566901286121535 -0.5437577224843475 0.09778008166496709 -1.3091324532866808
Ni 1.0617639176019462 0.3178510811168171 13.693226965240486 -0.25972229983013984 0.8395603129768122 -0.9647681518354289
Ni 8.423837811767276 5.2987315477864785 1.1167571690118065 -1.8232219592826342 -1.1100038558791978 1.0432454194067258
Ni 7.323815302685042 1.7279358520140211 2.360195667372577 -1.2451322962856364 -1.2035670712493403 0.8186428460978546
Ni 6.922933814474531 6.452501356570559 2.535001302469746 0.29020504180002926 -1.6418997939289528 0.19798317094913
Ni 8.030209707849517 6.592918724526536 10.829086907630016 0.4920888333551461 0.6612309117028677 0.03972122984902192
Ni 0.8740967259887407 8.249812170230069 3.721234406165088 2.3451340466468 -1.11537848992755 3.3437201754729378
Ni 1.2012364002477574 8.145995212670849 8.059894854677259 2.9770453834499437 -1.1074857174430346 -2.129549874786455
Ni 5.867960102091725 1.2555302512564643 13.613640757738164 -0.12198059017057059 1.1686448054508585 -0.33533972935513856
Ni 5.52798666206109 4.838072168335703 1.180358140325658 0.2875526917788467 1.8558472015168233 -0.7934565766402142
Ni 4.156300362724402 6.6044704106224 5.63158314638127 0.5058216095602063 0.9194010365545392 0.8776463212152563
Ni 4.155318423088347 5.279426243998364 11.9807872323132 2.0228074417218775 -1.1641546308899886 3.3582214544129068
Ni 0.3933381538176794 4.415412000083992 6.127663682307389 -2.338154787115489 -0.9322614374569751 1.1675592856961634
Ni 7.486650537803804 3.1555463926985263 0.6576142378480339 -1.1250432667108237 0.6212091198942914 -1.2234383562519702
Ni 0.1621349083594607 6.635420036321102 5.724958194904997 0.3520285028647292 1.1329951745680487 -0.08783454041648099
P 5.310301761045287 4.131992724941286 9.157281874830645 0.36091320694886875 -1.2300872290270557 -0.7218220430223633
Ni 2.583955625117863 6.275585477614017 7.346829744494637 0.351810216206336 2.9221489885223804 0.4229246156546587
P 8.882922382367774 -0.01538217703462865 8.683856353752997 -2.2831771453280294 0.7555384614382019 0.4252110976959903
Ni 9.137513391968918 7.644122159250147 0.9976367748604728 0.5367236984557016 -0.23340243098868835 1.0318772867791002
P 3.424264364044812 0.5177165568126478 9.423971121834514 -0.09049794618125705 0.5330159105868111 0.0748854364549807
P 7.684789281913212 2.0120684229300885 12.175998684677387 0.07736757944688612 0.4206121654713981 -0.32648510717798607
P 0.6425368326438413 5.312562074924511 10.3752946211246 -0.2778503768894182 0.45351765795016735 -0.7544609121033071
Ni 2.877351777506155 1.3151877159375898 2.7369232932524103 -1.1357807077329858 -1.078446135677575 -1.397367314465374
Ni 6.841423561100428 7.2665663691866955 0.47329768365333175 -0.19609341012558487 0.5311765433852271 -0.8856643064237264
Ni 0.6557420680324972 1.4719923595179325 11.271070906832787 -0.7208751057280617 -1.3016302313723649 0.6677900529776241
Ni 7.304139455638039 5.680770911282487 4.8073133724153285 1.1230702021448529 -0.31460018281494206 -1.3319777333159706
Ni 3.282299977982973 7.700889386511938 9.815558458753943 -0.07144761441802534 -0.11271999080425103 -0.43985738685425546
Ni 3.42871088315148 2.7668465141239897 8.597952383686618 0.5136555037823283 -3.7968591099274485 1.4321453413765077
Ni 5.196544980566372 9.051890108421148 1.7329261433531085 -0.3600986814673734 -0.3361606825945372 0.6450532735017406
Ni 8.038352395963601 1.7659628539575023 9.714942994951524 -0.40249180172160354 -0.9213756437824069 1.0184766971024781
Ni 2.31858180668305 6.242143948499287 3.356207610042821 1.348458504579813 0.8837449779138264 0.7255131187207053
Ni 6.014787868426483 5.401548038546698 10.708080448290938 -1.1711282339943443 1.3277279569006812 -0.6267300497125207
Ni 4.104572523783502 4.292706599902907 7.234838602644327 1.5749642084486684 1.7121245916834706 -2.1499790891750843
Ni 3.557446874870983 1.966065477339022 4.580335246466592 0.5127736153980073 1.4838245149183542 2.660475992723773
Ni 6.202597719194361 5.601947096535329 6.668133447932115 -0.7769192411068233 0.5492513986090669 0.186512194195053
Ni 0.47927917820994703 0.45936710983540063 2.317310843305061 -1.1386096925413487 1.485139634185352 -1.4921857423988558
Ni 9.411520868335844 2.6636594801048816 1.969855208519309 -1.0741217972706083 0.880469135376032 0.5034829341247007
Ni 9.391604168170561 9.246675436037611 6.348133215913742 0.33985407228572434 -0.5012496739188077 -0.28221251051285584
Ni 3.7560580616354744 8.480067751303679 3.8595146658754236 -0.2371732108850302 -0.07767868292940171 0.6662774729878396
Ni 8.237482343290537 3.120094666404323 4.19543250993752 -0.8122487696460527 0.6943665179145718 -1.6115756890241146
Ni 8.114461981339398 0.6792113516923778 0.2998343415114878 -0.08911546401143362 -0.47338071542268156 -0.077861231253853
Ni 9.1605982369977 3.4332315109099256 8.873657874537402 0.22043507219474293 1.6054562063899382 -1.62166341227742
Ni 1.0666828793636975 4.1679076303091 3.724922237949181 0.13440853152127819 -0.09927106438819679 -1.0238623868944237
Ni 1.1470259214723 1.932716584039014 4.147084025517687 -0.3665804325369751 -0.9152620746855011 0.9471188141847816
Ni 6.648889283781716 8.897929384352778 8.929394991539482 1.4006526700848652 -0.2076633743513714 1.1339289992362278
Ni 0.7985670408131061 8.02702303582307 10.19490304639968 -0.7872666457794183 -0.45177496422744773 0.1613063843533867
Ni 7.195718498087124 5.414229881582173 8.671627499851512 0.5265863529113834 -0.36419444880330176 1.0738189213182088
P 4.888114035448659 2.0529486079670147 2.2994006348866622 0.7153760302867034 0.3703177880922203 -0.5412208149951067
Ni 1.723229952626131 3.330563237453262 10.404486019059874 -0.2509106150757807 0.8113828221013316 0.2217795020377793
P 3.741968154216221 6.780033806683998 1.7311503147848828 2.3270203677652246 -2.3197955678820112 0.6553420570222586
Ni 2.3166364545738833 5.0213150734377745 5.418583764874119 1.6886720170874854 0.1683560921113165 -0.41533934710823306
P 2.1107626199351675 7.7128301430296355 5.648883811138796 -0.09804721928342468 0.395772480719899 0.017595858704892275
P 1.8472044634689104 2.6634371541495487 6.667957439884143 -0.6482902923817997 0.8187629166154866 -0.10321745063045448
P 4.238505384708922 4.203683581954831 4.922232732369009 0.8150088488896932 0.07110051549125174 -0.05350542811730786
Ni 0.27612791016591826 3.165967921854779 12.983727407566523 -0.17078244216462202 -0.7776838871869897 0.1966024885515195
