# total energy = -340862.678762022 ev
CRYSTAL
PRIMVEC
9.35559720971149 0.00000000000000 0.00000000000000

0.00000000000000 9.35559720971149 0.00000000000000

0.00000000000000 0.00000000000000 13.69286219467382

PRIMCOORD
 96 1
Ni 0.870019993515346 5.583457665390599 5.226880315427857 -0.1831859580352974 -0.21128580159530708 0.2734836152802903
Ni 2.2627820939236862 7.649070554184784 6.902366683697288 0.23618924970520613 -1.275887575190622 -0.882984445598718
Ni 3.2048626371704425 4.848622305158254 5.0210487631083485 2.4142998070091837 1.3000436036115353 0.8858998194733
Ni 2.9013296506356125 -0.21305500870292443 8.498926429654311 2.380848212218958 2.2066924827067287 0.713917700573622
Ni 4.248217517097002 5.79732661102573 0.5325617414222434 -2.1685427111098847 0.8092120397022581 0.8635273653153708
Ni 8.174986079553694 1.2703403724462252 11.53408602313863 0.576254152450156 -0.5736272563502701 0.44356671738504255
Ni 5.031187423492634 6.347070841754775 11.510671770722137 -0.9262440276183016 -0.044912544241974266 0.24665286824069133
Ni 3.2527165154260724 8.742908235102032 11.098118948815845 1.3451816336007545 0.8761249994747234 0.19172921961961817
Ni 2.2424617374092723 3.6104090525419075 6.662166410525408 -1.5823869832753006 -0.4920291837618042 0.14891983776357579
Ni 6.505956944279773 6.338809849672718 13.473898877922194 -0.43331212953656983 -0.28340473104874414 0.02282702519684456
Ni 3.138587588575549 1.272071157876781 2.5642624624938466 -0.03246249140407958 -1.3901597409733413 0.9687029681134608
Ni 3.6033175100750907 0.34141379847169107 5.306942707206587 2.9531464653451587 -3.045962003915999 -1.80488639419824
Ni 3.7566557436253882 2.177440338801916 9.719658749422047 0.07513971855763188 -1.476294010869264 0.7072276901479563
Ni 4.42117443739257 8.871042490544674 13.61534614778473 0.32549806067436843 0.34534080643190845 -2.5656701631957812
Ni 7.917220673160905 8.083469630463455 13.757766399727146 -0.32462028605510546 1.583733470000866 -2.4931640256062546
Ni 8.942014048794372 4.9546679962682365 3.336348067430516 0.10571990533733405 -0.9353948408796343 1.078658508798697
Ni 1.7112696553763982 4.192860450109991 9.093347377924303 0.14876788556674378 -0.9805302997656921 2.380430665065565
Ni 2.3570584441058924 7.4172107956687965 4.46440665076877 -0.23933268043019426 0.621242287125072 -1.0755942680510766
Ni 5.082250271492484 1.4083167158507275 1.0202035197835717 0.4855937125491057 0.18878813471342326 0.2624582107040641
Ni 1.7661215201296254 8.979211902155933 1.774361929898454 0.06501214320532674 -0.11131025494091797 -0.43286501469682226
Ni 3.3373846675694643 4.235222592972453 10.965764383601726 -0.006526231154291986 0.29532822195920755 0.4523560335418984
Ni 5.783667439519724 9.052606560008408 11.509972907632068 0.01204124743525023 -0.3094186386140026 -0.8285169106784569
Ni 4.106854447606764 3.323557095318864 2.20901454285371 0.5269198249914022 1.530493636840119 0.18847163191426894
Ni 8.807658321398653 8.382334174134247 1.9605439220028507 0.49855464358514784 0.08828242658717698 2.076928134825681
P 2.898644594319021 7.626963278658283 0.6437015550562131 -0.3967291882062135 -1.3332087775095942 -1.7910818842149798
P 4.992595586189707 1.023782971165899 3.591363863887951 0.2988804580868401 -0.945549669925449 -1.3469436105971835
P -0.2614992251243275 8.488520199198058 11.05491854446918 1.650889913242705 1.4546180685577272 -0.76757122423302
P 8.409961251844681 6.543248353610553 6.494017331488016 0.507214633252991 -0.9334644566261407 2.0255862900185955
P 5.1611179535442835 0.43608589040369405 9.207586700818505 -1.363977940371651 0.360461721233747 0.016426778097455578
P 5.34146579540817 4.484100182289415 13.084131612319243 0.6688074384985448 -1.2478774631309413 -1.0490093184736966
P 8.692444145305187 5.885952180667094 13.053158973149529 1.2738785151803933 0.02072309147996431 -3.099063511726669
P 0.38859126706986596 1.057753143589397 0.7990877287727195 0.23868707642639536 0.0839092372201458 0.8722904562199816
Ni 7.1775204025291615 4.790103046411633 6.947717004216613 0.9319536764085691 -1.657315357153075 0.5554436434627079
Ni 2.33694391072376 3.004175727598299 3.8595111761849963 -1.0147023176617107 -0.6198652042718873 1.1454794230779886
Ni 2.4805429678783373 2.1531812759833726 0.5463004355020855 0.32967224665671613 -1.2715354688695135 -2.2576247507802214
Ni 4.568590578091291 7.489099202416844 9.395712785963276 1.109263635279064 1.0258835310895107 0.5952427777375168
Ni 8.212838824699789 3.609295736508199 13.193195418996238 0.3884638628736278 -0.4411578508332337 0.3331424645935037
Ni 6.848830215871283 8.56398244397028 9.204286981784142 0.3437508362369693 -0.5415815407686351 0.46588337860437185
Ni 8.365559588853241 4.8795893309698135 9.435381452471917 -0.8771837797565408 -1.6523101906289994 -0.6885838497945238
Ni 4.32396042977688 8.149707256670661 2.0528612101896058 0.7467905400422429 1.568381413024828 1.4318954301492306
Ni 5.829949577492472 6.461667548451395 7.147222301897517 -2.0096889020620488 0.8631021048524943 1.449877468548948
Ni 1.7256024298607824 1.9363840285116798 8.442758232414171 -0.2227971446690163 -0.11846820614193793 -1.4410629555811116
Ni 1.0344857740445776 5.474633361994805 7.563087940673862 -1.6001836451370892 2.3333812769862456 -0.7218667802173697
Ni 4.460823457147674 6.31749779988458 3.2512327177542555 0.541391536245016 -1.901269338405364 0.9253901642584386
Ni 5.677097834982114 8.37992043012839 4.313963038906115 -1.0421982090891342 0.9802629050369183 1.5010789311234278
Ni 6.460834900325344 2.9507459135772036 2.9329833772612433 -2.7224922865255694 -2.128950807749875 2.132748841339727
Ni 5.769315953841497 2.2490574332392272 12.388150981663332 -1.8263828735091192 3.2329097429865743 -1.7087677593960957
Ni 7.524444647587864 3.355019967767287 5.05756833569307 0.1392362919272247 -0.18946690594800272 0.3695677973000732
Ni 1.483376669955306 7.67607080690145 9.276489736588767 -0.4631708647692152 -1.436676396477642 1.3422696021602818
Ni 1.4548140325526788 0.679024546794621 10.32315836894507 -0.577033968038974 -0.19398793374680784 -0.22570326257221773
Ni 4.862103720322743 8.65175665429175 7.106649884726219 -0.40927822851581774 0.2052737910732723 0.34846161144907734
Ni 1.306743000069423 2.9460213371316333 11.825689688038317 -0.4151794244916011 -0.7338789741868974 -0.56450549655466
Ni 3.5191452045685603 5.904289150634062 8.30600747220644 -1.5327245830531666 -0.4804605050875983 -0.393093134115523
Ni 7.681562542294618 7.081578756094854 11.441714472489728 -0.8421383581166335 -0.8109999848406163 -0.3913049318668486
Ni 1.9070448765645331 1.3784255836851875 5.591699010719119 -3.4628409275972105 2.0285034636653902 0.13122267759412884
Ni 6.956971560691778 2.4903569890494337 9.926804763109086 -0.26630252415081884 0.10556486781670851 -1.5337432541256681
P 2.81363964068644 6.3470427749640095 10.534671575275262 0.0761373065842108 -0.41014340472959043 0.2298118854239526
P 0.7500578519840041 6.901614493704766 3.0535770215848146 -0.3209924594945311 -0.2047935090027441 -0.26251760318708983
P 5.741960188441797 4.68478709186156 4.116266178110218 -0.2767131779611815 -1.2841904386293626 -0.2601185068272939
P 2.5556403443706035 4.2282526732656205 0.9902394139620407 0.07729841677184753 0.9097187762697687 0.5575239230305044
P 7.845304199622093 0.3234800547320592 4.534486620631809 -1.4133464635024497 -2.551612399551135 -2.5116381731510424
P 0.3617930952467132 3.0771493835892882 5.234808248259493 0.36311664235809077 0.8346461635046465 -0.1006579174333944
P 6.450955389975794 6.117288025755455 9.853301580332316 0.08581416755234253 -0.2866312084058419 -1.0784654189512846
P 4.182868672597379 4.261923466587618 7.124834358463358 1.0803109568004556 -0.8611164418810331 0.06684174021489779
Ni 1.7545392911402864 7.4169675501488275 12.21914025214943 -0.37391167609106574 -1.0341683968061222 -0.27573770142178966
Ni 0.9012471049213365 3.093587167381105 1.9666372222780981 -0.8154623914873439 0.7199600501129602 -0.48553457717639614
Ni 8.760786780819826 1.6620217931794021 3.017961199662751 -1.5398923044461996 0.2234162663102539 0.10156088886363798
Ni 8.595707273132515 7.465008540342895 4.658640069584172 1.2982955105721767 1.6666921703822843 -1.49740019672026
Ni 4.926414093564032 4.138092785729061 9.38185621136222 1.7676627339600912 0.862686100360998 -1.3573887171899073
Ni 4.67223188079234 2.602727063678636 4.841987315821226 -1.622678998026128 3.644224799426763 -0.9727110608315894
Ni 7.254806988701157 8.467432683736046 6.785635029783086 0.7687691011958632 -0.2512140052488125 -0.8253282285378303
Ni 5.810648981042546 1.425839748885487 6.189091296571513 2.9604504552057405 -2.7077966321866076 0.1247419549657916
Ni 6.170399749481205 4.849202352167413 1.617853084551317 -1.0160842856109018 0.012735188178481294 0.963211091760954
Ni 6.6320797463842 -0.02985651645692894 2.518719416677931 0.9158791394442097 1.2268941760110548 -1.165595477101573
Ni 3.827346633967429 1.7728856167041749 7.086165805265671 -0.6019435867964601 1.107192611682648 1.8890303731370113
Ni 2.1159553558310464 5.008210077452396 12.787325299971275 0.028150751402603133 0.8212268047749469 0.6724139249028807
Ni 8.951538046460888 3.0456958667377876 7.614764515831789 1.309172819606313 0.9196540331056097 0.5075157094331775
Ni 0.9670132090436777 6.6787454638307455 0.6934761373599135 -0.1712897208183437 0.07266888841963613 1.0178107813837054
Ni 6.597398548594636 6.492643929859877 5.000386927306284 -0.27774650432170234 -2.281516984016787 -0.23376418520348127
Ni 6.809218618503866 4.5304384538436935 11.484093455426649 -0.11692785823801152 0.10544762551255388 -0.785414423062028
Ni 8.33595848019228 5.400602523551638 1.2484726002009254 -0.23773062605039702 0.2377180276449067 1.237575824094617
Ni 8.68904806362253 7.028130230879913 8.89340423830745 -0.840031853296592 0.7226039154937103 -0.7216801181278604
Ni 2.1949446606428316 5.161538955405771 3.0556305751091766 -0.816152475575833 0.8799618567223103 -2.210643754044993
Ni 8.961164955693546 0.3597217660881998 8.408992012003571 -0.8692745522117934 -0.01441283299122034 1.4427344297462636
Ni 0.40991360801461785 5.279672077738876 11.198405334460693 0.18002787202228995 0.3853893377133621 0.322175938279671
Ni 8.566873323419154 1.1800214397619926 6.136455772729088 0.9813633371899486 1.270615013937773 1.619090252233605
Ni 0.6922804920732919 0.02834558755403857 3.7609359292171676 1.1249203679797142 -0.8339596789605831 1.864588438044563
Ni 1.0109751589797882 0.3130551130819618 12.491819415595456 -0.03387865502531585 0.4290322712142933 1.8446006820687266
P 3.0838947689699943 1.5697475407384875 12.026590840779974 0.13056061853009773 -0.23180243349142016 -0.432498632496339
P 0.0016203893868768503 2.257084535398236 9.824313263269742 -0.4441917525635511 1.4539727216642444 0.17993634074974818
P 6.687165501060475 0.7243524138813319 13.1462293868885 1.2304510401243776 -2.917044063195647 2.557314077921602
P 6.943115921650411 2.5083945799148983 7.516258500281182 -0.18229404234864735 0.8556983561892553 0.7431799398728491
P 1.2095102812598901 9.49162730116651 7.1316255862689815 0.17968437263994216 -0.20158811469156895 -0.2451518582151327
P 6.744131730718057 7.20176075415386 1.9133037709052987 -0.5321803020593932 -0.362019295528854 -0.3781763649046906
P 7.943294721782301 3.1790599008597824 1.7152092972402195 2.4289432679539718 2.0488984823819747 -2.712725694057109
P 4.189978926258039 7.008689300476161 5.416485520445984 1.139286149783083 0.6829407925761335 1.0873316110926627
