# total energy = -381175.2474168224 ev
CRYSTAL
PRIMVEC
9.21117381606405 0.00000000000000 0.00000000000000

0.00000000000000 9.21117381606405 0.00000000000000

0.00000000000000 0.00000000000000 13.48148395952759

PRIMCOORD
 96 1
Ni 1.8704209677109305 7.471680536011978 0.8555190919306751 -1.0908509370998312 0.20372238742575238 0.8230309478632213
Ni 4.170930066143612 1.9361242709842588 2.0215754099350987 0.07890355647543831 -0.1641140290055109 0.06779433393615421
Ni 2.7518842519869944 2.382820148208437 0.14268016225620772 -0.410948417129389 -0.038734697566036515 -0.14490403173596336
Ni 0.2595598264795271 4.556426904120911 4.133112670669201 0.1271449079803294 -1.6132906148326924 -0.9077467401450625
Ni 4.101404125710824 6.064406602071722 7.860149819799776 -0.23331141393677884 0.8690254123154645 0.18932652371539652
Ni 3.0659115918431996 5.90066877521252 12.919791442944222 -0.7668276611987762 -2.2696230607926786 0.7370648281140467
Ni 4.821027084946598 8.94031931032892 4.397916418437597 0.1588458386280361 0.9924756450530263 -0.7266372050228195
Ni 6.394046881651506 1.4443949646694736 2.801102317370476 -1.6248587792862663 -1.5284074437350514 -1.4615307365171604
Ni 2.930931049831794 4.40374248591557 6.030173274353325 -2.094270996979503 1.055628109341795 -1.6934810084403544
Ni 7.099456999593191 4.93204015252688 10.408716751890255 1.073175374196939 0.755912299837853 -0.3621118552426602
Ni 6.74447678067443 2.792247615921345 8.758771678776185 -1.366537473568711 0.004506629621101915 -0.16495735084241267
Ni 1.849087889008978 4.980030368432396 8.21359453603304 0.871415509814196 0.32153444804093007 1.1593662083624097
Ni 3.227705861014097 8.603816706209864 2.503929583476634 0.045370457714999285 -0.20253633753745118 1.1582274667722763
Ni 6.638235101163064 8.230220704883223 0.46284398615008177 -1.1502922710855996 -0.05828073801876415 -0.25035628523420755
Ni 5.060839996866002 0.10686159151336953 9.018021088696015 0.26782410300166776 -0.7071346162135176 0.15794132453589574
Ni 8.085725020255618 7.896518297623144 6.030160378709896 0.7965424146543895 0.5675303994239129 -0.19613351933490092
Ni 6.684208069989249 2.975780255444837 4.456425794912037 -1.9666391220604258 3.3762286896236047 1.2722736325871185
Ni 6.347631776479167 2.629080881842593 11.375379710070282 -1.0151653733410582 -0.07385673808015022 -0.18536522507480335
Ni 0.16702713705111333 9.042480439812236 11.112207261195719 1.7156272055200905 -0.7267721879387871 -1.1451948019580342
Ni 4.269019856772755 6.556080641343238 3.728749506354536 -0.147538641145333 0.22442465297011027 -0.07695903115455778
Ni 8.018603196205044 7.464818211472705 10.203663125717693 -3.188805039357876 0.9312954739992799 -1.8292519675267982
Ni 1.09738241115537 3.9863749863196376 12.125543237416677 2.0740276733494345 0.7915642447135077 -0.7466195616820174
Ni 4.366197741187954 3.84494662259348 7.454182068995527 2.1852217144274624 -2.2251712582372063 1.623575027477836
Ni 8.345111676666235 2.493906905179745 3.1909320915400876 1.8689940233114264 0.02303836987670226 -1.4990598438108698
P 5.446788182363332 8.586757612187403 2.264430772586478 -0.18003789932461897 0.1499127978044644 0.1347869979066195
Ni 0.1398808865146173 6.606401284239943 11.551407085117802 1.973523507885085 -3.423917511059135 0.817991842777417
P 0.7288101840619093 4.900703738993183 10.17048539852574 0.5451543457215579 0.5719395842352021 -0.561736161339639
Ni 1.401553794961882 6.939173362938321 6.690254284522911 -0.3613932319090808 -0.1260377909590797 -0.5309214899516276
P 3.1302700637303085 4.597149503836512 1.3032724119160726 0.19655518025335184 -1.1846432377616436 -0.04318322025569338
P 0.06205199394800283 8.345332744839311 8.200719157186066 0.0015999974972682124 1.9217335197969871 -0.4555632276252864
P 3.0286708158535642 1.2643809935674608 6.437327424353089 0.020579881033880684 0.02256580111565791 -0.18291907752715594
Ni 0.4607447596232359 4.684167463464036 6.450337286338684 -0.7148517823521173 2.0612762872210366 -1.6545192824651762
Ni 5.246224082339015 4.434830197754556 2.4851231297694762 1.0678398209166382 -0.4114279278689688 0.5042758623396412
Ni 2.9441398731731585 5.6116313500879205 10.536345856029454 0.5252306102144374 -0.9268037567765135 -0.03752833596276117
Ni 8.158926219065815 4.562801036444637 12.471073713053775 -1.2934145283307918 -0.1614395674971413 0.6912043181365063
Ni 2.6023408440741265 0.44517879688643547 9.779333820904604 -0.37685790320358326 -0.5903057454472156 -1.0926962178386859
Ni 2.142666422855539 7.739348037739112 11.883226728437174 1.1932140101497901 1.1238574739328386 -0.5732035385492902
Ni 3.194518001530878 8.349569884823293 7.2428058930729575 0.592743922575063 1.030439525891309 0.031615312912435876
Ni 5.243239662002473 5.076222657242625 5.3762001935823855 0.2934459173348301 -0.5240149926397814 0.1918624027633728
Ni 5.024916418740951 3.4257092547002697 0.19350926195098983 0.11181984758748484 0.09367094459259996 1.4668781168720026
Ni 3.640992810581979 0.8050667292475121 11.753185217859269 0.7675138886325233 -0.0662958950137568 0.7936440100606719
Ni 4.789838050194952 7.119491302778315 12.137608954079756 -0.11407650483214547 -0.1472203385739658 -0.35488705535944687
Ni 7.52614620715388 0.7750042210611723 9.90964613999453 -0.4277863146223342 -0.2833885330988281 -0.19881646548370274
Ni 5.509718922299317 7.675514602763061 6.135207368969256 0.21447808328035964 -1.0100699610960218 0.8646967030331236
Ni 1.3713135111196926 1.8143709746619745 11.454354472667347 0.5367576370174305 -0.47103278401579524 0.5111705325769454
Ni 8.761152767223704 3.9695738051657683 8.440878409243291 0.35519378796658824 -0.4792726554270843 -1.248582973838398
Ni 2.5365362178881377 3.005366545941673 9.493350821038021 0.3759631593034557 0.07479853316812923 -0.10674063329236458
Ni 0.4813925269886492 1.6563164420856333 9.06050118038758 0.2580374559285491 -1.109676040226134 -0.18627539559389852
Ni 0.8195798548100324 5.420020511073231 0.5406737998340841 -0.5396575842730448 -0.6118834716179914 -0.20003131172741034
Ni 8.961495799074944 6.292383155557616 8.286690727461025 -1.1407542496881773 -0.8997341542532311 -0.3105170138845039
Ni 1.5424110659075903 1.027598557853991 1.8610651784028247 0.33191013484829934 -0.8729406882094709 -0.04784051652204664
Ni 8.379856224534873 0.38987767227377856 1.7304028347055278 -0.056921395777392296 -0.5463151987988785 -0.23681865575908892
Ni 1.5033925333594593 7.2247565978585895 9.554907253831377 0.13115428625003864 1.152973931682821 -0.5900769172658612
Ni 8.566861476610454 3.198018247604601 10.457762568322215 0.6290023906864651 -1.8280520336814259 2.0226786294534973
Ni 7.886422851052618 4.186146925390428 1.291753838981361 -0.164766060767213 0.2736275970573223 2.3047271035846633
Ni 4.43222343554702 2.604054122415475 5.332358690391619 0.9676362174118431 0.6222229058707864 0.5129440795376004
P 7.128039272137301 6.485329614784646 12.066345786253533 -0.7705511327969503 1.0376460709420774 0.26641719535181213
Ni 3.189147887159877 4.005635550898991 3.6459732922979313 -0.01614987028698509 -0.17311237584937927 0.1298975310248021
P 1.6207244662201992 0.14665846825421006 13.255561758739962 -0.06443390210435354 1.46440574407211 -1.0062493017983507
Ni 3.0639772453287737 1.5121615708915228 4.020811880980743 -1.1543021635759412 -1.561855181870536 -0.0810051761994734
P 0.7844650177514899 8.217546129626795 2.7296770328839988 0.3844884231656475 -1.081577739328021 -0.9759033425166418
P 3.4900400930657436 6.495277682573121 5.730803675489528 -0.048928350269586696 0.8511513602485212 0.8023806186027214
P 3.7281397266437986 7.648967999646037 9.931997974527413 -0.01174762745423138 0.3246264567026925 -0.05549109108876894
Ni 5.0643586652874815 4.3826120530389385 9.651152046332712 -1.7647679289107996 -1.695433504181035 -0.06120999585041717
Ni 8.88481277653878 7.934919681521435 13.25535911291464 0.21119786986719113 1.1634349791151446 0.6819509178590384
Ni 7.054515682241366 8.125848893669136 8.032174018679823 -0.9045727132924551 -0.47998973609876683 0.8486977565017061
Ni 5.661841458898086 6.5908067668641195 9.636376402314664 -0.6762512963710999 2.2166634778765117 0.680718331003518
Ni 0.1535511896672805 2.6371775036815466 0.34717374905697246 -0.004771967467346621 -1.237252379316927 -1.0314952208493333
Ni 2.286627859398207 8.07817185767548 4.706534035875125 0.21202962173986709 0.5320445478124772 -0.0963495198660276
Ni 4.390377072618276 6.409208473855053 1.3483233422370486 -1.0561734403223035 1.2920202190864265 0.6070402845930771
Ni 3.7254684862191154 3.255053836258526 11.650254034239733 -0.6917604477502926 -0.37890450131996684 -0.8737266744458759
Ni 8.151244100051382 6.725326750181614 1.7115144015508539 0.7980951038534899 -0.021800640814859232 1.2974989828128105
Ni 0.852382687225142 0.41593884652742047 6.50314402506512 0.6713875405208953 -0.18496413298164274 0.881598878105101
Ni 1.9480895858520642 5.867029568209269 2.653802751414342 -0.0740580554576789 0.7247111916447003 0.7356090695041266
Ni 8.640440333549657 2.511509458461019 5.84636706296565 0.34663227154982235 0.1993383994254438 -0.8146594359700744
Ni 7.080343813795889 0.8578108319915757 4.967266444789349 -0.5759278794589888 -1.6210165227220403 0.8335261909675903
Ni 3.841317420085462 8.503212265111967 0.3210545444078977 1.0374984896206196 1.130712292071143 -1.0690258708049396
Ni 6.7611766389156385 5.277680241133129 8.007354510664964 -0.6444837741515158 0.7226684501830586 -0.7896279469227433
Ni 8.265499500836798 1.3905095974818988 12.118694729638221 -1.0256300203178077 -0.10566745483284383 0.7105978921717697
Ni 1.3201546514000704 3.3428179009701866 2.0148613852952657 1.2675363750124493 2.132253389760547 1.3002336081351542
Ni 1.3541623053584508 2.8945008571434423 7.12326604183361 2.1527288840060796 -2.8369606274794945 0.9747252630481407
Ni 5.217190462274872 4.8852289668777775 12.037846414274329 1.01220191983736 1.0586478700047253 -1.1360455313585982
Ni 7.8040657454074704 1.0864855924574381 7.544022332299337 0.35314924673273373 -0.41353468979932656 -0.7739457603007961
Ni 5.387707713108443 0.8932692458357756 6.753846386743352 -0.3615896641906031 -0.3052236266960485 0.1546791088448562
Ni 5.832588989078611 8.821504378473788 11.310264079690384 1.3450371376030898 1.4991148654185213 -0.21195017465218338
Ni 6.304155035773978 5.765052662203518 0.5360940041818342 1.0526363737033224 -0.3624921214002145 -1.0277465524401783
Ni -0.0099416199667606 0.2272875576798028 4.260930603872904 0.18894908577131975 0.3224402476846511 0.12138409423715223
Ni 0.233974869915389 6.815669943579175 4.288500568407797 -0.3720543111673528 0.9572821278710286 0.05918473789027227
P 1.0901240061393342 2.1508367340855186 3.8395405846443538 -0.136703498203042 1.069077292868165 0.8552489273566625
Ni 7.7046771792615 5.618033115933281 5.537034658435172 -0.5755854085179055 -0.8467876839631867 0.6179227358335357
P 4.538382214493481 1.9896411912167051 9.84225166519716 -0.36173955950490605 1.2167663435484335 0.7170554748716553
Ni 6.758210640926852 7.170023802674219 3.9916649634778985 -0.5331164407204173 0.8254881511544621 -0.6622457261206273
P 7.212570214817708 2.5398798740059307 13.54781296243067 -1.605373416868145 -0.08577662944618776 0.2446975442865334
P 7.388402312979009 5.181709020495977 3.3688744696368893 -0.08223544906214869 -0.5714413044425449 -0.6984566288235455
P 6.85777421937651 3.680342945389726 6.5930929802206935 -0.4721301308450321 -0.5178813689382178 0.010549750491388283
Ni 5.3788834085331105 1.1374233840039831 13.48364147737329 1.025586825784698 -0.1923336859728365 -0.20039203750093873
