# total energy = -340890.02340860595 ev
CRYSTAL
PRIMVEC
9.07542490923137 0.00000000000000 0.00000000000000
0.00000000000000 9.07542490923137 0.00000000000000
0.00000000000000 0.00000000000000 13.28280171266832
PRIMCOORD
 96 1
Ni 6.095046426646573 2.2986236711803385 11.635601622544002 2.009349516444759 -0.8331572376639458 -0.6780796078290903
Ni 4.479212363414959 0.4961371548516305 5.890604325254124 0.0035895171234712375 -1.1672741503555768 0.8616514884488966
Ni 2.5991019210583777 1.5110855066430033 4.909722396688074 -0.44646537908907624 0.43977793976657165 -0.2101789416843735
Ni 3.6989436143885817 4.087262903880307 4.660204473872621 -1.2276811906887244 0.5290504981811599 1.0134327069206674
Ni 4.658179746531179 4.401671931298073 2.521474364860462 1.673747020346537 1.3261421004708 -0.1926260204022747
Ni 7.439216714715869 6.565924858339529 2.6789021340269845 0.30549899184462226 -1.1481613407855258 -1.023037319889967
Ni 5.4124927797506395 4.653396997499624 11.649084074083428 -0.5577368103722589 0.6036286878083669 0.24406736690170225
Ni 5.767187619219769 7.8280170017382815 12.606481525099282 -0.6274479017151516 0.0738528814254083 -1.0432456765170421
Ni 1.9332652072101153 6.49278600739969 0.3280702648318044 -0.062417385894957024 0.6313976303915191 -0.06690730334551058
Ni 2.5443771076612784 1.4330550015703227 0.41096156759196206 1.544191703152502 0.7557292372927694 -0.261932162997265
Ni 0.5352286409588722 9.162095417088244 4.5467562147761384 1.011081690189988 -0.9851621421107484 0.6736238860505818
Ni 8.38371435648419 2.283794426554988 1.2980117684309886 0.467263289671034 0.7626797004686736 0.5152272191448224
Ni 7.227514273237569 0.4807606620923094 4.908566187529402 -0.9115632856776753 1.5006302736217834 -0.3958622122202279
Ni 0.5984253636936492 7.574141059786297 2.304924738832346 0.9886493293284006 0.40241595417834564 -0.17029804632903572
Ni 7.67297243920494 4.341447410285942 3.7244310382599606 0.5959565159750898 -0.7684942502679216 -1.0847628219242222
Ni 7.577453589950466 3.9351224773813054 12.719531373033554 0.3066775855337557 0.32646248147016677 0.3516950307847104
Ni 8.204520087740285 8.533313663953143 6.899365959749842 -1.2867993370071193 0.521048968032922 0.7456679964020254
Ni 6.765711266651927 0.7918635121434806 0.10499450060901948 0.044868578377916274 -0.16247855028461694 1.0639764813064903
Ni 1.9951414555917784 6.421226280428524 9.32129924694827 0.3088702223097003 -0.23333918185092073 0.2355107355809428
Ni 9.238873513496117 4.8223814129978 1.4315938581280452 -1.4068078910529838 -0.05887466284902118 0.5026612095543537
Ni 6.229653131838246 1.9387739902502548 6.746587530865796 1.162941327308178 -0.08987856742970327 2.1961964682714115
Ni 3.3995362646732055 4.376070157070342 0.2720984880249597 0.26052859778151904 0.10858128604552914 0.08896813980029195
Ni 5.850663379356838 5.64273631472318 4.7102009907888105 -0.026711190742599155 -1.4373533679400086 0.7738197762458932
Ni 5.3555444872022475 2.969787659566594 9.090656393271006 0.030175495142115774 -0.6840160279181833 0.4097469406221201
P 9.178975707787847 5.506831823741162 12.639316413137543 0.5246572542094707 1.1133496324229792 -0.7725820471840501
P 4.2222507769264865 6.235089311477527 12.87572397684297 -0.7520980682980853 -0.3689147370971066 -2.15558460828732
P 2.505779324679874 8.436787442511758 1.455396883099507 -0.8113046605652287 0.6401800045698395 0.0435935683202346
P 6.180237442128924 8.024028033206037 6.038839596329449 0.7826204052566585 -0.9619581931904595 0.5468363614096712
P 4.565701164687655 1.1956600316132189 12.689246679450449 -0.014341099213020462 -1.4911411031844255 -0.26022212228469377
P 4.186248565525775 6.1425925787837885 8.363675817847241 0.07762803219712436 -0.10213141665512733 0.1484927775284862
P 4.892198658348362 1.0194243514542998 3.8308794219711717 -1.0070987942828398 -0.5407449037999525 0.306186247719634
P 0.2641075762179702 5.84873031380898 3.5478759031372644 0.4340464365994331 -0.7001214181204781 0.11947247903673616
Ni 1.2601227761504659 1.1310520802742547 2.37086042486451 0.4547461310406297 -0.43136194778873455 0.6137266954743172
Ni 2.0493217434824396 6.300287165448466 4.8479305497599094 0.47922894667334237 0.06270200701491137 -0.10460327523438759
Ni 6.32892013166204 5.521833501443552 9.14090520700518 -1.148953754779834 -0.02027289131642315 0.16972957542007544
Ni 8.83366485787968 2.536445186117486 10.192756959910419 -0.7664959888909703 -0.5591223778658757 0.5829922425049379
Ni 2.651140408623713 5.113040052909726 7.0444275546651385 -1.545745677903183 -0.28368266730047914 -0.4181475059809895
Ni 0.3646705467470886 0.23964476784120695 9.296859127134274 0.26671647175978586 -0.6790157464901145 -0.06036718823414765
Ni 1.355106175323608 1.0982716447866385 11.491656304916905 0.8322339545187281 0.27250839585121456 -0.42374351201152827
Ni 4.089404704205633 6.819773574016192 1.6820411044744874 0.2979471476392933 1.5878837447238137 0.06264595696599534
Ni 5.808154088154182 7.950734900039373 8.243266707693449 -0.8457191334893562 -0.13077119187900704 -0.21962568891957016
Ni 5.673238818508861 2.8127283526594278 4.746662418699953 -0.8085049863329044 0.8004281228620409 -0.9275529762377123
Ni 0.9358124599406215 7.165138876475004 7.185065787383132 -0.2957069454548649 -0.019799294114114286 0.15661669218720126
Ni 4.977543956057537 4.367403126092857 7.167612837359258 1.281544259255767 0.7375985891303297 -0.7998709648069902
Ni 8.135329046722129 7.123056130252392 9.286777237382559 1.0263823251028 1.1646868492443747 -0.9083162394952873
Ni 4.548240046781185 0.18098212749004386 10.612891967200854 0.4849560789651068 1.0951796463821721 -1.161497909993432
Ni 8.135247367896163 7.2433871917502595 4.785328267369661 0.4234064403870837 -0.32347743069991386 0.8225180127825448
Ni 7.1126647685045175 6.0538621475095855 6.807369282979516 0.20800867350593208 0.1968691119493448 0.59503734659493
Ni 2.2333804400838626 5.40664820598153 2.4914283549576797 0.24787568490419892 -0.13468209689763902 0.8611547513181361
Ni 2.352849336196536 5.202206104589081 11.510956103950116 0.15737568184041284 -0.41626854379072176 -0.7294903582008985
Ni 1.0798485318187925 3.222229684351623 3.7058481978102256 -0.672744568769422 0.5648657081075562 -1.1047012127193618
Ni 3.427062029023687 2.5394219255526846 2.6984142980077084 -0.08957157771224575 -1.37209362750025 0.6244091148888278
Ni 0.9466394420936463 2.9830196293730564 8.135756499244684 0.8668273762228814 1.2331108463447278 -0.5354540877146585
Ni 3.4489610298076343 2.5409375215456063 7.139678678878947 -0.5661463745921926 0.35056940182069946 -0.8194000359788534
Ni 4.1930732852064745 6.931501132512327 6.260901635567747 0.4032855012674926 0.26915130645352353 -0.7076755763186522
Ni 0.8928366918874495 7.2206169501560105 11.391928273497658 -0.7750698466029102 0.49566318096996576 0.18020502103010252
P 0.22017072064593385 5.522269121848702 8.166147375301543 -0.3082349027185466 -1.6056050732629767 -1.125861648847061
P 8.386963358672606 1.487271591161413 7.785342537798672 -0.7303799598947034 0.20257696096739952 0.7174393405736353
P 1.858855796755253 3.0828493055535042 10.615097295501931 0.5609334629326855 1.3193099080403152 -1.262341203964755
P 4.037411593765835 6.183431991766699 3.7527372891696715 -0.7747988523297108 -0.3187417157871414 0.9226015457697078
P 6.995619010895497 3.762235629086985 10.291900533952756 0.10067205850078145 1.050428053198094 0.020787883279628713
P 6.4467009987047525 7.9661994244222365 10.377282133362359 0.20905948336794963 0.27812908447210166 0.4504822135579532
P 2.1533714923377874 8.186087899347331 5.894243570722157 1.9813270630899038 1.86505020817233 -1.14467903866388
P 6.731043142741989 3.922798050085574 1.6763825769200775 0.6763978492512932 0.5511254757033283 -0.026782410300166776
Ni 5.008155364944506 2.794359692242226 0.770151465116744 0.37958404388549466 0.1508705337320434 -1.072645726945714
Ni 1.2337495907886131 0.7087943310512196 7.086866057551958 1.107110336381487 0.31190181004717255 -0.8534851505880205
Ni 6.884499505881552 0.9266372051571276 9.43566412398059 -0.45948236017403454 0.05955986184150387 -0.7956561553946941
Ni 2.613758732606689 1.4975994249335356 9.168679638003601 0.5317992645708906 -0.4968109214211637 0.9521468635269924
Ni 6.326506068583495 2.004843085031496 2.5498595719686064 1.309628676196809 -0.33160828733716435 0.6330372228774711
Ni 4.508525986511581 6.7833720439107585 10.546770234953991 -0.37424154862665865 -0.17968617241215504 -0.035854290694447934
Ni 8.09742099604888 7.541850697254476 0.19950234750653834 -0.3029353448825041 -1.0739901567887502 0.1803243202167862
Ni 7.636788719302081 3.756046189163798 8.025283164498378 0.481875383157254 0.047948245744504514 -0.3014117091491261
Ni 3.238048150313671 8.401384209168128 12.392947662834327 -0.5824651663568743 -0.5153220928514738 1.075381380709322
Ni -0.06188260117923789 5.03067149463575 10.13882896883774 0.47192341415086464 -1.4102040612187263 1.3484690461027744
Ni 8.764909437266674 2.556456498479112 5.885689075016003 -0.013688553230686103 -0.4461195657138833 -0.7571788252551025
Ni 3.8957351324155653 2.8323403463163324 11.449828578139808 -2.159365672596307 0.1975121448499824 -0.39134375552458406
Ni 1.234303191720159 3.3594501119742017 12.801419841319351 -1.1734838787107147 0.21782026027971516 -0.7838545347740759
Ni 3.1206575265505716 8.215628408071638 8.137828418796683 0.5087855772845367 0.8647018452394464 0.06348593636878744
Ni 5.882336612981362 7.7478991488909195 3.919396580755353 -1.9631509064015096 1.882082481064268 -0.9627637198108903
Ni 3.2355251821338378 8.392789781591503 3.85349991905115 -0.013844619192576155 -0.10235484551984309 -0.49737913521980787
Ni 3.4126321031030584 4.246073767833185 9.191075064540918 -0.7872949279141924 -0.32371602907328123 0.9996549364102849
Ni 7.3453768191062485 6.192235154120793 11.374315595991895 -0.18670605537341392 -0.03691461363816223 1.1199943914330066
Ni 0.589568656331422 9.210830449914518 0.21426987924115867 -0.5560763919507004 -0.4578365970404954 0.3871934808016364
Ni 4.601476490460684 0.5458096790914889 1.6886289555598863 -0.5610478770233628 -1.8452434578590478 -0.34649831707511936
Ni 6.170263549935987 5.8014473489998775 0.7898587507372752 -0.3494291175686692 -0.7950012954195147 -1.4682608561521422
Ni 8.204229674136851 8.999282290663043 11.324212896601951 -0.6014823308893253 0.2544816202564908 0.8467352334586965
Ni 0.1533637938034677 5.032840521236398 5.67673739488773 -0.27246108755304693 -0.33751411129863806 0.6810677439231367
Ni 7.781106129358579 9.000289662849953 2.543802633251985 -0.21658073144565926 -0.2782008182503015 -1.0240253948348492
P 8.556083905547393 1.642406907945828 3.536067867530139 -0.4166963753567598 1.5368668873563143 0.5778574923815338
P 1.907654357557277 3.443016626362344 1.540884664982867 -0.36883888955384864 -1.0047950858503276 0.5981890048500343
P 4.668389599776907 1.060490650064893 8.216488758371812 0.28504458064501226 -0.6582016379582406 0.22249761115072647
P 8.537161644198644 1.9637586355706884 12.45205590655826 -0.4299144167089306 -2.0799394108481795 -0.5554439005730241
P 6.1277179570329015 7.879765075700184 1.4613077074719 1.0921611712708224 0.960725606334939 0.5656599218740774
P 1.7878678215658474 3.451556601388326 5.6775478303498135 1.0947302175495792 -0.17422309241505476 2.0340171943947682
P 7.07590022139479 4.051024731426805 5.787502958322491 -0.4730850385591336 0.3895264998101872 1.6696869913445505
P 2.3629139826405465 8.506922327741076 10.336025250824513 -0.025091395750989044 -0.13098356500012925 -0.9353395621616666
