# total energy = -340860.37446230766 ev
CRYSTAL
PRIMVEC
9.39090498431266 0.00000000000000 0.00000000000000
0.00000000000000 9.39090498431266 0.00000000000000
0.00000000000000 0.00000000000000 13.74453869176534
PRIMCOORD
 96 1
Ni 4.018161514216903 1.0854758905699833 11.97453038017439 0.8531318810136597 -0.8341985344442666 -1.5599391957947457
Ni 6.365624739790144 6.897835480924802 6.078466839103083 -0.4346138790671289 1.6080995575500563 0.7799441439760761
Ni 2.0770521252084753 5.848542746100796 11.064215521944176 1.1686676882689937 1.4928647707437517 1.6691843406765188
Ni 1.3420917519545164 5.904512538015156 8.960820030917217 -0.4783838250642277 -0.25261448514076495 -0.5177980651957921
Ni 2.148385437185234 0.3909367883457194 5.214581552719144 -0.47301639010472735 -0.4051063565263152 -0.7408623474832661
Ni 2.596660272257717 6.742077935842321 4.7132499843651585 0.0938879456994125 1.0022255253509385 1.1608965289640072
Ni 9.13792310234556 1.4531298089336098 7.435739927569134 -1.8522959938304553 -1.7059313183885652 0.7566440357975549
Ni 1.416664926047123 7.60283886823802 1.4198653463632998 0.3925640010849304 1.9277987521544606 0.9263736112176303
Ni 0.3807532913068045 3.348824782892063 0.2236894713828329 2.7437488819115003 1.8621559173436706 -0.5359901627237866
Ni 4.467591430565471 1.318670835673574 5.562084467812664 -0.11600534642374215 -0.910709165207496 0.7509590695976357
Ni 4.297569101268575 4.833470467943893 1.5789040735422362 0.7861045071505172 -2.191724548542987 -0.743727584846203
Ni 7.751797398329562 3.2095013210059133 12.985481929356121 -1.6667705890287037 -0.03371744685710322 -1.1594184017565838
Ni 2.4895476134363754 1.2811917350812563 13.494662415844674 -1.038579124279308 0.4076316940513302 2.6972175711191806
Ni 3.380650558864843 8.279350250741143 6.67115876276211 1.519902491587834 -0.056776385559095775 0.488815561920513
Ni 8.605918961113943 9.290177839981052 2.285015587608122 0.30841719393268174 -0.9599226508176694 0.23090846092224102
Ni 3.438104113719215 6.58870568054948 2.593732188177365 0.6422361157679197 2.7626380055065196 -2.129645005603422
Ni 5.824736802727826 2.990712023686992 8.730929745171792 -0.13772936836439506 0.15236511599969887 -0.25159298585478607
Ni 6.638007930138471 2.096012361764699 2.764534901653469 -0.8174364844945792 -0.7770354549697135 0.7502684712885144
Ni 5.2023358130117066 8.23681884342904 2.351387684640526 1.3198673232056817 1.0556077976268208 -1.1966263782654487
Ni 1.7964988477854014 5.470925077867852 1.1832990664782905 -0.6261284115727797 -3.000749926155735 0.6757964682218685
Ni 3.646798188503247 1.9632343604430305 1.9850550665658844 -0.9206773321638014 0.7650916523442759 -0.9996485086523815
Ni 7.989612668537492 8.549554751202871 7.2684146660973745 0.20317654222461135 0.14347424126797226 -0.062489376783473015
Ni 1.5163681610730904 3.6874608057833114 11.518802923144987 -0.8512032965323791 -2.254645870657556 1.3411524578367031
Ni 3.1278474047818587 8.781613396839745 2.9183363212903517 -2.013484107438422 1.9752826566680368 0.3975807375732314
P 4.23870691071166 6.139125509725973 6.561367817925 0.09671307385303343 0.5070876207568235 -0.33163991190604825
P 2.887787708354544 0.11093381793710555 9.793835535425169 2.2250727849861294 -1.3227803830874187 -2.9038717874797473
P 0.4518527697569412 6.585738154669457 5.3751453628187 0.1480009254937322 0.6834601554147133 1.1197820183118843
P 9.260821871940063 9.080159647636629 10.125298785319071 0.964904677413293 2.1774945209865337 0.5263305281468355
P 1.0491330894443835 1.5905844807877196 1.8764595838949996 1.2931034248482762 0.3743279376928779 0.6399066963037947
P 5.752126327714095 8.99873111312498 6.819338786855379 -0.7359273720754939 -2.174341577179849 -1.588741978959051
P 8.58070438203843 3.840926970122989 10.782727849505083 0.29168728277251055 -1.2596232908129597 1.0876874517701847
P 2.6652514400668594 3.5429160008930705 13.705888278531408 0.033560866674580914 0.7338175248213427 -0.4900468632244528
Ni 8.321130385678558 7.456181109793965 0.38324282013843153 0.021886772770762303 -0.8294831312464682 0.05840466519113812
Ni -0.09407902221094881 1.4074994030759123 12.28014046947429 0.5811531324136701 2.3083706138745215 0.1819618558202092
Ni 0.31248892698065195 7.458472490536768 11.464512224988058 0.07785763170942721 0.5557825148593655 1.0030415934943306
Ni 4.761198065498773 8.077633618137039 4.662463032745687 0.2589800223474766 0.7136860441787902 0.3377727642766634
Ni 2.038173779818299 5.6935834279164235 6.842965363948893 1.300258804946135 -0.24212926933872495 -1.05036326139843
Ni 9.17156132292228 1.382557160236224 4.273919046913353 0.3709543932349547 0.08328625892416623 -0.11688132127079225
Ni 5.177647124598477 1.4170123895204167 0.1572676025556061 0.7925232661926674 -0.49804813626237454 0.37668075419577063
Ni 0.2705294257637804 3.5709760240877197 2.8125994300051604 -1.360611337892263 0.6633962947853026 -1.1786219712682282
Ni 1.6604340298244669 3.5878890434229147 7.827872178081079 -0.09543420714060984 -0.9816896101811157 -0.44105680647899526
Ni 3.7294663224331326 4.031271217155233 6.226963336684189 -0.10622075623315254 -0.17872098028540834 -0.2960039078699935
Ni 5.34818595365297 0.2514104829184035 8.696059437900583 -2.2129148094673563 0.8064097943667725 2.9158513284391265
Ni 6.185648051528615 4.630664490396489 6.510072818362144 0.09427798204897957 -1.109545685295857 0.6982635389761329
Ni 8.662564898165524 8.25457704418576 4.730636305296408 -0.7307178028500964 -0.30840048176213336 0.5482782360625202
Ni 2.0984446060777557 2.720657777700203 3.840993645546243 0.6848956023096592 -1.2132986967148072 0.7878001496853851
Ni 0.2382547645471237 6.271546656669664 3.1023896012750405 -0.4223075508959501 0.841121486816345 -0.9475695285689553
Ni 6.05111395103111 8.312659789653935 13.162277918201308 -1.080218139976333 -0.14731726916314627 0.14843184238356372
Ni 8.523917581416596 3.112878302716173 6.110106675163126 -0.39350733883480615 1.393988113580496 -0.6490014595162112
Ni 1.2116802586131195 7.773509169958086 7.212927566683752 -1.5381341841045124 1.1947939530424003 0.21603257225167308
Ni 4.600885931644738 5.400906492546799 8.705969659613205 -0.043852221298259955 -1.1186090810497056 -1.1429281174110444
Ni 5.849209500333334 4.832174523097554 12.960411970212736 -0.41471122660593096 0.6406361182706515 0.9984272346507709
Ni 6.116108402346427 7.36878935080822 8.694313668719898 -0.3111484768209158 0.9825013074491338 -0.11653962166065736
Ni 4.969187822431534 5.532510630783015 4.083048909218826 -0.3575404338218939 0.8014575925678198 1.6324903276895952
Ni 3.3069037843843945 8.016095019745293 11.554868692582419 0.5733313223764062 0.16198027049195973 1.8853722075591335
Ni 7.709726145346955 0.019793209801660674 11.723761296045877 -1.5066870213388246 -1.5417671528714092 0.17683996121261156
P 6.987819129603225 6.051583496265291 11.709687147196538 2.009172367436946 1.9372005050843346 1.2710855258162883
P 1.205792161376491 2.2387728947650527 5.99758015979168 -0.40819656541586474 0.6626527317510588 -2.138381614145472
P 5.984091064304131 8.469018352636168 10.590139176253455 -0.2726847735280788 0.58351211956415 0.5565690153164027
P 2.5144147290385943 4.239345492230147 9.71918911227603 1.2564304949072749 -0.766049645382171 0.08199839335067814
P 8.46159953793611 5.019006571778125 1.5711377953688843 0.18155202197630024 0.2048966102395116 -0.372318620572333
P 0.9667842462737414 8.644374715793358 3.5811811202074066 1.2660549053709163 0.6027956503841102 -1.0341552841799997
P 6.8612297344680595 7.495510218608955 3.776256505019257 -1.192329550662308 -0.33441464643770796 -0.6378811812333337
P 4.799203056753373 0.8871024200332467 3.3433865099897804 0.6502679849334607 -0.41551829588825856 1.3472261748346088
Ni 5.9176410227628535 1.982110078857102 11.224518264893527 1.1189456384535181 0.551291054746915 -0.49287353403997053
Ni 8.615657329270855 3.313900008373689 8.700224304127767 -0.8016833354253806 0.9119756906247455 0.3869021748134627
Ni 4.909996950210693 6.225794169051079 10.892464327095027 -0.03009424828221914 2.855232429205489 0.9638744363765659
Ni 6.4923737803049315 4.469169102552319 2.7921338314281527 1.0103098450209695 0.06613520106617642 -1.9930767474266642
Ni 6.874480300976645 0.4126063009031668 5.209276630663369 0.1369608656294867 -0.01047184606560132 -1.7008294783856257
Ni 7.771292916452752 5.5958992373974334 4.781436404182437 1.5811446262277673 1.649515915713314 -0.64449611544669
Ni 8.479338956883463 2.0512459191378944 1.3790721955081338 -2.3681353926379796 -0.8128784328102517 -0.48801517750640466
Ni 9.047591990193844 5.73474376314472 7.159420069977435 -1.9416428571264044 -0.4539616874661214 0.9145457653447668
Ni 3.2727490640500774 7.229935434156252 9.412397647166928 -0.08809705004924827 1.1902497853151437 -1.5857291602746562
Ni 4.453476900825994 3.135782719239516 4.063654812866219 0.9854560192020835 0.3567806728377339 -0.8982578268180208
Ni 3.744275779119197 2.1978942866772657 9.756120723125294 -0.2891943411473277 0.2550395496424898 -0.01967716671395321
Ni 6.753318848748612 1.3740583914975502 7.344407744978144 1.120908932827476 1.9794121054553777 -0.6313418374529192
Ni 8.92204498547856 7.256295703603166 9.260835958297088 -1.2604308743159196 -0.747412747007274 -1.6825754172714442
Ni 7.604303849368665 0.8765930586018102 9.579695675015108 -0.3224672442678446 0.9854904719844447 -1.1393864228063733
Ni 0.5775058916951489 8.955147924488312 13.514454686555865 0.6188478187509665 0.6745083455380642 -0.6946825064930939
Ni 1.149474905988837 1.7490653882284493 9.651552060382743 -1.592929277567521 0.7208707348526875 -0.6043285420888689
Ni 1.816022538622642 0.9697611630584482 7.580662246827657 3.587643817707925 -1.5857942091846366 0.4330154242317575
Ni 4.206467934932801 4.195536921881071 11.503958720111592 -2.4555084200370096 -2.6944541494414302 -0.6133816534300726
Ni 3.4599943125367276 5.709369538689584 13.20415759672837 0.5651369594910718 0.5965936353384564 -0.15370234675388367
Ni 6.312594301041757 4.499126088493059 10.530996197646498 1.52808477028831 -2.0982191829939736 -1.596891604649379
Ni 9.11948875645162 5.297991568119035 12.363102538720774 -0.583838135445001 -0.19955102965688215 0.3201938748526357
Ni 1.8866609236528133 0.5984955027535024 11.372052194744564 -2.590232683026494 -0.6640742946889338 3.164710974523149
Ni 1.1369474391408911 4.7645412275661405 4.6147422115054155 -1.0502848427520106 -1.7561354500467818 2.6021970544772217
Ni 6.423360021785025 6.611403497169784 1.4567284036083719 0.36298011678022646 -1.5913660468454593 0.16836997606838747
P 3.6817229630216213 8.455711440699481 0.28740957693258296 0.34888095837468297 0.5465134308526136 -0.06693455703902021
P 7.037327979095256 5.536971310507734 8.56133564112847 0.8351387868703488 -1.899261563946716 -0.664792660912197
P 5.833517298607008 3.372837326168073 0.7670594245530321 0.7652158366269659 -0.6914580860185253 1.23433006346381
P 2.729738782529261 4.935446301903297 3.4062398350372325 1.195022524113439 -3.134278369064905 -0.3183887033230968
P 1.4495612651538352 6.566449236449306 13.129813560710042 -0.687638455162119 0.9172719060266783 -0.589448539653243
P 3.8533417461147317 2.3465241351048802 7.512077652651794 0.7495511335065155 -0.09250649197085359 0.5026563244583472
P 7.726395001160376 0.23410680194836983 0.18826885709716432 0.24047939244012778 -0.16080887589167786 0.09353133369094214
P 7.084789611366259 3.7047400704011677 4.657474584177749 -1.2834065092754865 -2.6092696450532866 -0.09375321989376112
