# total energy = -340888.56796202477 ev
CRYSTAL
PRIMVEC
9.09213680401872 0.00000000000000 0.00000000000000
0.00000000000000 9.09213680401872 0.00000000000000
0.00000000000000 0.00000000000000 13.30726125995706
PRIMCOORD
 96 1
Ni 6.323835531953915 2.2479398340832946 11.3601690701399 0.2269664455553575 -0.8789763528805894 1.1539275538453417
Ni 4.975417132691833 0.6868418141168656 5.873012852997356 -0.37474985572164493 -1.1706654354253128 0.03499348535604941
Ni 2.9862667804784326 1.6363663629630119 4.5806920268719455 -1.725811088031628 -0.03793945535825079 1.4321702810771721
Ni 3.386375340333915 4.102153788150641 4.349757214455609 0.4498137267360188 1.4319491662053017 0.279435461988351
Ni 3.983992381890544 2.5432433362317792 2.5620340547850065 -1.4734426574633979 2.5580851517596717 -1.7009634328603287
Ni 5.381026435144065 4.589392292311334 2.5702842594664785 -1.4199374864564063 -0.026163545769245265 -0.02154867270505321
Ni 5.264019730222459 4.822105526631679 11.531101236782701 0.41952741704765173 -0.2920073851160907 -0.16034273488853676
Ni 5.907615706178696 7.9870236976614075 12.367422321415043 -1.3608525073687918 0.48585853617471814 0.032307968104086295
Ni 1.7528911846488697 6.771796006332858 0.2670124101417964 1.2065968592145995 -0.2743181953664437 0.40313226351907994
Ni 2.8795978347841067 1.6556235081198976 0.3757561813907975 0.1009592507238971 1.287162890994125 -1.78651997587591
Ni 8.195797336515238 8.810771266695328 6.966736868679752 -0.2064199888625735 -0.008429618824591934 0.016002546075843407
Ni 8.688045607900406 1.9889685094829288 1.175634164409434 0.5251326511839924 2.0663827552096667 1.616998916922215
Ni 7.380905508455258 0.8658714375475425 4.858760475026384 -0.38229912882381256 -0.8239822560328971 -1.002080515132642
Ni 0.8742971204639193 7.8196465563993165 2.3539477814523586 0.8929341006122622 0.7882606342615714 -0.46868356705732833
Ni 7.594370689755239 4.110836778530635 3.840834873899894 0.8520242497717778 -1.0488614800419227 -1.1572465909162457
Ni 7.745863868510683 3.8586936484594574 12.427744101180558 0.7876515399226629 0.8608984123329559 0.8527858105281506
Ni 8.388096023988387 6.944573876689939 9.340233652871403 -0.15545558199956455 0.09135026687922332 -1.6662990487089238
Ni 6.68523886662863 1.0073996346731717 0.10237200197329496 0.39367677453313493 -1.4881984756163338 1.2133179799885168
Ni 1.838739137704259 6.275401720692946 9.090642685522386 0.6381210651582817 0.5722157207147242 -0.5953057697649683
Ni -0.04601803058665985 4.8535734111396955 1.328636637827787 0.041740317161579735 -0.8937694520293639 -0.14833208358090583
Ni 6.68421145520147 2.1108758759907302 6.6792998830514465 0.22419351079591068 0.7537356039015083 1.8819662672013782
Ni 3.4670134991613084 4.411168232176644 0.45073175759132195 1.0536339617299013 0.6524716774529988 -1.4127275989715282
Ni 6.078684254869349 5.700214979939924 4.524588089239709 -0.9177676147161743 1.6435707538734725 1.759808785133311
Ni 5.703179016446602 3.0076787619914005 9.414408211844203 -1.7642123135176455 0.274366789216192 -2.2251650875896196
P 0.1889273232502168 5.678612063559961 12.6196345517238 -0.4479651035630543 -1.0179241670331178 -1.1594510547667323
P 3.9549430056977917 6.332327587466914 12.563026000514506 0.7542300270394237 0.039668522234215554 0.5937438245944872
P 2.618726253650318 8.73836149142175 1.3425166934446435 0.08755608994411372 -1.6428313046042866 -0.8962454243736823
P 6.552357291336901 7.924888036659445 5.617832949327313 -0.5705488745352626 0.15366532286836118 1.160308517671021
P 4.732720732468627 1.0942659070191991 12.466441143438454 -0.3746716941855418 0.5054014913036522 -0.8349081589167815
P 4.2241429838871545 6.274401585675355 7.9291577039709065 -1.5996789375865288 0.5463357676241688 1.1434438807051985
P 4.723392200395462 1.024365561426122 3.587078798809438 1.762921876840996 -1.0585892488526478 1.520734757681142
P 9.444638656571364 6.018976194319175 3.1249436835902755 0.07860428006746463 -2.223138544077894 1.4057467967783208
Ni 0.7613591466366031 9.020572316976319 4.4838944138012415 0.020616647809087077 0.40367245229326604 0.3470397914008862
Ni 1.9631013810734197 6.659208079761698 4.614345661000225 0.26701446261617884 -1.9120692572343456 -2.8409088134939657
Ni 6.019148944913122 5.878084446750195 8.879482360831124 1.6826389235195278 -0.07256038786622987 1.765699182475817
Ni 8.757445885984689 2.2415571542437602 10.395605218270147 0.32542401290332346 0.9287220568451489 -0.5853165197627404
Ni 2.7888764965520925 5.193055604656125 6.80582514569956 -2.6817472433977234 -0.2514304921349928 0.17450308554931881
Ni 0.3683933692340241 9.062605264124706 9.219004559748258 1.3893395590648911 0.5064605286957858 -1.0709606259338071
Ni 1.9480084344443216 1.1991437018183853 11.131018134909484 -0.5728610676082069 -0.23657131563497322 -0.47883942454440764
Ni 4.0649123969501675 7.077409991299052 1.4741380986142092 0.41526735621971705 -0.024298210425732346 -0.09306802090127843
Ni 5.436688494941257 8.062115653209434 7.7791183578455785 2.3735773895891574 -0.1741809263232097 -0.08672922316744418
Ni 5.422459301281896 2.9762290617564298 4.774112683992103 0.38876391061254983 0.0388208295219396 -0.08985619883220008
Ni 0.9120776753602399 7.171831829096152 6.378302885011912 -0.9965824681325481 1.2810554925448068 2.46792093476875
Ni 5.154386748021454 4.768480105415762 6.80079537577473 1.4281040814275985 -1.0119489232862895 -0.6925096672114912
Ni 0.9192240946677527 7.184460806727366 11.283226864809333 0.12251640806938256 0.9221086652936893 -0.648913013567463
Ni 4.380573192774888 0.4865229530162891 10.262586351716909 0.3792382305103017 -0.3543280975321833 0.32642571469496034
Ni 8.246395076268811 7.239322758510487 4.490481666712556 0.14808834300121593 0.46479580196714787 0.6061247147573433
Ni 7.491829574042606 6.103951302268304 6.870086548220729 -0.8164928896343874 1.6400442287774528 -0.11428167886441609
Ni 2.459332008255907 5.305134371581966 2.3965444410652053 -0.8337084821817254 0.5974269298730293 0.35773429500025483
Ni 2.60005100523094 5.2850771184110075 11.25602682918547 -0.9278157429807956 -0.1598485688609376 0.8131759094460124
Ni 1.02579302686032 3.584793035687417 3.5320395503641087 -0.22556493722214058 -0.656724796302398 -0.7768336233715525
Ni 1.7443809448628238 1.166612037337112 2.3575546320112526 -1.4014913639360767 1.882741454804506 2.047881611081686
Ni 1.0086270731038514 3.4893437864631554 8.16924738865281 0.6145872437023997 0.44135454022507214 -0.7774293479740224
Ni 3.6491926386837443 3.006096730236302 6.7991987966011935 1.0822413410539493 -1.2958516770173747 -1.5867354900519834
Ni 3.8937802033038493 7.000081370166231 5.8707243622343785 1.5227116789018549 1.383011045743702 -0.1336233166158215
Ni 0.8675953066324081 9.340624614741916 13.288457569678288 -0.047748728139188734 -0.5399100666034831 -0.05614672239489685
P 0.29473524361576253 5.527973545637731 7.62092154683132 0.7994084233482749 0.24594761464355064 1.7071037414301118
P 8.630019592607091 1.7749850764011041 7.931234347952886 -0.5232950837546213 -0.6006899168950172 0.29849016462695693
P 1.8184273047106414 3.261513029455959 10.174784498522609 0.9944867619457839 -0.2542358227942718 0.7112627794492783
P 4.142641072090024 6.177752174429985 3.5644166485244817 -0.7428670366181207 0.6285583611705111 0.8787575520015639
P 7.1373180788527435 4.246264152048959 10.328257944612883 -0.17280461480097337 1.1676937543914987 0.8855735464821329
P 6.284630239264353 7.939053585363141 10.172309618960897 1.1552429302226557 0.23673020981034068 -1.0496500373814892
P 2.3336514050908304 8.867897160472813 5.932869115372865 1.233282853146218 -0.8444636638157004 -0.4157828624035549
P 6.9297446020200235 3.9800827631854157 1.3223239674394842 2.471213746587409 0.621862180097258 0.5453152967794545
Ni 5.381972017342514 2.9429882106263197 0.5563887484905766 -1.4871682345796065 -0.3654452904912674 -1.4236696998053289
Ni 1.4707258197769197 1.3459635224007225 7.073727676007012 0.5399162372510702 0.13077659119564572 -0.16098062558285178
Ni 6.913278742775868 0.8820945367465185 9.073622205950295 1.0218011334900208 -1.1158286900910912 0.8606521006501048
Ni 3.3132109177288824 2.3342151175552908 8.813066121953874 -1.0083018134520054 -0.7748636441293753 1.8340812705946412
Ni 6.499522885998533 2.067779148869088 2.7020129518470224 0.9156760222944682 -0.0892789861724914 -0.37586854270712045
Ni 4.236153696234768 7.025866669347028 10.331611124562768 -0.08134456181676314 -0.08088639123342199 -0.14156211184692394
Ni 8.374012304513403 7.506477005982051 0.14594515704877137 -0.5531378781476668 0.11729526887975927 0.5215014821893084
Ni 7.650296421511616 3.8728410128901056 8.249503677746214 0.559926618934726 0.2949250729835179 -0.6813317962178008
Ni 3.105301031844791 8.524205307745978 12.364041865055587 0.8426515503076262 -0.6852139048810264 -0.18437637879897278
Ni 0.21036385353179815 4.7828002204403575 10.261867163717897 -0.36922275525582865 0.07572310186492766 0.5377567677059061
Ni 8.936633712590876 2.654140125409558 5.727605041217127 -0.19966055865155294 -0.07208164845759843 -0.06812986289870201
Ni 3.773345762912863 2.829036463576627 11.302788596539756 0.16795937089353008 0.13922857861774085 0.7923258054698807
Ni 1.4056897672239435 3.4468471403520673 12.40727770186604 -1.2308963551919123 0.02918819152818199 0.6018471704279119
Ni 3.3493157918639125 8.919058612690847 7.930847932150635 -1.6304414155803661 -0.03229639813986051 0.2426398904265563
Ni 5.8940047778029365 8.285900409463649 3.4655296624806646 -0.6369581551984321 -0.3383633466728108 0.14440935148773196
Ni 3.2656772279837463 8.363783650924406 3.8836306513026067 0.8130221574769676 0.7383948597793799 -1.3354788044906933
Ni 3.9111552762003594 4.564588943875081 9.4955691685217 -0.3677752241760247 0.7420350276351284 -1.5005024897946675
Ni 7.451751436246784 6.4625360746207186 11.392958042084791 -0.043539318043531464 -1.7235325764100964 0.36272326357441403
Ni 8.028347458160956 -0.01184887231749454 2.3106328430541514 -0.24030455742516033 -0.0036141997138195814 0.22247935631828136
Ni 4.657874264606737 0.5463455744866598 1.3671081950998978 1.141221676242899 -1.847545109409031 0.5711610541979647
Ni 6.058890673657574 5.878930015446886 0.3366845431081323 -0.12080045381954035 -0.27540062979734503 0.09544217756040982
Ni 8.411944698089668 9.051249185606787 11.22070933407338 -1.3455816972526504 -0.8236171593839944 0.8122662531475495
Ni 0.25033470411664277 5.0392530232237 5.3562785487406055 0.03709433374913612 0.14023413706411977 0.37121021799950266
Ni 7.260089198330283 6.328427060898309 2.517574416398484 0.6610419356205132 -0.1859205833576411 -1.2026553580683481
P 8.910148318897765 1.6521775883774708 3.56331195393687 -0.42922767505455106 0.8777409378115916 -0.35544549896607813
P 1.856768844430465 3.3881392148194847 1.3555039012548868 -0.41094301781275033 -0.8889661171034496 0.7477896707307187
P 5.068047819593792 1.2268474418056519 8.156645687431164 -0.6100520748362074 0.528461201336593 -1.4146482130330087
P 8.427419514452755 1.6812178724336997 12.48491181878605 0.7840869624998561 0.17790182681822264 -2.1837099057686262
P 6.457589952351905 7.977249650898589 1.2689722195329263 -0.5344418444000602 -0.17191501310716845 -0.37510518217853467
P 1.9218048969834411 3.404432323469692 5.713285835406183 -1.3534317894246886 -0.23735138833410738 0.022594340360748182
P 7.1480286156774895 4.234453466704864 5.983503223672532 -0.48494450900088093 -1.6818524230624907 -1.0340550111567093
P 2.449876186271412 8.342498959322768 9.976905966864955 -0.9394803238029175 0.5745896202635394 -0.0037885205081547657
