# total energy = -381174.46098932496 ev
CRYSTAL
PRIMVEC
9.21319958894840 0.00000000000000 0.00000000000000

0.00000000000000 9.21319958894840 0.00000000000000

0.00000000000000 0.00000000000000 13.48444888291013

PRIMCOORD
 96 1
Ni 5.733788685502628 5.722649927224224 7.91355062727044 -0.2857380071676111 -0.028874002721872852 -0.7129069999209205
Ni 4.452905189082838 0.6913428331863385 6.647280186686361 -1.0310859012260565 -0.21870806220130723 -0.8767302371588901
Ni 3.8423280272744673 6.628113967623863 2.7854155697267378 1.4300691755737693 -2.2919469211008594 0.5902535520530415
Ni 5.898142952606374 1.6587536635251807 8.11353878634555 1.6634196702785997 -0.0669029324701364 0.36784207285821807
Ni 5.190283616553457 3.878978135158245 0.41435259475702074 -1.623499179934578 1.341364059626877 1.242772537804208
Ni 5.221590068687464 8.662876731941582 1.8500528540871717 0.10403814675953696 0.869909871802947 0.3816303848915621
Ni 4.466559150843461 6.624023307015417 9.588319595605666 0.11740016988873975 0.49429612541910994 -0.03629189245249879
Ni 0.297336668356551 4.165665266133485 7.7014673798017075 -0.052492670582077336 -0.5251496204648569 -0.5879660415704455
Ni 1.4557592374308448 3.479069994684831 11.816840553450232 -0.5319067366830323 0.2812840851613156 -2.172980178055948
Ni 0.49697196188818554 6.4967337417760325 4.450677437427157 0.4261215253254016 0.4293634293014669 -0.32604030633108366
Ni 3.177457480408506 7.795730388547634 7.637659523549653 0.2676824352174809 -0.18669988472582685 0.19343540367744752
Ni 4.069074081856581 2.5459847819786154 4.734794085722765 0.15887592053502314 0.2872978954555633 -0.19959602396220463
Ni 0.7108296715938239 8.49875279482705 5.7484478073361815 0.40918386902979853 -0.7998478248785386 1.2466327920905627
Ni 7.789336428047045 9.227111499920037 9.422609145525426 -1.1691173742119028 -0.020223269025410332 -0.01372943377095055
Ni 3.3087640006597865 0.01851668849291499 0.11841080481515143 0.5747703688157778 0.1247794930719464 0.0060996851398346565
Ni 5.4178035798993305 8.439898875983015 8.279019827756533 0.5383710042511373 -0.23201429239191007 -0.6375772768396697
Ni 8.65283434441184 3.440153439707185 10.26732871852956 -0.6313570069615707 -0.13751159592663414 0.2738255720007413
Ni 8.28861813906707 0.1456551572593742 7.081196089407287 -1.0867155747752186 0.5415936249534931 0.36480122914936525
Ni 0.8915677714903616 8.187991573379133 8.277495964547892 -0.7441770136787959 -0.9273148920849772 0.6318082355663764
Ni 3.871137702325391 7.755533198829956 11.808399420005506 -0.46190819600670774 -0.9523412389259857 0.6883593924885435
Ni 9.055635429549787 8.228630996676102 12.932827125311684 1.0859211038983814 -0.7137122694310354 -1.9833654336761712
Ni 1.4316851469581675 1.0969880330311024 12.687666648751868 0.4474297998848746 0.6362932679209236 1.9820989082589218
Ni 7.260296082420532 7.228593462705078 1.496976328340763 0.4725034550240508 0.5495121084696213 -0.7443996712125631
Ni 7.513926253343737 4.075154793571838 1.193133298448887 0.7632399438475178 1.770321511739177 0.8861885543583125
P 3.6602752037994946 5.2242711097619186 6.399382468534722 -0.03132914913058475 0.19191922414323723 -0.11783545765394544
Ni 2.2498264818468847 3.1642088994289 6.687059097143625 0.508608171166408 1.621753400888065 -1.4396128533981465
P 8.896569538998397 6.207006254943164 6.98756049955198 -0.07247399880001067 -0.8946603392747496 -0.26068054997835105
Ni 8.107486635548955 0.7508195643212086 4.569664067215345 -0.13721489062182177 0.1325622223411588 -0.2899952397820683
P 6.4971851885548935 0.29842566854555613 5.804933933891093 -1.3691635983376484 -0.2885011717350451 0.883414591157601
P 4.164485976588707 1.3908798860689642 1.592082344847213 0.7822627648069237 0.6116970666387982 0.2633699238850561
P 2.6541661713127818 1.00483761094625 5.327773115035207 -0.5394554955645677 -0.25269161823560354 0.32020055972085504
Ni 6.779542115732903 4.942393268961473 5.702101728226439 1.051925463679227 1.1447440875738608 0.41321150213195296
Ni 0.26060548431657016 2.951863075772464 0.008918377182377207 -1.9886171689934136 0.20362314284372676 1.9201553766765895
Ni 0.19857669690120572 4.198022023018307 5.1877103699139555 -0.6507305263921761 1.3840019489020614 -0.14883113470451143
Ni 1.6903549380453808 2.739332988124657 4.010423774723011 0.6884663503800531 -1.0824984513700777 0.3815231698897365
Ni 7.470034570599062 7.19297523317298 5.714749608594174 0.45084936708938483 1.3586655270198018 -0.5735634929918703
Ni 0.7047904192766253 8.910094515965062 1.4216114345498916 1.097984977041451 -0.16533093213174752 0.8910340553760719
Ni 2.459325426836632 6.745923150507186 0.7250410319283456 1.3363367816156144 0.9607176359151389 -2.3477162055516794
Ni 7.215575211714687 3.7254585907471385 7.8127821783091465 0.6254501545588325 -0.40665441773972555 0.2758400313276088
Ni 6.5276440263285895 2.8112235843582205 5.104928850470384 0.3860002318244836 -1.5678373675958999 -0.17975250687371622
Ni 6.91319800187417 0.9121823055250403 2.6147963269163625 0.22284753829097753 -1.7314610872285536 -0.14576843661878766
Ni 5.3972028656640045 5.64540646204132 11.4705596837056 -0.6226666782764244 -0.5629342954127983 1.3094615544913255
Ni 0.12890095384392694 5.878684675117551 0.7141132559200629 -0.6263104456765988 0.27210010466920237 0.8275324352780007
Ni 8.734923952567812 7.329929444759796 10.450973582889983 -0.17486046888873757 0.8913711270005166 0.8612033451678845
Ni 5.228804003949655 6.8516538287561115 0.5071838722899903 -1.5231189416426025 -1.8118671963914474 -1.0560235450080007
Ni 4.936312557246215 8.934537134420482 4.360263703460981 -0.8368408571631202 1.3083320688725726 0.02801422582473885
Ni 2.885592531275729 7.604418299506246 4.978930054490556 -0.49986873441088103 0.6208990448530404 -0.28216340244247534
Ni 5.152933305502469 9.175646567129998 10.487260690710757 0.14270599564338002 1.2355518516860529 -0.4003300181835944
Ni 4.96021159692709 6.754187390520194 5.681241201763279 0.2004887109798031 0.3957449699160733 1.1176156067881848
Ni 3.4668532920569053 4.163914758215456 2.5192324143913543 0.33204254666110555 -1.5202711877811623 -0.6493850681078751
Ni 7.540451054901654 7.216625516465504 8.157322674655273 0.03598850227946706 0.29113038182777606 0.9436779068240329
Ni 7.8212233117538705 5.662487734041452 3.2074243333252412 0.08255066630972234 -1.5226420020061842 0.08007392263445565
Ni 2.239636683124045 6.980371439928625 10.063740962383008 -0.3184956612146063 1.5246991416455289 -0.8135631175821022
Ni 2.853622728772786 4.90797275537329 8.587355213758045 0.27254901928116293 -0.10908496515482505 -1.1741541653048617
Ni 8.42652131020945 8.151442810690611 3.23168268778929 0.3524234243103027 -0.5584312653361221 0.19187371561728245
Ni 2.168953016033964 4.292908765375025 0.6428924592951346 -0.9393430268941049 0.4510303727519393 -0.3390660291667902
P 5.685787915750369 5.293821553305063 2.185478732100111 0.6611730618817387 0.3837114357903069 -0.5987258511901108
Ni 9.094524344928725 1.868722481692925 2.2075388171470984 -0.9188562197946626 -0.34152117557550216 0.011495659344425363
P 8.272513466221207 4.754646688153123 12.569757963313204 1.092216192878474 -0.37628171898513907 -0.1485727388368022
Ni 3.651872765792958 2.2903000675516196 8.40495136737951 0.5365486063304178 -0.08441163077786107 0.5531427632436732
P 3.6235053243213264 2.4148256729204314 10.59079402086258 -0.1152296445999822 0.21821415328402421 0.16049880085042684
P 7.971610368311663 0.2967894043021779 0.6221102450283079 -1.0804554527981198 0.7449640283564654 2.1816198560088167
P 8.77054218209991 1.7691462207558042 8.65423843602609 0.2942496441830481 0.9939455447303333 -0.06784601310969605
Ni 5.576095561686958 3.706479399635881 9.587564113241045 -1.4934810641715117 0.2695318297213939 0.2790731935529258
Ni 9.201581723915528 2.092492672814389 5.888294963587528 0.819539389770195 0.2975224013970489 1.359872917064342
Ni 2.934588326581393 4.924381463804916 10.89605496216806 1.6155459865257726 -0.4451924259139236 0.7042812059251224
Ni 7.863327633782243 1.3882172713936471 12.252617522484007 0.5906376748653376 0.3660482141825889 0.9111542231647146
Ni 1.1810124130964743 0.2584956616153673 3.8488122771308286 0.7310183648096508 0.9356632640496725 -1.201385233106673
Ni 5.027541659374211 3.7312168404774955 6.857637801875899 -0.5931912945251268 -1.6400141468704656 0.07612496528903663
Ni 2.056938935679272 1.8999920810286566 1.6414752290542816 1.2813748235574385 0.16569628589096624 -0.4223407181267307
Ni 6.658360901807482 2.141009381742487 0.577304612886431 0.04812153809757518 -2.475108196545808 -0.026259447917161227
Ni 1.7185104759269352 6.022806755968715 6.629467386640485 -0.06470566770850146 0.5429848488740648 -0.15989716271068588
Ni 3.3182351698162784 2.7025078294490763 12.880332156809878 0.05766855835606197 -0.7219729667779308 0.08450624737419639
Ni 7.2369590479133405 5.416559797957573 9.905500574512965 0.02006128952624932 0.46034470817432976 0.13781935697504005
Ni 5.7800113077381505 2.8081648021014547 2.6270812072210954 -1.6356772100580088 1.4046936729234583 0.9585820776293749
Ni 0.7430307254059382 4.391526853557015 2.6839856130364206 -0.5044105881452926 0.35668219958665665 -0.5313585774890461
Ni 6.218918921985328 8.799923075524083 12.958366114515764 -0.6544781663600664 0.5401736046775149 -0.22415134470406556
Ni 2.493027310858466 5.1122938822055 4.342208596266452 0.13884342736418023 0.025401213681923995 1.3530119282784503
Ni 6.527542681133336 3.584487424148426 12.139402040905575 2.0375375488432006 0.9802582770512279 -1.7171022474037203
Ni 1.1776127424556713 6.199930517674502 12.082038817751735 -0.3105398967026394 -0.15944182034082216 -0.38219217093230307
Ni 1.5437360801111342 2.8348830808503123 9.338101993802661 0.18551820571289984 -0.1395419960931016 0.5728001324632844
Ni 0.5078205043801786 5.594604879620218 9.447879109302106 0.5419008717812667 -0.8684379152431108 -0.16085001354225847
Ni 7.380721813981331 6.796365418145115 12.523856881742624 -0.11812959185559653 -1.8079845735075895 -0.15049052468480534
Ni 0.25650284654868527 0.6860636698335469 10.922902225710875 0.3484842371568966 -0.09162100404210671 -3.2614484738562153
Ni 5.009096833837931 4.831024112576581 4.130044272641516 0.22380604554950487 -0.15245099084528582 1.1795748220998008
Ni 2.929548706417384 8.505865384893987 2.468072438507034 -0.9480097014301675 2.9954925344115377 0.19497472314010938
Ni 1.5837397926378713 1.1741301530187513 7.461282952328877 -0.007720508572709283 -1.7214219578249965 0.196737471467487
Ni 6.171876324988202 7.198908533695141 3.7651545824082855 0.03318882804714284 -0.6397061502572144 -1.4099628917421974
P 1.4538244655214447 6.831136033316904 2.442802474730356 -1.7231895912483808 -0.3404305136144847 2.626418388918432
Ni 2.730165854553928 0.2547329909115627 9.777034483688675 -0.14285254852357332 0.21484215148799773 -0.06953214256286734
P 8.172734514893579 3.087085205840388 3.628840688191486 -0.3502708967436742 0.9177717284812323 0.8467897408457158
Ni 5.255006343522672 1.7720023126220614 12.141303645296528 -1.2667408756943475 -1.4542347170763792 -0.014769444999690691
P 6.365970800299297 7.516644147216466 10.739338437506659 0.7204107644971334 -0.6454931892526367 -0.5319105933377742
P 3.74757026971171 5.362386184494373 13.117658649776537 0.18762419631230912 -0.11159333339897556 -1.6522703385299993
P 1.7359049967123983 8.455625807646566 11.690262247217541 0.672402612048971 -1.084472801487629 -0.5469242931377871
Ni 6.731209670796177 1.8520189508751048 10.446631401933313 0.010048128264621405 0.13694492478988674 -2.164415319205072
