# total energy = -340895.09517953015 ev
CRYSTAL
PRIMVEC
9.02596286395771 0.00000000000000 0.00000000000000
0.00000000000000 9.02596286395771 0.00000000000000
0.00000000000000 0.00000000000000 13.21040900971538
PRIMCOORD
 96 1
Ni 6.501527450181875 1.7480311595975828 11.317595326068744 -0.9436290558639683 0.5920785210769223 0.3653637865210546
Ni 4.573283915050385 0.1400856522087003 5.766435881164798 0.8035293874951839 -0.08038014102096479 0.4553608818064932
Ni 2.9027496730293887 1.5739925426966106 4.820728883135478 -1.037524971983181 0.014487394982897632 -0.24645695017980132
Ni 3.5636577554554796 4.349656657901827 5.261864697173431 0.4789564097382461 0.19561544204790182 -1.6981123365647788
Ni 5.281099926738707 4.610705557290372 2.4845082139219055 -0.38672811112944366 -0.12234131594409897 0.746808537764372
Ni 7.452186994061914 6.188931276593483 2.633336413808766 -0.32778942781170645 0.1000328822548858 -1.0987982169713657
Ni 4.8464276047432175 4.70302310597117 11.549808079140766 0.7183235429508016 0.0128179777002747 -0.30795619513586314
Ni 5.47948156561779 7.88046893431454 12.466953320126136 -1.087420057041411 -0.5430722663815485 0.3076507480803024
Ni 1.7121980868303979 6.612176729540294 0.3548485111797637 0.4317147031424629 -0.08777591926440367 0.33316020520531653
Ni 2.7375655257467058 1.4451017922897085 0.355420757228489 0.42635472438213023 0.5878313157647941 0.42195762375569906
Ni 0.33181154603525836 0.38811911307576374 4.787967345547808 1.2647169032857832 -0.7668824256961115 0.3389104774255325
Ni 8.392773563330321 2.307893587205378 1.2479043597448967 1.3089043964362748 0.15687046006922015 -0.13903857409412185
Ni 6.969613886883692 0.7724382957648815 4.634779605573655 -1.0204865284436555 -0.2388727100746402 0.3214328894660593
Ni 0.7892915737172461 7.361124054226113 2.526609817932619 0.9781232329860959 -0.7157418982665544 0.4094705470322819
Ni 7.564858089112989 4.02430679871645 3.7242919148333926 1.1405591029582358 -0.9130144163019049 0.07889635738658671
Ni 7.57670917841861 3.8803968460212364 12.506981660455583 1.1467454342746057 -0.09865040008506236 -0.6962349385818783
Ni 7.896354629042561 8.703068116375732 6.8529262383360425 0.20158142982334962 0.7955759369760621 0.10527073361505741
Ni 6.96194181840709 0.5527607999873364 0.3041605086492959 -1.3858906812843421 0.8349490394570458 0.8281014204075932
Ni 1.7540424508980728 6.646746167499567 9.145024390442535 0.5347835440101951 -0.7696682159713648 -0.2070085143761919
Ni 9.11450760983149 4.77996041384711 1.3924298831108208 0.5252668627690115 -0.7436489090894676 0.14349892385832058
Ni 6.559862248492786 1.9082510272777589 7.005664485357095 0.33403643716268283 0.6020191772294019 -0.3819515156764067
Ni 3.597496090418748 4.322118445052285 0.5894441184609871 -0.20620144509386423 -0.1845635551091144 -0.2607090892234413
Ni 6.085006339605733 5.668602566547468 4.674146342821534 -0.5581461299955355 -0.5016024292725362 0.6283017650750147
Ni 5.252370286784564 2.722248466682244 9.258950996934898 0.3681660318565401 -0.06627121242340846 0.059496098483103985
P 0.07526389435175018 5.628500213322128 12.60753901068025 0.06821830884745025 -0.3212755379525887 -2.109928243900786
P 3.7465508419747415 6.21907799272507 12.751889430365651 0.2928075124198828 0.36385069231063794 -1.1265015964239051
P 2.26309773326494 8.614938614486867 1.502089916933903 1.9570172826999457 -1.2664637107735608 0.2787890866536037
P 6.434590909214258 7.6019547966880845 5.7392487782725965 -0.48723227659379315 1.0676881258301225 -0.9619111420026077
P 4.762522253497941 0.9035620693966201 12.491168173430871 -0.5084842439940339 1.1236908664479874 0.4274225035250123
P 3.9161577110851122 6.132437774716957 8.254814427984074 -0.4027049461736742 -0.16560552594937286 0.4570804356007612
P 4.763587317121752 1.0520662372148804 3.7118604561124244 0.7725524794976952 -0.4385111572390061 -0.4216280083304222
P 0.45640413290268084 5.4318605852853805 3.5206264772646603 -0.32372117127960376 0.7459816709877023 1.029299498749595
Ni 1.3570083942524984 1.1872300318467683 2.618184529865624 0.5183814485030878 -0.4490614219510266 -0.5772707666401283
Ni 2.274037200316282 6.340233492914974 4.94161811741943 -1.443676996165191 0.9545886401992658 -0.7174529674203901
Ni 5.867616022830507 5.491088953924741 9.30241371615299 -0.98108231561442 0.964774579593332 -0.501356374700001
Ni 8.51272861045271 2.6112923045847616 10.313960600655921 0.8325252605069017 -0.5939693103417318 -0.1591502572423324
Ni 2.223175899297872 5.188150560653954 7.153198362162139 1.2411275460016173 0.8594056298375135 0.014011483787743612
Ni 0.22681342205707558 8.988559323334437 8.959867592424532 1.1131678554294766 -0.26990849633452224 0.9597758408271599
Ni 1.4166429312229747 1.183664776495877 11.295375210567926 -0.2872161343750344 -1.1672942049602348 -0.36530670803087406
Ni 4.051240272050777 6.791215729895427 1.5664107338491458 0.3080346137822824 0.688176587053776 0.7330721620148859
Ni 5.705789533751701 7.907889809646204 7.875622894826202 -0.8145486214238229 -0.0430675206134355 0.6797014597032294
Ni 5.362947358439673 2.8753287976977244 4.7965275687751125 0.1721248151251294 0.020215555715926474 0.024035957903281183
Ni 0.8340594471726517 7.387398632267744 6.990737347890503 0.06519057776471998 0.06110278084859154 -0.9353441901473568
Ni 5.051488456178401 4.462950544393944 7.068968978848261 0.5695294321318127 -0.06542531948334539 0.8160956541959687
Ni 7.944381777706085 7.000166771346392 9.327421049001545 -0.05938271283369128 0.311452895435212 -0.7663257818616932
Ni 4.414806058212542 0.34377726506988227 10.310235585761458 0.9555492043403221 -0.4734899873070362 0.08101854593591208
Ni 8.406077832665039 7.2484078293604695 4.622652321802877 -0.2165629908338464 -0.4882684311677914 0.7317357025916494
Ni 7.025078428988062 5.9871468496959555 6.982810747259737 0.9172153417571299 -0.7080951803545741 0.31268034008440987
Ni 2.4562623655799336 5.2582642405671765 2.544747490407596 -0.683211529739017 -0.5977668297109512 0.3661328034765952
Ni 2.3059710571047707 5.133724004284653 11.49144439774853 -0.7027367442561381 -0.051516936932369334 -0.13600827190823028
Ni 1.2921026949404513 3.2321612155259083 3.65950806602068 -0.5752987305154221 1.558194188079181 1.0898602910517876
Ni 3.762725367516 2.7814046276182967 2.7697078822785 -0.20327218726221122 -0.05086747627382853 -0.45365701174150896
Ni 1.1879882127315147 3.4839765548537898 8.227125481553875 -1.5687349397095045 -1.2367253031688636 0.44237526818010264
Ni 3.666625940374383 2.527423057191139 6.984488673765385 0.15781482626036047 -0.05306474103546345 0.7017913496237334
Ni 4.261590337753358 6.778218343299773 6.242750385658695 0.23520683118727878 -0.3897527568883804 -0.7942070816529935
Ni 0.62449554283985 7.268436441065856 11.102542733688153 0.2331347791495985 0.5848105266605993 1.2233787066586284
P -0.010846499633331518 5.633987998773627 7.952362534114333 1.263357303934095 -0.39797874434259845 0.4923258890666167
P 8.522016326290855 1.8387059830280965 8.168273495568013 -0.1096521505122047 -0.24380357171735434 -0.6986769723644677
P 1.9084044686472912 3.133227636029406 10.411017682462676 -1.7295096199291375 1.1182601823507192 0.6058143826057759
P 4.090954508870831 6.1050168993852925 3.771637603296936 0.31820101279232293 -0.191042992185871 0.11752152595795246
P 6.673219316725299 3.949373254607339 10.554311161890885 0.12881921035895877 -0.3653555589909385 -0.5769375516704257
P 6.017221358124233 7.690391181316014 10.230734904418041 0.34546730470744375 -0.013509861560976734 -0.6190059415953855
P 2.2640003295563047 8.508594719438259 5.6035912634693315 0.3177364144510786 -0.25392934729744654 0.558005233542297
P 7.006060725129005 4.045102617269496 1.306433216258451 -0.3162485170516425 0.19960168038915946 2.1541936414770646
Ni 5.447285955904805 2.8098995925366856 0.3275332396141889 -0.6106879086479934 -0.45494796263879067 -0.6736889349605623
Ni 1.441337965754717 0.9301706080660561 7.073196739877014 -0.7723452485828957 1.7591354132153705 -0.7037839545737299
Ni 6.882459188989501 0.5730132555729811 9.145129994208624 -0.3864239496254635 0.20411242377531946 0.2333255550041659
Ni 2.775023271838347 1.6205304074793827 9.236559388138721 0.01965659788866292 -0.46690307811813786 -1.2648634561659764
Ni 6.341677646981158 2.1497045611807724 2.439249328083997 -0.15328299982827795 -0.7480866331458471 1.1846280682529922
Ni 4.01114694478835 6.779653471403043 10.485709330765701 -0.3545091031947379 0.5866210975067768 -0.2765514555723367
Ni 8.099168015712245 7.317032225392939 0.33278635002993234 0.11208801364720697 -0.5461177380760917 0.11126448930464708
Ni 7.587043905954737 4.037457626681635 8.463063249520358 -0.08598308903003901 -1.0593914330389689 -0.8440386604631398
Ni 2.937644045653554 8.382998445494838 12.347095753403211 0.587715101901904 -0.3478360620499364 -0.5855353206417658
Ni 0.0857484528722444 4.964523303505397 10.296813978908862 0.1887570243651717 -0.06194790245770621 0.2338508313800166
Ni 8.667569004236352 2.4979623142409904 5.718588349163255 0.2988159233974918 0.22873947829538024 0.6223450332709476
Ni 3.622859046206101 2.7926600033716165 11.715559056894426 0.08890077689746624 -1.107872668468808 -0.5190756463566351
Ni 1.0776638680379877 3.127929395799094 12.593073099918549 -0.32774649038891296 1.1143960714096226 0.7338758888631038
Ni 3.036839378074552 8.43247877418746 7.886165219509343 1.105674889486541 -0.45580156888833767 0.1713668539131823
Ni 5.700644734890922 7.803206691773707 3.585080878431025 -0.454852574711507 0.7782194479754856 -0.11358311013549471
Ni 3.1772382311963563 8.391031552487986 3.579334047843905 -0.1660726953937785 -0.3932006062276648 -0.00900066083671353
Ni 3.3895469308511985 4.159019295202655 9.326918302867256 0.6282925091036341 1.332010900546751 -0.5654141244118586
Ni 7.069648633855659 6.163793969878972 11.470466254744629 0.3429867043774351 -1.186063772258254 0.2892755880072244
Ni 0.7259979113815767 -0.041010365094453764 0.21641551278055238 -1.6228985702361016 0.4491634947465297 -0.8475785552955983
Ni 4.486047983489971 0.1393825296977271 1.583584433484945 0.7140745378664605 1.0735229873443448 -0.26871704712958233
Ni 5.9101283081537925 5.658159527456378 0.4008385000136773 0.27283929682807206 0.833433631253784 -0.2360079869323355
Ni 7.575860737904727 8.54635032230605 11.459567404526398 1.4366447719087578 0.6469944563885115 -0.8364734465213725
Ni 0.35114515859629364 4.896395335433177 5.7325641501387485 -1.1113770820776407 -0.01888398138869651 -0.3969713861240066
Ni 8.115468904734294 8.77918406162653 2.5079693993233523 -1.2304194155554937 1.4044499323437685 0.0354151462745003
P 8.49409902299894 1.8913183208517543 3.4807046432975923 -1.0760503817518887 -0.4654043820854243 -0.04060234690239459
P 1.9831304156093876 3.149808329901778 1.5162778280378673 -0.6423829257584291 0.3455372387134307 -0.19968087036652707
P 4.837726576494461 0.9881082640087665 7.944475647720387 -0.4094890589750432 -0.811919154220776 0.9313546093719896
P 8.478682678342429 1.5114245677791984 12.357756318200524 0.5741396772103143 0.17799438653202893 -0.876228100711491
P 6.319753583063906 7.86814849493741 1.423554111025955 -0.23571025318625854 -1.6219148661665939 0.9057189110817563
P 1.9116718672220319 3.201924239765185 5.953812163463268 -1.6493819612386114 -0.06914750552993898 0.29092546490582155
P 6.91575596617795 3.908602980126388 5.965146967690228 0.2789670069923647 0.5899614747339195 0.028266451044860995
P 2.2984524299977016 8.562172835293678 10.053650025033711 -0.4377881630300525 -0.0946911583269982 0.6033183556567997
