# total energy = -340872.51455291506 ev
CRYSTAL
PRIMVEC
9.19655036749664 0.00000000000000 0.00000000000000
0.00000000000000 9.19655036749664 0.00000000000000
0.00000000000000 0.00000000000000 13.46008106438640
PRIMCOORD
 96 1
Ni 9.044089659069842 8.285190347618151 3.982313100982661 0.4800614698769668 -1.0540733632601653 -0.42181107087550584
Ni 4.177753584711643 2.3586851781940386 5.03579262553052 -1.5734092052567223 1.5018898570604973 -0.23565548868892316
Ni 9.051768778375006 7.493468548980677 11.993066439114346 -0.13734293155925378 -1.411185451295389 0.8105662397373072
Ni 7.97795200301105 7.493146669728365 7.623533517255022 -1.0082799590751343 -0.5274330171823949 0.20529256012634964
Ni 1.9456129354266598 2.93614575339233 1.3102711134225677 -0.8599303919927319 0.6556084233097677 -0.9095611676459819
Ni 3.163815546827837 1.1599148770824566 9.37605016956454 1.7297325345732213 0.6037906673075278 0.8064794712624433
Ni 7.441682775558664 3.145026995042866 13.438450507142523 -0.5033330388103977 0.37835248547123873 0.07532123844081867
Ni 8.03946772640296 3.200141919588794 9.050678987192178 -0.26482953914971813 -0.8579861237821675 0.674044261417452
Ni 5.30113976493169 8.552478878738267 0.7573910772408547 -0.2951970956979819 -0.6163785312748675 0.3411293394537222
Ni 5.637567959448481 2.0915713815251786 9.757199347742594 -0.5370435436889655 0.5878678254296844 0.22717007692573132
Ni 2.2727710074768583 8.537764398632563 12.643215626379808 1.6376880698404506 -0.35643537368317324 1.7606251103870194
Ni 0.42535883365564153 6.459307297501594 2.5618976663838517 -0.0236052981237658 -0.2792775962542481 -0.24983178018930524
Ni 8.692698677595562 4.266932530702276 5.231192644439211 3.3238818005907724 -3.441581503997802 -3.3026426887063374
Ni 7.173511375632207 6.017854501230339 12.790159022990403 -0.4112255820501756 -0.6512205786547172 -0.13239330086346232
Ni 3.0458330060302883 5.775148348436815 10.898828724328693 -1.5465519758545623 0.13018215214475642 0.2673214523336364
Ni 8.650403743841728 9.171241160283257 6.116367945538027 0.3168732951198349 0.9038044676678628 0.6461961288569322
Ni 1.7512162601301764 8.816327900133674 10.515472374134784 -0.19427743996276864 -0.13929696996183105 -1.5429264632868331
Ni 1.292409573884256 0.5439014443522137 8.18576184657889 -2.29101309643268 -0.4222923813872986 0.5351033892434591
Ni 9.044779400324796 5.199048862648301 8.127398700549628 0.04226199399300463 -0.7982069468410059 0.41837067773538916
Ni 2.5011305421673202 2.077951290877336 12.128973055990654 0.285273923046999 -0.8107575298125068 -0.602261118036879
Ni 0.4775244245953824 0.9562112931191155 2.204330281885202 -0.7143337050651182 -1.2403860398499025 -1.0331913776048334
Ni 6.331815523935733 8.849794145824085 6.188191162243982 -0.4061152574068038 1.0237099204769595 0.3503431447425063
Ni 2.6814656924127904 6.166075298645109 13.259458053206698 -1.2154735928789389 0.8409690203988807 -0.3027756793761882
Ni 6.759298760656637 8.369301994522383 3.5447256147041726 -1.142443207354826 -1.3533235459815982 0.2957915347488712
P 3.460100800306255 3.6081284701696386 10.6330465881094 0.3687612422383778 -0.9235173727157578 0.4963298680196872
P 1.2811805862535905 5.124575200213306 4.10519004572537 -0.26861266034123416 -0.07455119304401354 -0.40974256974674594
P 9.239957782376896 2.012352299256094 0.43803903688673207 0.4670203204222924 0.41332823021547527 -1.654194552135906
P 1.8049057194158642 3.3392581324381605 7.644989068559152 0.17833480059058318 0.06245415267016341 1.4745932261280734
P 0.8860204640498871 7.472610773430841 7.67120935245251 0.5005536762930477 0.6703866100602067 1.782604185761272
P 6.6031781267351155 4.975600285693118 8.511710572295401 -0.6739355037537297 0.1950893943411027 -0.1307457379577103
P 3.976183600363629 8.47251487591383 3.0649682677527497 1.3356860354054931 1.0671805900660845 2.2688316752396345
P 8.100008615487866 2.8180068712436586 6.868504114071132 0.5099016931668509 -0.7544043478337588 -0.7211908371962675
Ni 6.7032917707543 2.9233165660501697 3.234537936490884 -0.7198021843788571 1.186205182932125 -1.5666914269169145
Ni 3.771146516640708 5.069441882567245 4.08061226567381 -0.566336893336444 -1.442833160107657 0.5746744666678619
Ni 5.489972527438203 7.002023306550291 7.341841349421435 1.0090674879734363 -0.1370444264822285 0.9702217187508322
Ni 8.140013608275249 8.285622585471257 9.928087801760201 1.0680745626352637 0.5271116292872341 -0.1431068306262245
Ni 5.2367731110193 0.9595128545928328 3.5532590935104746 -0.6001129613456245 0.6587009461921624 -1.8731090739210643
Ni 8.552055837435228 4.948185369946177 10.612869357264453 -2.144835597300932 0.3367633491755426 1.7566908083296195
Ni 4.008463491095517 3.541481071840865 8.467628748863731 -2.248340497264818 -0.8059763063737797 1.2329905187167796
Ni 4.241007456066038 9.045478338129818 5.229510595432129 -1.8242223755226903 -0.33194587318224117 0.9430785826771371
Ni 5.079217815287473 6.826681882990695 4.871216683478259 2.5641429279179775 0.030137185705012618 -0.3045777655819335
Ni 1.2875629919994398 4.173642726832112 9.997663381630009 2.591946066173175 -1.2734167450526264 -1.3045090955820566
Ni 0.7873561963211146 6.598625834452413 9.804241540640529 0.24734320943949661 1.21422429385287 0.21151591532824218
Ni 1.7882415706961545 8.622437035090824 6.0844816671489665 0.17453059635314458 0.236646906067915 -1.6702894008152394
Ni 4.760217083145874 4.787806733344069 6.750876560106134 -0.09754148329159977 0.8992549006239673 -1.6958165985520663
Ni 2.778250185308059 1.1552154399986976 2.5833394228628825 1.5292399669386758 -0.5727885624990587 0.40370793351689177
Ni 5.379963395547933 2.0650301380345146 1.1790455405298852 -0.6832608949197135 -2.0721636235575023 0.05487094100626679
Ni 0.35696225150430244 0.4586255142096187 12.225535912029333 -1.137170388991661 2.0195146299032185 0.7408739174474918
Ni 6.4714651366889315 1.9595824949770124 5.26714471761248 0.1743089672606417 -0.27875411965061025 2.2675479234312044
Ni 0.4031050218057773 5.277633382962827 0.49927518515663294 0.4680834715794842 -0.360961800798617 -0.8481639954854232
Ni 0.057976890926487404 2.795070675378892 11.650507824323514 -0.4844511143042301 0.5102140822009472 0.5769475789727547
Ni 7.2441776663398505 0.6725363490912857 0.1815481751991839 0.9461626209190994 0.15307859712695573 -1.0087910943835983
Ni 2.868385572505563 7.630156872612601 1.6388454541829405 -1.7967830483648153 0.5231346469173571 -1.9751803267622177
Ni 5.418395778274018 4.792294649776309 11.269882849499227 -1.9585661152443041 0.6602240677049082 -0.007313502942277728
Ni 8.872252121085415 3.505982388585854 2.7358283391633136 1.4108578927526412 0.8971640795332098 -0.5154686457316672
Ni 1.7054174408011722 2.8929311646318903 4.238471967212824 0.9461752193245897 0.6782061061046255 -2.4117772976976464
P 3.543191630153153 3.298397860494633 2.755050048456397 0.9714635615777334 -0.5284827986031478 -0.33974377196010525
P 0.7128889714711659 8.095143640502918 0.9543158841504994 0.38796815418413183 -0.0987568437559396 -0.309183382674745
P 7.505617191617949 7.271923657889168 5.276203319427554 0.4971515925900341 -1.1333823827041385 0.9333618696100054
P 1.2814288931053743 0.6189774808165358 4.155194447399585 0.5545283307372901 0.3026766919044787 1.8694881893390256
P 6.972897832491063 0.8054596051261637 2.276691496770022 0.9074150678372566 0.9704443762845996 -0.0081370272848376
P 4.650033216804348 6.154211749059884 0.5258881617378119 0.7623320873212677 -0.19615923036651378 -0.4519174033425829
P 3.895695394185427 0.9203447478614617 13.434156637916676 -0.4606912928804711 0.09620373831678271 -0.7068880474203503
P 6.736675247494116 8.153247443820316 12.219585744136587 0.619368981361759 0.19828321868805207 0.012960931036042194
Ni 3.4963444041166176 4.089797779879796 12.89474402965171 0.5663032118850312 -0.4329480613289318 0.3043221979277017
Ni 3.4401902694132245 8.447003646030566 7.724901570703217 1.160108485845073 -0.6057516476886406 1.2892246586191602
Ni 7.2093595277897276 5.488602241478359 3.747784520507883 -0.6219531971491675 0.2081328577886222 -0.21891734999863585
Ni 4.811763746266168 7.053891848922898 11.910111718208427 1.0450968707931678 0.01264699934004919 0.9223642329479211
Ni 5.25701471771471 2.444259076558774 12.169918855849797 -0.7508168875928165 0.21021416579768315 0.9021229662003819
Ni 7.387993316272976 6.917295490791634 1.6240123385813843 0.04602917434492073 0.17822912825065435 -0.14790245224265497
Ni 3.0222530516608974 1.5365319953879535 6.966749019116892 1.5132860147125808 0.7173264691448549 0.04079055165380072
Ni 7.324279617415278 5.031267003243009 6.511179518494227 -3.854567777492826 2.2063705805909355 0.9276293380016024
Ni 5.413558392939269 4.224683579698772 1.43375411081463 -0.05128039544153103 2.3155697027261213 0.22750123501290495
Ni 4.99487625463159 0.30346867873502176 11.37076624475894 -1.3203594323507517 -0.223968282158982 2.5712929086991974
Ni 8.343560850887467 1.544385849144373 4.103480407068088 1.1972352154940415 -0.6190154546770823 0.005492647683455056
Ni 5.6315442191552085 8.66117290396909 9.496221489277811 0.6231248488597656 -1.1750450525502474 -2.427332471823426
Ni 6.825164452229794 6.417591746401921 10.017315489466183 -0.814980566754919 0.5006058696872218 0.30937775807373813
Ni 2.624456278553253 5.258909207028318 2.009199721893447 -0.5242566763369422 -0.5748320752916488 0.2501004604696596
Ni 2.353847792859288 5.7967050617916716 8.087219892965996 0.3344002482600047 0.006471209546640468 -0.2979291499171643
Ni 4.798198834918722 6.5586668244153605 2.6152128260818506 1.6655511147993058 0.041906667536114925 -1.2537945999463245
Ni 2.3042691914531312 7.158870467927031 4.034510879847633 0.33930668442268663 0.03467209746088867 0.9291470601977095
Ni 4.46111768534724 5.819227412903465 9.190273420644978 1.7992165975069723 0.454752558798533 -0.9315926935247246
Ni 5.996306984425547 2.911682930216597 7.436546502346768 0.8864124974436605 0.03449520556339221 0.13961141587845632
Ni 7.369149585187609 0.9714039938282549 11.029674479703647 -0.7908957578915734 0.6482072457496901 0.7819945987472017
Ni 2.356643544079372 4.5641834219376305 6.0169927844891475 0.4540807295424889 -0.10656348428455195 -0.5190368226988997
Ni 0.9031269668277747 2.0299361029824103 6.061370736832945 -1.517295135871974 -0.7607524015389736 1.5821532699979397
Ni 0.5415029840949839 6.109783215690724 6.094832384248322 -0.1932338291896027 1.5864354423130613 -1.489044625666713
Ni 7.31497270874842 0.7918431930983477 8.341575315728203 0.9951778744755376 0.5387867516323173 -0.7451699737196845
P 0.0896488896990089 1.3188588518742594 10.07173423517211 0.8303470219086604 -0.9316220041007633 -0.8460929718890073
P 3.644887080783701 6.801676463361064 6.2710382835141285 -2.4804494062530638 -0.35529457521051067 1.171011248800506
P 5.586168441129243 4.058952550958215 4.737894297170514 1.128210608695212 0.5790905934576865 0.8438545694767918
P 1.0626521635837525 5.626532099369204 11.91156569277387 -0.5481370824989658 -0.3586511503875694 -1.0282985682889065
P 5.12206454204527 0.9882612700993523 7.853337829960862 -0.9730180505490467 -0.7064183068727834 -0.19920881582611497
P 7.744056145180817 4.751489557133178 1.373467046511547 -1.467418562756505 1.2335553900813143 1.3807924408258285
P 3.7587679602517845 7.86513792335063 10.220683399352115 -1.4659913433916751 0.3363123776810531 -0.8019854400468317
P 6.93029941258505 3.4865592748463246 11.342931046673982 2.573642639878297 -1.180747245141347 -0.8679337219131826
