# total energy = -340871.92500494997 ev
CRYSTAL
PRIMVEC
9.17469338120343 0.00000000000000 0.00000000000000

0.00000000000000 9.17469338120343 0.00000000000000

0.00000000000000 0.00000000000000 13.42809115561111

PRIMCOORD
 96 1
Ni 2.6630556983432636 6.068848705726939 12.704881548487203 0.17174403474694294 -0.11589736009096813 1.256842385633713
Ni 2.1972289873073945 1.2713739715022667 7.673455800914288 -0.5371595004415394 -0.13798365046704625 -2.1776426165286242
Ni 5.5225232342745345 7.18649151361632 5.664868603303773 0.9339779059274494 0.2530266329775191 2.8872071823398726
Ni 5.469777921573981 8.111016198869773 2.0587544214488576 -1.6992436219557447 -0.8749404922483189 -0.8042279562241053
Ni 2.169475539591413 5.570800471260152 4.510562802879571 0.6372445760905993 0.543513210573709 0.08531100266367887
Ni 4.635119358759548 8.916719429124987 9.203600166512324 -1.3613579862503005 0.3405606114344457 -0.881804566358004
Ni 8.790539869971967 2.6211273492318474 1.0444636179150977 -0.7037266189732332 -0.0413083718304837 -0.4154321639323555
Ni 4.362548390761505 6.519665618262529 4.065139692629015 -0.6922795534785562 -0.4902276117766912 -1.920323269713022
Ni 1.3028706941498578 1.9609989801037315 2.5132824974889485 1.0707050582795754 -0.6426891441449383 0.4689684452875988
Ni 2.018249067293061 3.8682159071459488 0.32567042386614636 0.011140589997851781 -0.40340428623354396 -0.12322346143873618
Ni 8.189716719368182 7.347287191193274 12.2579271818982 -1.7986362995234702 0.06732999270522598 0.5597217020127716
Ni 7.782947510133227 2.778601787776343 11.21230847007651 -2.918369723985606 0.6463719923131642 0.33864539668960386
Ni 1.8289476171364207 1.035033867977086 0.27875654632865954 -0.5201303128733946 1.2092864902316205 -0.24242803152606635
Ni 2.583969840719542 7.660447003057598 2.837207894659035 1.1534675834897878 -0.5753730353967833 -1.3520958442220843
Ni 2.951388789705292 2.5382798672895968 11.535375115938757 0.20498171375415022 -0.31294182127591263 1.2741618507487669
Ni 2.139483466671234 1.1177712535978188 9.883356874828397 0.30406534472188923 -1.3834301355589915 1.7679517259554196
Ni 6.156742269072096 4.194752422074703 4.084771701694355 1.544815709889746 0.2843825215809812 -0.0998719311969893
Ni 0.010965593623186956 0.3411866654454082 9.111027509502655 -0.5263631811569838 0.5639272554536868 -2.206581153939845
Ni 3.525935618240129 0.7149361529184395 2.1661258590092296 -0.8424414911793491 -0.10367099322810533 2.505693525531833
Ni 7.61167433262515 8.216176535306326 5.739730432058589 0.07739406180944736 1.176554290105922 0.12398990729111549
Ni 2.8353380921319222 3.3533229354869167 6.75356433585805 -0.6648780215371517 -1.1122754255221943 0.5532031841679633
Ni 0.2087453780060547 6.7737862777128575 6.2226578542342335 0.2025805605118253 0.26809252617170604 -2.5875623352831827
Ni 7.102955929664583 6.495692144251998 3.860710090426463 -0.5902903188282479 0.5674149568919712 -1.2781262347131535
Ni 6.596898187807366 3.4891909709335156 13.260629430122851 1.182546503133615 0.4197346479624513 0.8658770964944701
P 4.322087992603662 5.816040027441367 11.3676718116559 -0.653311656855791 1.8411487189643843 1.3199729955456105
P 7.587370569650064 5.670566087942326 5.708697948900065 -1.1694960977075601 0.6036065763211799 0.8266338347231312
P 7.774029708090274 8.147146141714577 10.077715416020094 0.37373324153167253 0.35109107865212436 1.1147082033334026
P 5.234612178811658 2.0782882612941784 11.787568172293176 -0.037338588549458276 1.8758048755856727 -1.474342800680164
P 0.23025085947589255 8.841450243980555 7.054394277181711 1.0841079619490428 -0.4947949194323995 -0.7547794717849905
P 4.580419836352051 3.2685487679181016 5.2012502409836845 -0.25686040490131246 -1.5778659554764956 -0.9519710000707605
P 5.657143511410598 0.022251384048121922 7.191078860346235 0.16034659154327868 0.2695094611238907 -0.7040467213168133
P 6.917718868710646 3.0911285457919395 2.1442111862110838 -1.2381270686123966 0.04427876731271729 0.5890762439154886
Ni 3.9439530016568325 4.4153946250901175 3.2716470618994857 -1.4104076925891 -1.815469054810093 -0.26850570244972466
Ni 4.234148555791206 6.750922941610965 7.902726803128672 0.751371474544706 0.7688197519281404 -0.02539530014465304
Ni 5.681566545400661 5.010520291055349 1.8717282952702547 0.626784814209856 0.20223191892315495 -0.5014221949409301
Ni 0.4889909770832444 0.7945431331306789 5.02746411493696 1.221867926441057 -0.042828408019435917 1.8520044307319654
Ni 8.21863535315356 1.4247564967636788 6.788692402177041 -1.5059033490952647 0.2824487948933781 2.0434986515226417
Ni 4.431652181900933 1.3749654353571896 0.27279941786519296 1.0693022643947778 1.3760055609601463 -0.9851086631649939
Ni 7.612876217468387 7.174646984359682 1.323112820330277 0.6594074853408837 -1.0167345176003908 0.04905099189038004
Ni 8.093676028230698 4.881157113271768 2.2571140464583865 0.3300373433056187 -0.15240239699553754 0.4738172887394679
Ni 1.7911478800819276 2.8733947206032906 4.698045828792473 1.636916996002381 -0.10664447403413246 0.33155480839140966
Ni 0.8483224337841553 5.705081284738202 1.2254316940021759 0.6704711993542131 0.9212272911300006 -0.10813828497083958
Ni 0.4871239269641693 3.346983222306175 10.41524413118307 2.8588186038948504 -1.341414196138522 -1.2357943067141621
Ni 6.946784297591383 1.0964033925298784 12.623291917018294 -1.3710613295809935 -0.38041862397164805 -0.6275517742828677
Ni 1.1606721202159769 7.901695567583787 13.061907404721659 -1.4547024007414173 -1.3135537222828282 0.9165779652834473
Ni 4.307325910826798 4.44302880179112 8.75299427192631 -0.945641715418623 1.1543204184083862 -0.5938975765635319
Ni 5.134773164581806 2.138538473244872 6.978055322779863 -0.25358301970162134 -0.6896714264317477 0.4235239398015545
Ni 4.531674689999982 9.220108192454594 11.705978540824267 0.6217048285837873 -0.7762492116229921 -0.39581927479743445
Ni 9.015870341345353 0.8646423785104981 11.263456468645707 0.624985299107272 -0.09327088094070389 2.1121021116236527
Ni 6.8847725444964025 3.6979978193857517 6.350238389078569 0.8595768653080551 0.12456917683335321 -0.004791764961688522
Ni 9.264054974127173 4.633477088630239 4.66078281130538 -1.5720861155699246 3.071896464393574 0.5587698796224634
Ni 1.0067758121208144 4.802933676833271 7.087977325122067 -0.2793547293490866 -1.9010078572138613 -0.8991186321564192
Ni 8.462333560833523 2.711479730424238 3.9410510461154886 -1.1425113415886001 -1.603879863041754 -2.001536191047927
Ni 2.99966602669091 7.2312640177002825 10.381874853600328 1.251464152040935 0.542217374580421 0.49823994055820636
Ni 9.169885920455494 7.003382981545065 8.384916579950145 -0.8126082098680004 1.3843953276857384 2.264213973961965
Ni 6.615449417983138 0.9527276929489651 9.716351764717833 0.6578134013808864 -0.18218965556029912 0.5750017681002937
P 6.327703507002539 8.267692439083262 -0.0751645936389905 0.12077628544982423 0.9098357614636072 0.1177783791637649
P 6.6262021587180575 8.682801444673201 3.6985528883400716 1.3245739846527318 0.3557740859500905 0.4332792194161054
P 8.321786431722412 5.141599136515918 -0.07602976723225233 -0.5777384503051662 0.7512390627318998 0.13159960131757337
P 2.6007687044444885 0.8240838111326345 4.295431838225476 0.30617210665224687 0.3239111758032228 -0.5070529108641462
P 2.4438172234272035 3.0514296471912616 8.927679517932098 0.15108239263253337 0.9386331453112738 0.46498426382887015
P 0.48659729955957515 5.385022103392086 10.094769336223226 0.8704752573881138 2.444340062125016 0.5728757228962263
P 3.6133887962992137 5.958146854440649 1.6054089633957387 -0.5607856245009116 1.128043229879412 -0.24987471761209865
P 6.178238575848474 5.695145091721207 8.74504440004337 -0.39582364567280864 -2.343180779575171 0.6798716667325065
Ni 4.4107063567321445 4.04355347385673 12.941014303940191 -1.7145650828041632 -0.06445395670901158 1.4908937630603099
Ni 6.423368035708171 3.388471186131519 8.726419772319918 -0.04263994615771366 0.5036855370538099 -0.02583033079954261
Ni 3.636940234410593 8.780438532472695 6.596670655409561 0.7438836508080929 0.3936739463196575 -0.07255550277022343
Ni 6.686149605784576 1.3956635438025626 4.97505367854769 0.6279736923116347 -1.0282538310939002 1.0602535239289481
Ni 2.1154824685803226 8.034976339474715 4.998848246035755 -0.8401524380348563 -0.547265992747922 0.5377074025252094
Ni 2.136217275799535 6.066784399698477 8.609891073217291 0.057453871242094605 -2.450985849576308 0.8470705053109282
Ni 8.572796870089858 0.07523065143190127 0.3046392740481816 0.6311780581815452 0.3862403728597477 1.3535084082988946
Ni 5.376948373147437 4.2227077130468 10.891659355940929 2.5356440491473364 -2.163030265932088 -1.398563391656004
Ni 0.18637472294295498 7.159939950743577 3.260877806716339 0.6409706187919348 -1.6636083892506384 0.6726134425081964
Ni 6.63139503521632 7.648189612595267 8.297110176192858 0.7641629698824195 0.8610578207289556 -1.2608833884723059
Ni 4.338042784530304 4.8671565310520695 6.438595274443447 1.3885409744229957 2.8885048181053734 -0.827405422781833
Ni 5.235658093866079 1.9705590106888726 3.4646082972772514 -1.4261886095724405 1.6717996668121788 -1.6284909767222149
Ni 5.1401495349492645 6.441864217723184 13.502214705899016 -0.08509143045370508 0.530136532156487 -0.9060778370830718
Ni 6.627816904766987 1.0482637759461586 1.606724614437878 0.2464615781654917 -0.3390524023200354 0.25761348101725307
Ni 7.653758651525383 5.409720378185944 11.091065813474223 0.13891259003921883 -1.1066169416848362 0.06426549484728931
Ni 4.4796266540023755 2.301545251945644 9.427083772092248 -0.5035700945218683 -1.9224883956851406 1.2281270199768914
Ni 8.339741306823296 4.898240392493968 8.550256483197751 -1.6772210949380664 -1.6264626334382764 -0.3429766770751061
Ni 2.606126725425028 4.688286707359254 10.593649715386817 -0.5291446005568629 -0.19172279186171498 -0.24664309804867846
Ni 8.657433417256776 0.14252886289843486 3.231846324201404 -1.5136241147782898 1.1641572019931499 -1.966927599835122
Ni 2.1348685958609406 8.241517038642373 8.383533036176404 -0.1772665072270689 1.4602603544451689 -0.15971127195212495
Ni 3.2158401539913872 8.434589287811002 0.4028213386391897 2.338744083960056 -2.2044211701740486 0.050340143015448785
Ni 4.625596026948246 8.987630634876002 4.238698286277935 -1.702433846758268 -0.1741601003876033 0.5590940957311016
Ni 5.8162051719236425 7.165830103944788 10.511563733001735 -0.06984890247233777 -0.3415435441730053 0.756618067655626
Ni 0.6696205069816548 7.801618011323979 10.78757796345525 1.1323074044724049 -1.1420814531400332 -1.7004515262209166
P 0.7367196276001101 2.587043363028585 12.633309764807082 -0.7769076711425975 -0.39815100825440464 -2.1493401700395047
P 8.230736773827076 2.371685783446032 8.894445108343216 0.28408993004122685 0.004722345176333803 0.7329482348425119
P 1.2615387001133307 4.104069751917758 2.9905839976350252 -0.2253070555750636 0.9791413898379653 -2.3088100154047853
P 2.3757960461160352 6.458883274091166 6.51755268635873 1.9686656655721513 -0.007790956799328518 0.12773574748679292
P 2.423944837393215 8.880791329536299 11.717809308040716 -0.11068213443861584 1.11855765898648 -0.4745801350474214
P 0.9584343522809784 8.539942292810212 1.7693928469499822 -0.13240178550389456 0.32033734240903544 -0.8381287227366082
P 0.07906659076745554 3.008574654040403 5.956955979229564 0.1861445264429891 -0.27554564001564164 1.6377772871201473
P 3.4461524839134605 2.8616602876681703 1.5964388656000645 0.6076756041842308 -0.614464087860974 0.2725680454445564
