# total energy = -340873.1758358023 ev
CRYSTAL
PRIMVEC
9.20637640633327 0.00000000000000 0.00000000000000

0.00000000000000 9.20637640633327 0.00000000000000

0.00000000000000 0.00000000000000 13.47446246545359

PRIMCOORD
 96 1
Ni 3.684272135437675 8.422453410793345 13.214297733300105 -0.3254574372444201 -0.47731064660470696 0.6254846073411937
Ni 0.5017410670283105 5.333732555555497 6.3866391210881455 0.11637918482339311 0.15971307172433782 0.5997668908601155
Ni 6.908971169477969 0.6408641439945286 4.527769543701649 0.03946051998846752 -0.24894243560581641 -1.2047250961131832
Ni 4.280955799929491 6.463041917842622 5.876953871900821 -0.2563389851802037 0.5330899583578561 0.2377601937367518
Ni 8.465032901447463 7.80295634568728 6.101007612041605 -1.2506133740048657 0.6775443041509105 0.7086572235056311
Ni 2.8217267344897285 5.191751819367865 7.71125991652748 -1.782760251723162 0.9587075474636457 -1.3251331995903113
Ni 8.208653732639709 2.114354807049922 12.127299035477455 -0.45760699752819256 2.735450132237818 -0.04452765009872976
Ni 8.458146531931943 3.622405286314287 7.480078599810606 0.11604494141242595 -0.7942309929123934 0.44013275200282903
Ni 2.4559666081767713 2.131515492580576 5.236176267844055 -0.6047548309930101 -0.7586050161786676 0.39930774756666715
Ni 6.978930423419729 4.735806030255398 11.545808653888663 -0.09183723381797086 0.1306781179445685 0.351690145688704
Ni 1.4379991615590286 2.6441173217980025 7.509856624139416 0.37714123877195693 0.04270036708200388 -0.7003304488074906
Ni 5.466967234203365 7.5409152554195735 3.8349528972832827 2.274356975933238 -0.012123008515779122 0.6751642339545081
Ni 0.4862854023990926 2.5130461415941823 0.8972709319313549 0.5396668402444255 0.23145353479243366 -0.44298796206343705
Ni 8.668880486758482 1.4097171733883371 8.308192153180954 0.3790417982287795 3.0604486275679483 0.9105566987900318
Ni 4.300500936936776 6.910241649415324 1.5806758997992987 -1.334361917277431 -0.12856595669757212 0.3743683040125101
Ni 4.043403670773126 2.6553306882016168 3.342434778090063 -0.22345894662273127 -0.7346017112855349 0.1783527983127122
Ni 1.4947472654275646 3.0617369661335854 3.246186716459043 -0.08157313288780145 -0.39043178523327593 -0.8700451118292306
Ni 2.3229712953142028 0.6815425179307918 3.368238409745276 0.5917057111185358 0.7706274945608406 -0.4322281524437717
Ni 1.8794264951554862 8.720786036662895 11.38625754842246 -0.8910993613963686 0.2991295979831687 1.0061780822407833
Ni 5.341640832846716 4.501365656307917 7.8032095210371155 -1.364093897124225 -1.0051974634950689 -2.333561254207536
Ni 2.4037020095944093 4.684010956867276 5.056291959554354 1.7264384372029813 0.14890132582081453 0.7641056342819227
Ni 1.5693649458062935 4.668581070091859 0.9931203574660891 -0.4270404375952452 -0.5748176771139455 0.30693880961494235
Ni 7.109559697558382 0.7750378730308757 6.873633414466776 -0.09157472418520358 -0.1524774732078471 0.07010961233289215
Ni 5.689071063831597 2.837929956879187 1.4461201061441091 0.7411472257135365 0.42864737707104883 0.15096720721090773
P 6.153293385289589 3.126264458024333 3.7075789978246934 0.7530684026311546 -0.4714274483510526 -0.46163694462319205
P 9.200640785176171 6.848034164366704 10.963024776421621 -0.8490399703324732 0.7132206745065975 1.2004164414355003
P 4.131306152235939 5.7195717887044815 3.7330456761052164 -0.23036364416236454 -0.20672954968319238 -0.5890037388063404
P 1.9938893724101112 1.020591263879672 9.203057458970054 0.5994002515493161 0.5229402715183639 0.03507910309132023
P 3.4481193754876713 7.2900599124264085 11.437460651810786 1.1706854900299708 -1.9409075216222766 0.9263864667334368
P 3.366090562141037 7.518488522612345 7.541696876772338 -0.6005960716296301 0.47520799843940736 -0.14310528796432775
P 0.8430315656202776 9.26649399526242 4.84505257466578 -0.3637185376081478 -0.20798656201874502 1.1978214270148144
P 6.537438645188768 2.9606969856084095 6.9337427663434905 0.7594681355099114 -0.9277077566480215 0.15743533143375465
Ni 5.089422946152618 4.333073096490131 5.28704241785769 -1.2152601913165522 -0.35416046160606746 -0.7806583964342814
Ni 5.680048815001103 8.593130422087762 8.76325136825018 -0.7686611148630892 -0.9395320029764593 -1.001416656296398
Ni 3.3230967845508257 3.2912887542351554 8.947420324096727 -0.5468672146476066 -1.1382839337708137 -0.4800825529228893
Ni 3.928443649195188 1.255455131139604 10.361066778914509 -0.34417506825858146 0.7043634812262838 0.3568030414352371
Ni 5.10608648735996 1.988632531509895 5.67421749621617 -0.7645337229582768 -0.46323179991413777 -0.6545419297184663
Ni 8.109224867977122 6.4288862615557525 3.788291299352185 -0.38795504155800925 0.709574593113578 1.2396450479188197
Ni 5.321755059914198 8.665998890958539 11.230694645194394 -0.2313239511931048 -0.3991087441819836 0.696478164940936
Ni 5.535527118938761 1.7110694907031958 8.61363118096097 0.31570190051955305 1.3877871269761066 -0.9835811707768738
Ni 6.555078062290018 7.141708363799284 1.6037443170386547 1.953412853178139 2.44150799199286 -0.9813445681368711
Ni 1.862532794539204 6.192788739863895 10.174404736350308 0.6035978345704314 -1.0801402355505463 0.7443482491493374
Ni 3.280821104316511 5.432351259098612 12.777846446124956 -0.3054627392900481 1.3876665422378425 -0.9015637512628021
Ni 2.1145849664588634 0.4158695121899939 1.0715780174235925 -0.3075669301172445 0.8556024540413393 -0.9790832829065201
Ni 2.7994749228332956 8.922562187293446 5.800580535550689 1.58521288275987 -0.8760951746780525 -0.902165389402543
Ni 1.234418561162381 7.153142683235483 5.234020134501093 1.2285409675858583 -0.4412049020210853 -0.8289378002659594
Ni 9.133019950829256 1.1604637398814026 3.3285156576749366 -1.0060960640499381 0.21356225633430959 -1.3995404108572929
Ni 1.175893626656819 6.423988469333483 12.924461672171027 -0.23927945859475566 0.894513272173924 -1.5536351079535888
Ni 9.370157793049525 8.248968454709845 0.6226078996773147 -0.35604996531929645 1.4639560581292015 -0.12231200536806032
Ni 3.829521135232271 4.463490623972557 1.5956997853773427 0.6032142259787676 0.6846906853877047 1.0302366658518838
Ni 1.2117248434407812 5.355284682608748 3.303722886143793 -0.6340019007835855 1.6040482702988181 -0.9031164404619028
Ni 0.19937052448829584 0.8023973822905311 10.331206817836117 -0.09913865257539055 0.1666542789288614 1.3530160420435087
Ni 4.733771421080358 3.7861038643296077 12.628064226611853 -0.0806472786394224 -2.230650279073907 -2.000443215094065
Ni 0.872957812608445 7.771884825480221 2.913259290150362 0.39951395004020224 0.7819699161568533 0.16576853388979837
Ni 0.9018372946047477 3.219838067323457 9.742777590386565 -0.08678861565046987 -0.36963850263700854 -0.8270120439981562
Ni 8.780019862147997 6.134714917799858 1.6336705640268219 0.15299015117820747 -1.1824919957465958 -0.7542752784550623
P 2.1178440236894702 6.7742082323547335 1.3210616103394681 0.3069184978999682 0.9521337509008698 0.7080201041422646
P 6.084576992156112 2.0444231722372357 11.32104141958016 -0.3609623150192493 0.12208369140733812 0.8056405203009158
P 2.913753672560768 2.5103670860741074 1.4368492851519585 -0.47648660804151494 -0.7559130711688015 0.19316158119077056
P 0.7313195536213175 1.0344376539215732 12.63067791685979 0.6410901750889346 -1.2668668597492505 0.7613645812016758
P 4.481921789440567 0.35169554515137985 4.0839881396705415 -0.5824960195948098 0.09128316108671376 2.2077474063338043
P 3.3628222985340726 3.40903830784946 6.566819874696562 0.8589669996381981 0.21430633358918574 1.2426915480546277
P 5.769010029745046 4.8106722827957835 0.45986494352791735 1.601682341169803 1.857496564194788 1.9898968070367857
P 6.405078572294876 7.005822248760415 6.273817740738089 -0.11042990921849369 0.40811660410754874 -1.1808025238593147
Ni 5.2170969734804675 8.887706846403393 6.396771658907372 -1.0548130696396671 -1.5880506093189812 -0.9269575087455584
Ni 7.608931963949869 3.0455797756259146 9.970037911412719 0.10273922544245531 0.3389343886849324 -0.7746967795342077
Ni 0.5338363362863393 4.329003878140051 11.700670951875914 0.17301570237051492 0.6746065616788253 -0.2665735184240183
Ni 7.620209774987987 5.783049753690458 7.547895529973942 -0.4082785836067097 1.3504667932590937 2.4412789067011893
Ni 4.326297203490903 6.217047541566294 9.063193268707046 0.950506499710092 -0.12204281086707369 1.403871691242795
Ni 5.100544248792657 3.638654540585534 10.261638834889556 -0.014780757853600352 0.1865340485719239 0.30333180898997436
Ni 6.206975765831029 5.286393368324476 2.7637735159559766 -0.8549658488986049 -2.1381826107607886 0.43696412446686034
Ni 0.9371630813266749 7.1693643183776565 8.193430068694704 0.674364106650716 -0.029288721661788267 -1.0144588341923366
Ni 2.452652312688018 2.9044460260631864 12.791698359992672 -0.45167212010099633 -0.5631528391815075 -0.42217899573788586
Ni 1.0063582060307499 0.20246478758210099 7.126036349325663 0.12597582737289273 0.014373752223168793 -0.24477262049884296
Ni 8.023716044367296 6.464745097468787 12.894467297997814 -0.9118679614022877 0.6338476345939085 -1.203396864220063
Ni 5.462299601390037 0.6168244540494408 2.3210701785963486 0.99103557017239 -0.8193912942281051 -1.8673030087622484
Ni 3.2163764698129818 7.781468663268532 3.7166877865929497 -1.112049425554317 -1.5803894932292977 -0.5725111404679559
Ni 8.135730025510787 3.472589923846297 2.6782785019106874 -0.12160058112333251 0.27749196510873503 0.35185855294576823
Ni 3.433665364606166 8.247219243201892 9.613233748020479 -0.9678650455931975 1.646462473598971 -1.6951931060354546
Ni 7.325522874156064 4.741569221855285 5.571245097293525 0.5487906569225645 -0.06513272794359105 -1.427465419402335
Ni 3.4312256748713894 1.1478878297768569 7.494239847923939 0.22210063282262393 0.3848242092385114 0.9467987118412018
Ni 8.931289832080495 2.069400071295532 5.658128432893546 0.3118704425886048 -0.3516559500166589 -0.1698956686842945
Ni 7.810091287364456 9.100512235910402 12.223197254806884 -0.24326184028127137 -1.8849811427683019 0.8185834536148289
Ni 7.147057268463078 7.339258787681675 10.248662447413453 0.7177167626047382 -1.0435007299506416 -0.2503205469002657
Ni 4.585907810400189 1.4446277525365345 12.845690074779728 0.1470493602137403 -0.14522413407954343 0.49553282603968857
Ni 7.750977144772006 1.4107943194221817 0.9961989697200863 -1.3284023572598864 -1.8512127880686056 0.7096519833187327
Ni 5.545110956727071 6.632245908919816 12.826704685454988 -0.11815735976973844 0.4930229151336412 -0.5066240508568436
Ni 7.038679805980857 0.6476289893421275 10.054778923234315 1.2120936206631125 -0.27991394428666627 -0.23916453028344617
P 8.02597160657492 8.621301933742162 2.5520903837269633 -0.9083231814738228 -0.28049398515985235 -0.27246982930379526
P 2.761167190809126 4.057572283987544 10.867867670388982 0.03036472833478641 0.2982160850299638 0.9048172252030934
P 6.252952409361118 5.202707407233465 9.42471293806967 2.586304551616681 2.3621292956532156 2.4203228732748125
P 0.3527404688679728 5.108406494202087 8.6913919182282 0.7115633414088326 -0.6988824035070544 -0.3390948255221966
P 8.47564785338783 8.612914924880346 8.257419908206167 -1.5016903394551815 -1.9542170942469894 0.2660986356701288
P 5.8302508452761135 8.888277641737567 13.463601801877006 0.8457394452043304 -0.3313421781599713 0.5578383689471297
P 8.756819793726727 4.472853508728285 0.03426521216552632 -0.5204653276153102 -0.5610597040979047 1.731982249839346
P 0.09973175444475403 4.09691113016377 4.708368266796702 -0.13741106579302786 -0.6731901409472728 -0.6255532557956001
