# total energy = -381169.27253190504 ev
CRYSTAL
PRIMVEC
9.20125593406080 0.00000000000000 0.00000000000000

0.00000000000000 9.20125593406080 0.00000000000000

0.00000000000000 0.00000000000000 13.46696813669751

PRIMCOORD
 96 1
Ni 1.0702164924057205 3.579923485829504 8.756047744779337 -1.0349870360526756 -0.5418656476679571 0.5785252078725198
Ni 8.211973794692097 3.4546207810906884 3.455745174578652 -0.7003073088790391 -0.5742638614930046 -1.1222392216031252
Ni 2.1778912981461245 1.3674722700009747 4.062701428561879 -0.09528276916441011 1.3882738368045382 -1.1482721553317772
Ni 6.006681156061893 3.338050068332864 9.094351245690081 0.15721113123809055 -0.0012534127911268736 -0.7367686370298666
Ni 4.016201040917691 1.1861523184968554 5.935054898552065 0.09458625731801776 -0.9636648914689211 1.0461060287839725
Ni 5.853084589003216 3.949841582364575 3.1944856307334875 -0.44933035934169707 0.30667784264407183 0.7871614876601217
Ni 7.168266120934674 6.517728117722823 9.63456526886897 0.8363261223102306 -1.0785016715058586 0.5666168864707081
Ni 4.766710690993049 5.376772368889432 9.073706387515424 0.8443878162724426 -0.5023341652322382 2.3828138205857607
Ni 1.321088738308482 5.794969455861025 7.687147952112794 -0.8299898956795576 -0.8611678639442588 0.6383072130271588
Ni 0.3124939777214073 0.7444828273698264 7.420865442595952 -0.8839241838041682 0.03952402623655128 -1.7530740375126388
Ni 1.439922960051895 9.159739971731085 1.9810046616752603 1.4546520071194562 1.0698064577247062 0.4840626206165599
Ni 6.2019686142331825 7.118606942092304 5.56210038752413 -1.2125805876018603 0.7105140742087118 0.6136063678463691
Ni 8.045633488019435 8.56897332774844 5.897467767632835 0.2289780766687476 -0.6414300749268566 1.72656339281662
Ni 2.4069749697485836 3.5028537652470164 11.023239073034961 -1.1262663404846476 0.3699699178344983 -1.130114510586144
Ni 6.981250591942426 4.468608397842209 11.142098138169679 0.13090694612592293 -0.49075623058665163 -1.3783416652924907
Ni 1.389279246813355 6.420167199941528 3.160334248819213 -0.7173784054287128 -0.6885092878028466 0.20634722664310917
Ni 2.7895631958493285 8.330338752377521 3.8352445390271117 0.8114560985414282 -0.4513365911384485 -0.35310965174404996
Ni 4.4691972782287035 6.341376844479751 3.434548241041656 1.3632276924691877 2.6467015646474996 1.3343169229721086
Ni 0.4348255968852364 5.21205148327963 10.497488504223742 0.31576874920174647 -0.5502919240584394 -0.27420069595197294
Ni 6.197800445247524 2.4163786534204204 4.698127288855312 -0.2325254277003737 -0.9175007342080327 0.7606894095115222
Ni 1.0557061116322508 0.33828601852426915 12.030204291177533 1.0386824826263918 0.4614307421496569 0.19336084168577022
Ni 8.167467319231555 0.7211548829342032 11.066791378244261 -0.6860960503756636 0.25754997476916935 -0.417752584535416
Ni 5.8436164965391075 1.851918400453217 11.032140368127068 1.3596782845550324 -2.5015964726443243 -1.4552955542407258
Ni 4.6613103030665455 3.357878775096864 6.942734134163262 1.7260846534079883 -1.1197280251454973 -0.1701250110862812
P 5.241329879995662 3.2203107960580897 12.273202102162136 -0.1842470523099601 1.9492008719793206 2.5733284510719874
Ni 0.8355918244165883 4.284518868270356 4.365963786099379 1.5383262455106606 0.5615520703532909 0.8099872273053856
P 0.09571606594547862 7.140588742769425 9.18514555978031 0.6088056040236159 -0.09684188612141387 -0.8635677316350031
Ni 8.971316650564875 4.027997051159662 6.611164112421843 -0.34113371032909634 -0.44781006604242884 -0.5910734768511756
P 6.738981520436111 3.5674649851527263 6.347722950769835 1.4236758704529158 0.9073263647781923 0.6548558614144593
P 7.594486703172257 8.482030659436129 12.600759456144955 1.0833088630865149 0.7270442106532511 0.04833493965996192
P 2.594395354006546 1.564517168075709 0.5720954552283479 -0.26953774325866486 -0.3933008792509549 0.02198447469089117
Ni 6.129517924182261 8.280366730829826 10.709027220811075 -0.3548898835729242 1.6902360191404955 0.22150825065426366
Ni 3.36502815103915 3.4769706320093685 13.349751819099485 -0.23341785760765607 0.2180251772016697 -0.016316991992468673
Ni 2.587356393136727 5.549424737204833 12.14615483927833 -0.7375607939138588 -0.13866345014289022 1.392548810030808
Ni 2.6456187463755416 5.780210641174504 9.734059370544053 -0.3299967198756704 -1.0820788473341558 -0.8209833213055732
Ni 0.31333497252336995 6.765683565461227 5.173645440572932 -0.7501409445717145 -0.958871840955652 0.7962523942177964
Ni 4.104385878795266 4.853000070126594 1.8506311447333637 -0.6970888019417415 1.4044332201732201 -2.5656750482917876
Ni 2.8717304122774108 7.0727110769698776 1.6680589022823393 1.6824196084198701 0.5057290498464 -1.0100252239010155
Ni 7.952995242218995 8.931392400611744 8.75452585703049 -0.4150007328218917 -0.9018103200559696 0.6156573368381267
Ni 4.643275841230146 1.091857846609399 3.5159830374890357 -0.05955343408360067 -0.8427420531389035 0.5085788605903693
Ni 8.857837559836145 5.2284941278212855 12.674450475509929 0.18321912526607798 -0.8013591193167425 0.020090342991971852
Ni 1.2498802178228234 5.226101801251151 0.9609258134259363 0.6781433711874901 0.1881834112498888 -0.285935725000714
Ni 4.077831053866773 0.13421228096135876 1.1253715814801721 0.4877884062075793 -0.18372743236106423 0.377997159014349
Ni 4.884229133122888 6.211418304185214 11.190175621098946 -0.3972428946178384 -0.41982695056594144 1.0561893811619034
Ni 3.682029824094054 3.0947412548941435 4.902865357104236 -0.16450766489950377 0.06962084562193172 -1.8549177477240182
Ni 3.2670715792481806 3.769266932599613 8.485752567503894 0.14788085497610015 0.8384259422620528 3.4113967528843054
Ni 8.780004135002423 8.316877314792496 3.1328473366539713 0.10199026309157275 0.5225535776029064 0.5997008135088704
Ni 6.852571026237307 0.0907326656747676 4.188806482827294 -1.5016057501611753 -0.18569689738260922 -1.1319631337591085
Ni 3.7290206386851192 2.8106800784587853 2.49602196531701 -2.583248281288861 -1.356843900430031 1.1532747507526913
Ni 3.2255923170244634 9.447389638021646 9.063849081920866 0.3249776693945242 -0.5436867600370959 0.8081218919618727
Ni 4.007680677825597 8.044621349855147 5.828975457929884 0.5019171322994775 1.4195721326971875 -0.49456326303756765
Ni 2.317823999986916 7.512770348290085 11.020154812010695 -0.5669781264648687 2.4013517314889485 -0.24484384005641058
Ni 8.432481895666227 1.727683041414923 5.031501676905974 1.9989005531972928 0.005959045796912319 -0.23136354618178864
Ni 8.06018067381706 6.5080483963698175 7.180250756925444 1.489202491400816 0.8037728709645575 0.4187640565190659
Ni 1.6829189307852903 7.883212916419378 7.3135741965534375 0.2572522410230924 1.8151083290365644 -0.2481587633622565
Ni 1.3808692987937283 7.835136353615713 13.594231032306363 1.0516644967083566 -0.41419263509829957 -1.879634019523776
P 9.13392124728571 1.4851379322274376 2.737282579161454 0.12841014784599822 0.47829152246073753 0.22111512898090308
Ni 1.5057487457547507 3.147887709775286 2.178631999257262 -1.340678603524078 -0.2462849433783113 0.10561397588708908
P 3.0440055290952137 4.804067790511303 3.8470414693946866 -1.3553727152011432 -0.29522717760496897 -0.4832941178816515
Ni 6.998401733199084 6.596987737242587 12.233771039532694 -0.23291957781499886 -0.06250197518896332 -0.47349924327841675
P -0.10572703251588772 2.728807302223951 10.959957434626881 0.47960072819046434 0.9446785801744053 0.2318255734198717
P 5.866628837892594 -0.0034145861160650914 6.1357260116317605 -0.6703349308866648 0.15422196670277954 0.9237716548184092
P 4.134391174738376 2.322001370228613 9.776534208671189 -0.714569475225008 -0.546154504851298 -0.9113681389477336
Ni 6.3403923100835815 0.7310719966930146 13.335073055340501 -1.6181173467973744 0.7585137420164421 -0.2179074206768828
Ni 0.894666648563645 9.019669251049708 5.181860321964533 1.1009306899333362 -0.3700658199824143 -0.004418183672353681
Ni 6.220085887373932 5.361019818550701 7.54515140854246 0.2806220260972845 -0.667196128147367 -1.8856138912562945
Ni 6.3501456414848985 4.822801547806665 13.353711119573056 -1.6043668299805016 -0.6497319099243326 0.8067666634855589
Ni 5.006918681146633 5.009964296895537 5.342655951748106 -0.7158342008700446 0.3883193668759635 0.26231320048576756
Ni 6.487962054436726 5.7236505203029 1.9870784107865904 0.44257889955047647 0.04840024568025858 0.35564373101981334
Ni 8.170430123676105 4.544417546347357 8.775453193765545 -0.8532390960154854 -0.05139455242189213 0.068065842429986
Ni 3.9898762473901725 8.204769211213575 12.404464460437397 0.608673706431442 0.5451669441270481 0.6369686967213933
Ni 8.66171278736531 7.033651745084412 0.837378708339358 -0.40074113757908403 -0.5028458147613339 -0.6118400199745657
Ni 2.32626155177466 1.824231821031929 7.770831535536101 1.1761285154224133 0.1622129553280561 0.8254452137316687
Ni 5.4780413928544345 0.8893225590562058 8.681508369607569 0.8554826406340235 0.655361340295968 -0.1275493425075997
Ni 9.172603327673578 7.36187895050687 11.348479550747166 -0.34664307018309976 0.9298325163005083 0.30495134687126835
Ni 0.9789308312430103 0.4634313817848181 9.455805106794894 -0.018549223757097087 -0.5354183493807165 1.998652441742229
Ni 2.7379441494706565 6.326645633561347 5.433086816224795 -1.6497385732470815 -1.0358604397965643 -0.3180323484249426
Ni 3.3172460284287326 1.4435942612114476 11.530849365565333 -0.006236724938331195 -1.2097181784524003 1.2934631221805402
Ni 0.7002073034358637 2.3773193215349546 13.48514830171306 -0.11236620700925809 0.9838184835986604 -0.7886146751668806
Ni 7.227181763352257 1.4152451913553534 7.001947897276506 -1.2478257839573994 0.5481980176438881 -0.2702411970835926
Ni 2.3768960637571617 4.116135882757042 6.5285570759550975 -1.2782339639356115 -0.4294248786670217 -1.5669696202789658
Ni 5.430452496620835 2.9408778514103373 1.2937122412157076 2.3678376588919026 -0.9393527970861176 -3.693992357768193
Ni 4.016918738888732 6.597622623909277 7.4673796321241985 -1.2655280863331688 -0.2168447837403233 0.002539992813034335
Ni 7.210453879873392 5.393711881257192 4.739605630953425 2.4588271999975975 -1.226169124919572 -0.757016074424993
Ni 5.937239276735718 7.859151631877448 8.269338105341507 -0.7716047708724453 -0.3417332915863083 -1.5775088292473929
Ni 6.478438754436382 7.809520056803195 1.0765221131692329 -1.329079585832569 1.347312306790512 -0.11060834377788693
Ni 8.69189290717316 0.3781854250860936 0.7383695128575288 -0.3575602313162358 -0.05083739436684148 -0.7261859764180139
Ni 8.141979840003584 2.112497971477101 8.897369836282015 0.6850544964850266 0.7413236033904008 1.8565097748014867
P 4.1907672704892 6.315282082353208 0.012714295594661125 0.2675703351196489 -0.5011013212664015 -0.0713735666469803
Ni 8.263776866191547 4.02954286217421 1.167529896399566 0.33714618643625804 -0.013698066312382861 0.6561604391584958
P 4.174527053580403 7.642195215734363 9.647426784560256 0.16013216153962742 -0.6996372793952079 0.026685479710986303
Ni 7.460985679302711 2.713422802126778 12.763750505619427 0.9009487433866227 -0.10501285196798042 -0.1578755042949668
P 8.400976794988763 6.285460811530877 2.74638630188642 0.00783080889832845 -1.6880130433472478 1.9763643197679897
P 5.284042110528602 8.393091318563357 2.861165530093455 -0.1351767771458704 -0.9414886124821978 -0.5212579987199345
P 1.4021242002437695 1.825676418230049 5.9974467755011736 -0.44736732207805535 1.5634500371614817 -2.216833942016105
Ni 6.989172873391987 1.326646296956025 2.1786191174988074 -0.15229081111833773 0.44972090991189645 0.31040902755172994
