# total energy = -381160.2513978712 ev
CRYSTAL
PRIMVEC
9.30038067866116 0.00000000000000 0.00000000000000
0.00000000000000 9.30038067866116 0.00000000000000
0.00000000000000 0.00000000000000 13.61204722011123
PRIMCOORD
 96 1
Ni 6.576401324122919 5.247116546408754 7.819821269321633 -1.5213536222120638 1.1139155322287784 1.3387495048221654
Ni 0.24112538383611687 8.928504742788421 7.79101799105159 -0.023426863564372558 -0.173207763776663 1.5666482323838051
Ni 4.77296455003699 3.408282524309979 2.0883464890294756 -0.9409872473657471 -0.3075013669866317 2.3925912116874986
Ni 5.418336550590705 3.8528872119752764 0.11426633434982486 0.90387902965954 1.0275431781801208 -2.6717723915731986
Ni 0.9075739065776169 9.24824252246095 10.122775897433092 -0.7115440581351229 0.6090388030803447 0.13667701584048073
Ni 7.518129947884555 0.5325044434243656 7.117276109957048 -0.4980095697149552 0.10144493211106399 -1.0088294038207013
Ni 5.913284197660505 8.811245546008083 8.606774821622368 0.5894523963079848 -2.0538216307152046 0.2406269737615856
Ni 6.666559212256533 2.3388689772776208 11.615813403861653 -0.2891501181729536 1.4063461209252168 1.0147876782866652
Ni 3.6252604003319724 6.621963887973401 12.260547398316135 -1.137832448055692 -0.3482014158091552 0.27384408394350257
Ni 8.820899340920677 3.352424439295487 12.057837235950606 0.7778700350558668 -1.2931273361076763 -1.3917697657729384
Ni 7.744389603600931 9.250688522520694 4.167560004451853 -1.9203296974709247 -0.3000335978546768 1.0026096481632347
Ni 3.186775363006258 3.6190105446660152 3.866515989494463 1.0826989974166579 0.48487611765679073 1.1537694310009228
Ni 7.633910384172502 9.318981216203913 1.830738970950488 -0.02861406419226685 -0.5314807048892072 -0.10350644262578303
Ni 7.37480178468803 6.828636942450929 11.885059418042395 -0.5998085427313283 0.9636461224158435 0.35765253391972596
Ni 2.553893773404002 8.412296425997821 4.581624102778058 -0.9863402215792497 0.8241259806996131 -1.5739882176886442
Ni 7.16795202298185 5.9992848157306025 4.4598235302214 -1.1624325059925593 0.9785304957268438 -2.4827086346008853
Ni 4.911484416538128 1.2555327607036884 7.625047121598607 -0.015186992153083523 2.4077861742603828 -0.14405659613400354
Ni 3.9666122641826034 0.5106150679847874 9.840285211445968 1.7318349256282044 0.1871518846615809 1.1195619318812784
Ni 3.7175759767312138 5.424530603973929 0.6349425539111485 -0.7897508456538528 0.06959359192842207 0.8050604794277296
Ni 3.080658022011361 5.68310908177245 9.473004816924025 -1.1938020214427763 1.0191500690204192 2.168255261776453
Ni 2.1516244175712003 1.0412705957746407 8.742609668286065 -0.46523674615930843 2.4762191702217997 -3.3351756283370366
Ni 8.879724247300409 5.06705188041382 3.1609491365199536 0.346851329539164 -0.31950147677130136 -0.5579288717784069
Ni 6.200154432804028 7.67697114568051 5.7812132149670665 1.0079706553648318 0.24933632861012545 1.6688043316292809
Ni 7.9901056552297804 1.2905207919765018 9.527970065414808 0.470968249326447 0.3398468731968728 -0.32648073630261193
P 7.5597770515633576 7.03081791316855 2.496354179603194 -0.44638978865613443 -0.46845782419976745 1.1009036933501428
Ni 6.885499468554592 2.8674095985519403 7.788867743090325 1.2765982281044015 -0.5241155227733877 -1.022637256238071
P 1.630458997997928 4.639290181753059 13.296355880649381 0.7302866288499488 0.8102361100913982 -0.2777907272960764
Ni 0.8200536063411247 2.680416149117813 0.2125639154579111 0.5045735960857182 -0.2075301912076168 1.044569023314156
P 8.264457578280478 2.597512557739328 1.9534919024657678 0.5993925382398322 0.6516525239858132 -0.04824649371121369
P 2.1996329814814244 -0.004971983391399812 2.421188504763513 0.8810579179999665 -1.1762491001606776 0.5216362079949597
P 1.788639868781557 0.06504221071409387 6.478191166591112 1.0936596101932197 1.2965191353980445 0.12695207524323296
Ni 0.7161051140684023 0.30488135193324367 0.6921194328742007 -2.068635812909902 -1.0974668997544519 0.05286162388572187
Ni 6.0444660639824175 6.542166623666984 1.042455464244645 -1.1169368355536053 0.7927574936906605 -1.2017382455707173
Ni 1.3223652946554263 6.262094966636281 4.133897277393919 1.5202588464859883 -0.9366618805175159 2.3835434996629337
Ni 8.193067857905646 5.238281184976225 10.399535688983667 -1.329667082904923 0.1270466918395683 0.31337350949669257
Ni 1.1414635944195157 4.755340329074209 10.977720811090295 1.2353358790205047 -0.08946924780642657 0.0824593921474967
Ni 6.26490368153378 0.24149646901628308 10.927601060816722 0.03701154422734271 -1.9547457130569499 1.066969759606859
Ni 0.6763952796384365 3.850813227133746 5.480700251733674 -0.5912197726210529 1.0818623604479756 -0.48175222731582834
Ni 4.600275085743103 7.7727371632286655 10.484516055317817 -0.26482799648782135 -1.4833069518519875 0.37471617427023207
Ni 4.55337326710706 8.813533439600086 1.2348701054461633 1.7195987885733288 -1.0449737149517422 0.5685205312513241
Ni 6.744077883351402 4.690219065126245 2.1676099114977583 0.6134736989232467 -1.1242904477051991 -0.02339343922327584
Ni 8.891842643033655 4.9640315661105365 0.5026520822389652 1.9269885975483394 0.2543430377960974 1.7982737739777286
Ni 7.290791448035364 4.741882678555399 12.776634810160816 -1.3561216775520257 -0.07698988439249321 -0.18771058537852833
Ni 1.220228516495395 7.354443251871393 13.440235556406904 0.4168886938732239 -1.335444351708332 0.1522843833604345
Ni 7.96854737333441 1.5069871470734542 13.551894994115111 1.2579399895732657 1.124090158768935 -0.3240021928551323
Ni 8.220197067693737 7.436928326129389 0.5260704402253937 0.6989022010013963 -0.2633555257073529 -1.0397075814567964
Ni 2.5102749890686766 8.677645580767795 12.02333003434733 0.23631009155378654 1.2125672178654214 -0.9605104050003395
Ni 0.23744987348018495 7.712489298639274 3.0768532363671004 -1.3792909165796376 1.1333430448257706 -2.111996439283724
Ni 4.518264330888327 2.5636033705993286 5.369598836852785 2.071957421083967 -1.3184128501473424 -0.7456859941241545
Ni 1.0616198282108225 3.0323797470679335 3.2534832718598947 -4.302930887825247 0.27233047551245354 -0.9248139800399944
Ni 3.9620178762376885 1.0692833417059842 3.8514465830427516 -1.0551997635551247 0.37597550059862994 -1.6153354131768631
Ni 8.634631321162063 2.0034693569183775 5.340196614081421 -0.4766015363528244 -1.200005836260643 -0.40202874604225597
Ni 0.5339004305307052 7.315567661568266 10.99240890194334 0.7808820824093132 -2.79535812144736 0.9378471590748687
Ni 2.7200171690964514 7.095502059235115 2.350256363107082 0.6438751940332395 0.9770798793232462 -0.5364316211365794
Ni 4.2051019201976905 6.184176379181833 7.716520083528598 1.6742177893353682 0.5447010602342233 -1.5881015171615747
Ni 1.7775073133765709 1.814634432154102 4.8790474796242025 1.1908532232270974 -1.9307660623129006 2.4161705416693358
P 0.7039588171937893 0.9621801603828263 11.961205352982063 1.6015969805448482 2.131335763042284 1.2840408004253756
Ni 3.075766021891877 2.865586723982703 7.032745882036933 -5.995438733719055 -3.324772173615526 0.7514650626997768
P 6.4031166354798925 9.043085429997635 13.579106047251207 0.014559385871413635 -0.5577560936459683 -0.7545488438314231
Ni 1.8325469649109967 7.022791684835632 6.884482936970828 0.023952397050539392 0.025118649444498674 -1.2384250594687898
P 1.0829176994534442 6.676910535703273 8.885876448971585 -0.11405670733780357 -0.033744957660928984 0.6076169830321536
P 7.704444469545447 4.548285958998013 6.274663500783564 1.0771001631726418 -1.1490450289420597 -1.316094486426811
P 3.021563404598427 3.630747624800595 9.240320458389132 -0.22071249422584568 -1.3549554251580662 -0.26276211509772807
Ni 1.6652517212811804 4.616002029093004 7.330631487791704 1.9671870241440956 0.8922926103735214 1.0044801257130702
Ni 1.9576835839369684 4.850743631784608 2.4909227574173025 0.4554236167236285 1.2040931189561392 -2.9062773115974463
Ni 8.46187675420499 8.989896554173813 12.230274659934155 -1.2236129341566218 -1.6994984182790278 -0.6436707913319173
Ni 4.073696844744851 6.937683903289243 5.406527857526618 -0.36549954076797053 -1.655740042246155 -0.6270154421634234
Ni 6.568468099594554 1.7451233886312396 2.9810658279438984 -0.7949868972418115 0.467031376165886 1.5355898204161038
Ni 0.18085519833363403 8.539702337854884 5.355891006099728 0.24123503965922968 0.2503848244792978 0.30060232587395325
Ni 5.431561691598131 5.26269468367137 11.68157267390885 -0.002682946148801831 1.2021660771367555 -0.98039428840846
Ni 0.1698500581408854 2.3906534956526944 7.552685511466197 0.18509371658097154 0.17015175055915857 0.8724300671216394
Ni 4.911121701700372 6.050539212419723 3.180114430524177 -0.2377437386765196 -0.06696643871822015 -0.07646255113411349
Ni 7.101100888269202 3.5570886115946725 4.434546026181958 0.6873880297142098 -0.4400209090153131 -0.5483903361603523
Ni 8.978829101432014 4.964124569915088 8.248737145196896 -0.7036114335516076 0.40331044096815705 -1.0323573117393123
Ni 5.96575694418927 1.76146415709119 0.7949444391879239 -2.1295722433839583 -0.6178659144536713 -0.30155517670552584
Ni 7.974676324054449 8.01688145056057 9.910142229121767 -0.9862772295517982 0.38562870741767774 -0.6843510426600989
Ni 5.352192244792659 8.68810850878 3.859478391603943 0.48085259831969446 -1.3724605239213654 -0.8929135317869719
Ni 8.8307763449642 6.36656614029059 5.73139293694415 1.4308235372412907 -0.49778356974707827 1.645877033409146
Ni 4.104546206715058 3.476007894785425 11.208159127745235 0.47835605715008583 1.030906695335715 -0.10747802567902136
Ni 6.121594119098165 3.733591231875229 9.783780749989834 -0.06084181387772102 2.17317661033747 0.6097818518939563
Ni 2.6435866425148515 2.1352092460676078 2.016515930621063 0.05046946950446147 -0.26608115216863204 2.340125794798931
Ni 5.461676323512371 4.840848026980176 5.298094721798353 -1.888825970435689 0.6255977358802903 0.5141332147496952
Ni 3.959962492157069 9.047968129736663 6.353627451001187 -1.2163202571499503 -1.1639286309221117 0.036418647838350186
Ni 2.8567048606478975 0.6138632416092261 0.4805655387337346 0.9594937908103667 -0.05887260596649216 -2.7826147057387627
Ni 4.412156290273885 1.2993003511262986 12.197660085753531 0.6997475797208271 -0.5609866847681242 1.1374575812147765
Ni 3.299774985538072 3.0050459289098264 0.18399221666120444 0.004459064212618127 1.0238634153356883 -2.341775157476896
Ni 3.03054757211824 8.293446864159627 8.5400213409045 -0.3455809474671726 -2.0335083730791497 -0.3137355208218016
Ni 7.850200032040803 7.282569911712885 7.6777254065354335 -0.25034394393903336 0.0513511007784664 -0.09613046187668606
P 5.757428421990698 0.5781404802804445 5.692503396070342 1.8488370887475771 0.7075315945416202 -1.2943285555046289
Ni 4.763980382517176 3.7785864725179383 7.170172953834575 4.166319949336012 3.1778166586671723 2.731421213584083
P 2.718752317354532 5.213588674867422 5.341258717529415 0.4589797095060031 -0.4093746448843659 1.0194460029942831
Ni 0.36945110332020864 0.7461304623302712 3.1777047019482105 -0.16034864842580773 1.107558222552183 -0.0070525359714072085
P 9.06036553688357 3.3178642255236173 9.676313923790874 -0.26667302011636007 -0.6096021317829824 0.3126134914022164
P 5.650771658929395 1.7650913054687545 9.553356383905577 1.09313227693484 -0.23382357768650697 0.24953995998049927
P 6.039648466906575 6.531145672827462 9.553601913949596 0.8921933657914956 -0.01722896228377678 0.0781903324584976
Ni 2.620149683767512 1.8989330806008806 10.839817559813344 -3.2040318836099595 0.5361220603159605 1.0844812861280613
