# total energy = -340873.6041115552 ev
CRYSTAL
PRIMVEC
9.20021287793235 0.00000000000000 0.00000000000000

0.00000000000000 9.20021287793235 0.00000000000000

0.00000000000000 0.00000000000000 13.46544151862069

PRIMCOORD
 96 1
Ni 0.8390916291455653 1.96377627119016 9.402837602468153 0.661121639818513 0.037410836548290416 0.8062678694722695
Ni 7.2973237693483135 0.7633205146673157 9.197488847622902 0.7597321878045755 -0.6189830587772501 0.8046084794919757
Ni 8.03824452534978 2.1333821984111383 2.002890056868883 1.1942756186450851 0.462400562262094 0.6215824440733101
Ni 6.704977253579641 2.1088360300452273 13.590670611636137 1.5609501535577635 -0.8003080523444088 -1.0682938777349213
Ni 5.351322309733467 7.608447373407539 3.9565773744495765 0.06531347649582946 0.1858910156712863 -0.6538868126329707
Ni 4.388510815857547 7.9532345569461 6.873031104862339 0.08390049546939744 -0.15895022541638432 0.8449136068689256
Ni 0.2596750927702409 3.442968121840252 5.878298551855098 0.7448341876468205 0.7636346081827752 -0.8511084228257279
Ni 0.33214241074916573 6.677726222582704 2.524151126655842 -0.12798694426565058 -0.4852155032740805 -0.3939565105570828
Ni 6.330280177478269 9.173762418238026 5.940266586723387 -0.6875631218394933 0.829012876478269 0.0065318875812468155
Ni 7.226804136467988 0.9694356472580259 3.923049038101792 0.3379851373977857 -0.4157826052932388 0.09774819998576714
Ni 4.363651840248592 3.8062477335705234 5.896934503370087 0.8953231696697289 -2.1610435745193617 0.7191257271371229
Ni 0.6968342551796497 3.735792502181413 11.283353785773075 2.3330565466569753 0.13273088670853916 -0.1868757481820588
Ni 4.196428768202566 9.000135997922632 1.7371225830297121 0.592917729148766 -1.4063057546055846 -0.2034562782485593
Ni 4.667958086452068 1.9140951208243733 10.581332450486716 -2.7279682220384758 -0.21477273170264302 -0.9985411345208159
Ni 7.987431748781217 4.559551976311314 7.52078590360841 -0.4521765705412406 -0.2886441250708126 0.00021340156238672925
Ni 6.024106288029561 3.3621074495134184 3.2250132351003327 -0.38749429987150685 -1.2311544939493055 1.1996589944441856
Ni 2.8883608799235168 4.075639171322488 9.850536528925534 0.3066868415051363 -0.7857916038957886 0.7706637471154146
Ni 0.7661026590877996 7.754252349518093 12.067782349196728 0.7947220736161991 -0.18301215146159447 1.1750928750690472
Ni 2.0600473003434185 3.421568426330841 0.5988243857635888 -1.213038243964569 -1.2286787787153033 0.09212776847519617
Ni 0.45340857866423334 1.3684764870386328 4.589062579628592 0.5969744157166428 0.5377120305108997 0.46631583815610017
Ni 7.6290282499572175 8.816186938586789 12.453634683597825 0.11572586751011037 0.8209473258613152 -0.6913899517847513
Ni 4.66654125364534 5.553634994278589 13.218512794331238 0.34744756836226615 0.04291145465154545 -0.9251117137860713
Ni 4.768663618286125 5.964626910786077 5.674148584767745 -0.6427328528986801 0.7018777386899525 -1.5949038847953887
Ni 6.960835177963444 6.7000919404603385 5.989818934106744 0.6989243124885833 1.3518940126239234 -0.33393436436717977
P 5.991960743700291 5.055599862287637 7.251153420275042 -2.2467196738319433 0.0760840847487722 0.5659134326457802
P 8.96721763569878 3.2270299217966625 13.414515052758599 -0.3911550365525457 -1.3470449120617383 -0.05556282486696883
P 1.7159869336342821 5.366245055269265 1.2183271703349818 -1.1270297010132333 2.509771809366265 0.6646795323731004
P 3.3282874664125606 7.750103053441246 5.085008343240273 0.597064661437604 1.0057080845829003 -0.006039521325860566
P 1.4766617920666496 5.57738994432386 7.297407491286893 -0.5872006241593306 -0.5347778875832403 -0.00011081454625142207
P 8.255949166295265 3.8247953630404177 3.6832022444553183 0.10024654092758864 -0.28154222391870865 -0.3774091477213629
P 6.410368031910524 1.347380398559235 11.438367255106057 1.4714004302223884 -1.6931220824390387 0.6145083108353481
P 8.172558435384989 7.464546841394339 4.153873182829057 -0.8115008357364346 0.20607931769370316 -0.1615850919360701
Ni 1.2517625845311564 4.105797469637127 3.4332968579023793 -0.29983202336683196 -0.6965599260214649 -1.4125777036572253
Ni 5.658342618781001 8.21087732265786 10.444618204871796 1.5204408805898073 1.4808944857557527 1.3528759169212183
Ni 7.519637717022179 4.791912556614706 10.277875383945972 1.7584121618961006 0.21745233541733516 0.3552369824996979
Ni 8.733891033027167 8.689886414101322 5.905296576993691 -1.1971285147128479 -0.1568375499487557 1.4756502066376778
Ni 6.9471268605477 8.767609813784686 1.538117375069128 -0.1894885032145575 0.1642040176161559 0.2629672891299987
Ni 2.161240443468102 1.6971816981995287 11.540274334761921 -0.11119661218118913 0.5792664569139185 -0.6952237237085446
Ni 8.690861636682575 1.6195595008595018 6.9805659548290855 -2.642176680193953 0.04418543626796261 0.9420146601889969
Ni 5.5860933458509034 7.827127236934278 12.904403721143549 0.13939132944785027 -2.484527690087495 0.3780017870000393
Ni 2.3095478775230065 3.4203815988498807 7.435078559057004 0.699603340833479 -0.8020054946514897 -0.2587763909771027
Ni 0.3829110262951816 0.9694724481101487 13.161863402615998 -0.29270775361722495 0.7067126981847507 0.1418755293222847
Ni 3.8144359231678475 5.055314655683684 1.7711228903059721 -0.014062648740653202 0.3217951579014845 1.1228979382330468
Ni 3.631075677465971 5.625415056344121 7.827286400619709 0.17124215540985993 0.6145754166278576 0.8003476473330926
Ni 5.732993147312111 3.6249299351614623 11.750133034034825 -0.2862355156293199 1.1534675834897878 0.38531837526611057
Ni 7.103843289312665 4.44364769255054 5.48122931772697 -0.6367622371375421 -2.1742855271309325 -2.045678689893096
Ni 4.687204932112295 5.738274069591734 10.791541677876086 0.31998715815846823 0.3260883859601996 -0.08143480753772428
Ni 8.702886315113703 4.559128766511902 1.5273310453119338 0.25110396203350943 0.054971985360505335 2.033941603961826
Ni 7.990191812690427 2.7889249774876976 11.59766342360483 -0.8369239037952296 -1.538423433210157 -0.9021522767764204
Ni 3.0018823085093405 8.679940983815134 11.044759141120078 0.1264190855578984 -0.20763354955470048 -0.2896381135529657
Ni 6.595991530017954 6.558086652331464 8.885562064966095 -1.3777297427401045 -0.4173833741214554 -0.3352122026383388
Ni 2.6924331432217024 6.581179187038525 3.5043675835432433 0.5361783674751928 -1.0491250181159546 -2.044503181527756
Ni 2.7212666108599204 2.4149823188548436 4.684169781833467 -0.7921766814865261 -0.08067864609799008 -0.23059504344688028
Ni 9.234897833827036 9.117300710868612 2.86413947907759 -0.39368628761483165 -0.3483225147680517 -1.541565064162932
Ni 8.758943213109767 6.712079818039342 7.835338427064179 1.1669694746309645 0.9645398378747065 -0.0371077034855748
Ni 2.443282174137281 5.852292309681214 12.063163842255316 2.1607550967446656 -0.2059520480872195 1.6545213393477054
P 9.093021348680592 8.183966699543058 0.7388221874091642 -1.0214506921291375 0.3403675215870332 -0.10801332935720107
P 6.676594596379927 5.701657221729542 12.071405393088217 -0.3570125863428819 0.19493409971016104 -0.07537548871752181
P 4.203742937561973 2.2918466676519373 8.502915084784895 -0.3509992902692664 2.308999762818088 -0.3866178108038245
P 0.5012929274251243 0.0896956369002161 10.641806370758818 0.35037682619391913 0.5335728115315456 -0.7369128759172147
P 3.411328589227671 7.867792178529977 13.053304568938936 0.007199603072232763 -0.0684003429512693 0.16641388078328115
P 3.2133216043809174 3.51705743737649 12.268444515524141 1.2494409509633193 0.439102768076418 -1.8387899889242203
P 5.919950676308992 2.1524174391716593 5.3056533722703705 0.589906453126268 0.8872614757075171 0.5529910681571574
P 1.5460221981051065 1.580467795692052 2.4236848003605838 0.5016111710232845 0.6200912042397643 0.2074044642630299
Ni 1.1134741824666852 7.8692642126148895 4.653225785326006 0.7309060076015025 -0.4097325424444169 -0.39475432386802983
Ni 3.6593663325353774 2.77163777720301 2.3801788329810036 -0.5542817619441227 -1.5201845416046271 1.6688300426608937
Ni 2.273814250111763 5.053088204130255 5.27181498874345 0.7953591929795658 -0.03664079115148528 2.730002221749369
Ni 0.47215953284210566 4.27887187717068 8.825021903160172 2.430866196008297 1.3615652171651003 1.9586149662043686
Ni 6.831378980408446 5.758312133572601 3.342364712370837 1.5207949214951164 0.3814329241687754 1.1573142109293875
Ni 1.989684071084615 8.026532654161697 1.238440676062701 0.18125531667148784 -0.37525970547852794 -0.675205628715405
Ni 9.40473376637378 5.714408716990095 5.079123886985836 -2.437667792311163 0.694616686252165 0.09607826848251196
Ni 5.575798307469548 4.145385986308234 9.238006585810108 -1.6860618331581476 0.026544326147431706 -0.041170046480406515
Ni 1.9117030654363907 7.680163033981855 6.88599788510781 0.32597114365604507 -0.5012992962098205 -0.4658545822489655
Ni 5.070531808036464 0.36725962388735256 8.352869730488491 2.908974398813635 -0.6311472049436098 1.0625541470376667
Ni 2.9169367415968757 0.5746140251732983 8.126770815173794 -0.6776618035653814 -0.3641329994377471 1.251074372801684
Ni 0.03820848471650246 5.425770433577903 12.894022200759705 0.8861147636975836 0.36645470559238824 -0.9643398060487586
Ni 6.317740287117424 4.594485185188888 1.341949512807212 0.04159762093612836 -0.39189731403520894 -1.6344826755292756
Ni 0.8672001199969639 -0.09988027272520243 8.341626150143671 -4.0479106214564675 0.108632965219071 0.27362733994700617
Ni 8.21246895951217 7.427745989271535 10.400182095954813 0.5729022052587875 -0.07247502724127518 -0.13358423584776993
Ni 1.5147046729485993 7.263982197325052 9.287438410402764 1.404659220141097 -1.6026292784641045 1.214996139021888
Ni 4.724612998295127 0.6438971494222975 12.73717696901231 0.711872130898503 1.000216979561342 -0.9457867256369196
Ni 4.85008550360783 0.8008159828739387 4.105505822884053 -1.378593890512613 -0.12923804306393227 -1.9355151469621117
Ni 2.8311723557246777 1.1270720973260617 0.25287153523403727 -1.7154009484418973 -0.15443665381674693 1.766634292695577
Ni 4.053264253231823 1.2561326857207393 6.290973187325902 0.619512706028475 0.6737907506457492 -0.04961046393827585
Ni 4.6859629033531505 2.949165087843422 0.36958635776281695 -1.5411873691085392 0.9105924371239738 -0.5379259462939188
Ni 2.5569784067706873 -0.13852852762457243 3.3808225228604716 0.4276847560474634 1.4357397435959853 0.4316331991722502
Ni 7.5240814199160075 6.676778600640542 0.36877581899481215 -0.20631225964011565 -0.40700845864503454 0.7018484281139138
Ni 6.316792665175261 2.7291419932142005 7.589957705279738 -0.35903475897923326 -1.3392565263655711 -1.636449569447659
P 7.097623945303911 8.225735666702441 7.641880947561107 0.6374736613822699 1.1077569688265503 0.8216803473725978
P 5.68011032281164 6.632580777241053 1.7508713813827923 -0.7165613088440563 0.9441553606810835 -0.37719548904866007
P 1.4558601104042337 1.2323869358884993 6.759786602688741 1.3428504143644164 1.0753029620629029 -2.1619504026043477
P 4.063964100986528 7.381680522626813 9.544237516579608 -1.8061269514735605 -0.5537767972832462 -2.2234627601865324
P 3.681097235713894 4.480917755537911 3.901867387641208 1.2201722839061888 -1.135762967121173 -1.0096652694584356
P 8.159852941189591 2.7567426323063042 8.847899152882313 -1.3296169463932779 0.44253133414199275 0.46792380607316836
P 5.588264596126149 1.317810913878561 1.7993335035220113 0.7551957333868026 1.5410081632181976 1.0962204289418604
P 0.9383389272142555 5.78743080781477 10.74658023679505 -2.663249184593536 0.003251159947446014 -1.2721502196353767
