# total energy = -381176.5470410874 ev
CRYSTAL
PRIMVEC
9.16751035099395 0.00000000000000 0.00000000000000
0.00000000000000 9.16751035099395 0.00000000000000
0.00000000000000 0.00000000000000 13.41757806482256
PRIMCOORD
 96 1
Ni 3.1272394855349925 -0.06039097481534982 7.789253142337444 -2.3979146807829417 -1.740110021152803 0.1924280454588557
Ni 7.385841430570907 4.65441837442909 0.30106195856297074 -0.9637505092041917 -0.17000391212738464 -0.47871421182045293
Ni 1.4187180732522904 5.797817775096243 6.4912766816700564 0.8036018926043322 -1.1477736184288039 0.5861996936986421
Ni 2.29688306278355 6.826064077523457 3.6141048780512968 0.7513840729501964 -0.40361048870707905 0.45695547998712266
Ni 3.4161077385037477 5.461168457878896 10.773268612761969 -0.7263338148497879 0.39127742106302293 0.5551189131334375
Ni 4.577035419071767 3.6109265021927035 5.214192060472376 -0.8878834255622322 -1.5923561786728706 0.4049415488136768
Ni 4.376111093450814 8.244772983265339 11.22494451657562 -0.05307913921316664 -2.5070364127129725 0.5743404803672109
Ni 6.046697347663549 7.252756681972131 0.34037407669628134 -0.7452190817900649 -0.33517620719408087 0.14444380427009315
Ni 2.850619026471863 1.7281857221087251 3.815315229996991 -0.28907684173285697 1.4714032584358658 -0.06106395719085612
Ni 1.1724787436826059 3.116110127899192 0.5673167136073198 1.8346800805209047 -2.0786096362931623 0.35510199958373034
Ni 2.538868667523736 0.6563414904322733 10.007567890667865 1.1899255692065054 1.655643625877607 -0.2026543511725542
Ni 4.753234969121258 8.570192100232394 6.232022237573563 1.4141262790912679 0.038753466619113906 -0.8759650768580914
Ni 6.257440076931899 5.17873579721684 5.226777218761031 0.20048716831790633 2.708007719756149 -1.2970873491966888
Ni 3.6454513463907463 8.934582303945566 3.5149087484282213 -0.18825154548366288 -1.0486707041873553 -0.17293625528283119
Ni 1.062019410771767 -0.10330867479228496 13.074571332313408 0.8887195483102823 0.12612726534909247 0.056392262746799655
Ni 8.094159954765699 7.988761087600298 12.804301207710179 0.1478309755747712 0.7992685553363008 -0.6106521703140515
Ni 1.3957992972312847 7.44572360855859 1.4490717002145104 2.166825728418778 0.7220850668757629 -0.6961457213021818
Ni 2.1126711086371155 4.927481839453759 1.784094701085407 0.3493897796903015 1.6953244894069963 -0.18748612807254805
Ni 2.4112660901491854 7.514855804548351 9.732548078922042 0.09153872874094557 -0.22935268639934694 -1.265200527790421
Ni 5.123272359246006 6.403955228278984 9.622308766261005 1.1116511616746338 -0.4536320720408445 -0.27190598638052527
Ni 4.998264187317033 8.521686802661536 8.713857989344547 0.5992045905987422 0.516864240527613 0.9993721150625433
Ni 8.709794948731544 1.603544250596088 7.472236048659689 -0.7261615509379817 -0.8174254287509858 -0.9244805079599756
Ni 7.282477750716171 2.7418006779241284 8.789077412245488 -1.590971125399886 0.37525379194125696 0.5779312830422627
Ni 7.966722392578499 8.22899569785248 7.023874199858675 0.47501233748883365 0.22160646679502477 -1.3491136216653088
P 1.4400417024622338 0.30572547110772497 6.433459943777386 -2.482562081720692 1.3321834215688735 -0.06307404564234943
Ni 4.834459111339702 7.044223322712206 4.210355171258575 0.23380943661911988 0.5576859025296653 0.5434497043256253
P 0.5286930755056803 5.97536494917577 2.7702465459703594 -0.7532113559669221 -0.7538399906898565 1.1077669961288792
Ni 0.4499239925746065 7.375179615965934 5.195930379738839 -1.7551820849945774 -0.02271903886407055 0.5216801738590177
P 8.95320151758503 3.6648773009461513 12.613650911003923 -1.516059206582344 0.3262166840079479 -1.8447125250562426
P 1.5182038962042717 7.1854029830016 11.572620515312195 1.2508167482649233 0.2829157072274676 1.7435375587771131
P 6.266616754850709 0.9195654665356046 9.574193087882506 0.4156651058787679 0.15837661230110142 0.2583153921802841
Ni 7.334219179461194 8.052915325438295 9.301803434872854 -0.3225924569917993 0.2788669910793907 0.4243011842872112
Ni 6.121760922887546 -0.048902250771540125 4.225772173512385 0.6427027709916932 -0.8990954922279677 0.589718762595494
Ni 5.987631078102213 6.752192278652553 7.325031500529893 -0.646657384764067 0.2828714842530935 -0.793506198931227
Ni 3.2688866888552157 3.057960609378697 1.8665188704163107 1.047652547335486 -1.5358672424472066 -0.03943583739811918
Ni 0.9204913850868531 5.687220929529279 12.908985009063725 -0.5864238938943062 -0.3508193130479764 0.6318732844763569
Ni 7.322493933648848 1.3878235631759746 2.6594846852160434 1.4343544332126845 0.8470787328410444 -0.0830476605507989
Ni 5.571783638466678 5.3175869098625 12.368497931417634 -0.05024784041195863 0.2768049663440394 -2.298200101099422
Ni 8.93548071996559 4.044439734385229 1.9493189076739592 -2.02617173020842 1.7330312599291509 0.919744278826571
Ni 7.653954439975039 3.4226716759561637 4.158858515041457 -1.6337411693775608 -0.8216561790028817 -1.184450147914231
Ni 0.3156795539091682 0.8318314751761542 1.84391087299815 0.6295019560307029 -0.7288339555638222 0.2585542476639676
Ni 4.6635858848374925 4.088837987293122 7.686755792216302 -0.2717625188241255 1.0251901045669118 -1.1531459384843108
Ni 7.824369290956829 0.5448159760609373 11.212721474948097 -1.7384367472154385 1.3344750458165275 -0.7288686654564995
Ni 3.179356782206759 1.913974488045405 12.561523530070708 -0.2723803549137825 -1.0360468447757576 1.5015085624616786
Ni 5.419648803239243 0.1484137427526649 2.107190770914973 -0.44371249893428744 -0.6718374835741203 -2.5830081402535967
Ni 6.386821151325679 0.8153904620097255 7.276674716627652 0.31117084541841894 0.7813510516259317 0.5122056587096792
Ni 5.68480070678146 2.55961474357795 0.6391808276987851 -0.2501266857219047 0.6572552148845714 0.7670965985894467
Ni 8.780027245970313 7.927118747614202 3.131179681508524 -1.483998064381741 0.49697572913380217 -0.5347889433268338
Ni 2.492728587638248 4.93361490391698 8.598399613008006 -0.8856943883307133 -1.0480510683254853 0.07422723404569152
Ni 2.878790785956883 3.1525784843038167 10.24885584786597 -0.22329568157198962 -1.022457536127097 -0.22044844193118163
Ni 8.476151778463004 6.568447867536945 1.09931559336627 -1.4509761009297657 -0.34552746852141786 0.5638984590982804
Ni 6.730639461682397 2.7253541642514545 11.8052011711244 0.10124952827080627 0.03205060067764158 -0.055952089885587517
Ni 3.821036673242875 5.726705396858267 5.919768582304014 -0.3112235530332253 0.8940180777050603 0.4787430081758594
Ni 8.758080226052599 6.861597347866424 10.775173621424834 0.008474870240230565 -1.2502619042027179 -0.6242522775959894
Ni 7.979666917275162 1.2999163058698056 5.158482016471557 -0.47753561813131956 -0.04459321322934256 0.4230200035819424
Ni 3.413229140235509 1.6097048175905344 6.135603863604233 -0.05987302220654849 0.23445812594671234 -0.805269253004426
P 2.3100659427508328 1.1775025393864103 1.1373506772996902 0.8882073845605543 -0.48861553009456493 -0.1730295863275859
Ni 9.413108012243347 2.4098176235046576 9.669592034694421 -0.3029939660345814 -1.4900656107320596 0.28999909643681027
P 6.458511082719386 4.085583521098139 2.2785727942448486 -0.5318506866341163 -0.823258490492995 0.24427768314029544
Ni 2.632423111241481 8.094911690619188 5.571353682228524 0.9968220949471801 -1.4116410507755688 -0.4543244701221789
P 7.492963789693087 8.783556737477548 1.445583462504113 -0.016865408296770953 -0.6460619172719132 -0.7741046544761636
P 5.583197188925139 1.5975120287473594 5.4203657025531795 -0.29465459293095064 0.665306367323822 0.6430660678683828
P 6.660003793985658 4.955011873210191 8.21583848691434 0.29894910654124646 -1.2071301060102502 1.1253487137663845
Ni 4.616327368682179 1.1783092803023498 11.008854378486049 1.9822490606835406 2.063393847784672 -1.1098207933341144
Ni 4.485562000216729 4.938134486548323 3.356433663002335 -0.2014752432627885 -0.33956585162134423 -1.062228645377448
Ni 1.0013121568473276 1.9951161226701732 11.70061087837702 -0.10011464333541467 0.36494726780892633 0.927068580402126
Ni 0.5982240581982072 8.970693127444264 8.509884549761761 0.31515476976683143 0.5265166760157126 -0.8851272029733337
Ni 3.3344893933377424 6.5529364399259284 13.14033080122392 -0.9329042132472966 0.32243202015453504 -1.1186203939036155
Ni 9.205188876180785 4.838171953055105 4.612305581866012 0.8709861355862611 1.4956004245073597 0.13373156005891162
Ni 0.22064547401150705 3.8762800909639066 8.006993432300527 -0.13099976295004537 1.580986246273032 -0.8942083393389954
Ni 7.384713826790674 4.652575704837002 10.42603540477812 0.9048701899282158 1.1114143630734794 -0.32925109995889745
Ni 8.134451163010626 5.641530057653802 6.780077095061789 -0.1010135010006002 -0.05501235168013752 -1.0205487491401586
Ni 0.0735316842347536 6.801687667347515 8.385449347233312 1.322239165871968 -1.4698765373786944 0.8226668796555832
Ni 2.3268791568398424 4.1265897951549215 4.364470188734225 0.5167197445299488 0.6562167463177279 0.05072760826185457
Ni 0.7762378585575213 2.747933742387349 5.748492902094877 0.33680577237770387 -0.1117699681861559 0.10614182336610106
Ni 0.7867154062032843 0.42408444773748394 4.234171446548563 1.0150216486743424 0.34866267171628984 0.8173660362679602
Ni 0.7346091105440075 2.68992173652298 3.355159379055567 0.29713647881253985 -1.022182942309472 0.33625838451466605
Ni 4.525770700867981 4.890811797820151 0.8687866263834645 0.43972651770334586 -0.4710014165572276 1.2501228075216921
Ni 1.7323844418757732 1.9185124056975642 7.945581196825682 1.6901696846789342 1.116422100700716 0.37935264460097895
Ni 4.085546851056505 7.073706036185627 1.8687603267111652 -0.1490144543599111 0.19029300139372388 0.8300120071667447
Ni 8.218324715737099 1.6373448614718673 13.43367921652926 0.1199918418753159 0.36274331817907207 -0.2567251648750289
Ni 0.8074669827637435 4.383371761694269 10.765660495874036 -0.12224104292080881 0.9333837239868763 0.06022834866343821
Ni 2.7924236703993253 4.165936749827784 12.598367754402076 -0.23646230086093475 0.8878201764244645 0.9781774832627992
Ni 6.49033151134695 6.22650889681395 2.6442693681912184 0.19459317143097454 0.09168245340766146 -0.18573314993718337
Ni 6.655594221479218 3.3833338887937097 6.394254168764812 1.346028812092398 -1.9523738703906635 1.459532732250525
Ni 0.6443311350462255 9.03955946563218 10.75272605543882 0.03674183550572382 -1.2291670312056315 0.5049397211758853
Ni 5.217046823213553 3.8753541724126586 9.850904305298679 0.35865346438041457 -0.26015681626439713 0.03483356273941743
Ni 5.3440260098803325 2.2921067898607728 3.351831572777317 -0.8225357533943577 0.6553559409793295 -0.46225323805095236
P 6.666787751687876 6.9416572162630015 11.294125300370546 -0.7421522699392831 0.0042880858523926145 0.3868335263590564
Ni 4.252734738374537 1.9134061024000844 8.298396501897205 0.8973795379781254 -0.22280845752292597 1.8666252659689337
P 7.03949288734147 7.32563838971893 5.210850502928514 -0.09544449155325498 -0.6268460064650947 -0.041980458196843824
Ni 6.177774411482883 0.46957821813918005 13.038558601176083 -0.6389412470667318 -0.5049520624710593 -0.07466792112753592
P 4.608810010147288 3.4352128301948577 11.761244792218193 -0.06898809713393925 -0.7077398538976843 1.3945807528591723
P 3.332637556235245 6.703760321164963 7.922193961022808 1.2256803582086118 1.3247971564071312 -1.22626888372223
P 2.6249057527065913 3.721596687842936 6.6167982341819 -0.1120576746299038 0.33998596987789836 -0.12968027280767344
Ni 3.821284196023902 8.835536521493188 0.10396873554168994 -0.34268639952819696 0.7999193015464223 0.7393813920623653
