# total energy = -340874.69059286 ev
CRYSTAL
PRIMVEC
9.21054937616999 0.00000000000000 0.00000000000000
0.00000000000000 9.21054937616999 0.00000000000000
0.00000000000000 0.00000000000000 13.48057002862262
PRIMCOORD
 96 1
Ni 9.00134102892493 7.584565102113064 9.377596579195883 0.5776677449682309 0.8229270752955052 -0.7607202627494576
Ni 6.827909254319059 9.291970706242212 2.017273356080791 -0.7828806008965807 -2.051258755084035 -0.4574393616020767
Ni 6.202080050900242 4.261693598455804 5.251423321114534 -0.21727210108572903 0.25020587569927233 0.18219788309041524
Ni 4.897258352642332 0.931232602052475 0.5645201020657478 -0.14428079632966764 1.5712795605082295 -0.9112678659244434
Ni 1.9687641552971522 7.94952391348468 11.076917163018601 -0.06947197874889326 0.33440847579012084 1.2454380004515133
Ni 4.216009273188208 7.519732044540764 10.321964345817737 0.10142359195482532 -0.2797085131440796 1.0023078006520996
Ni 1.7569123074181259 3.410611197709502 3.965606670589923 0.7944441373644641 0.5002595420913964 -0.5606485847024151
Ni 6.2125800772722295 3.078257731387742 12.769456940336882 0.540098014244573 0.772397956197702 0.8247564151947603
Ni 4.330570087236263 8.149880995651214 7.966895930800651 -0.6028853818844391 0.017203765472796177 -0.5981072437695054
Ni 1.3369020419891666 4.897985986048813 5.624120836133295 -0.022446501928974245 0.4629515496695575 -0.28835384752390336
Ni 5.1320444686496485 5.716159093613436 0.03822009599403541 1.184558134247005 -2.199342727209877 0.48753258144303135
Ni 1.1242396657586182 2.9458468725073073 9.566082184177457 -0.1695223445052758 -1.2239528339945438 0.03597564676366062
Ni 6.102191642124621 2.362846724026861 2.0662476896116093 0.6215546761591683 0.19819400140835544 0.8327006097425014
Ni 2.086189450223882 1.6201080164504642 11.328141346627746 -2.1644299744930917 -0.914614156688857 -0.8658223319971347
Ni 7.763507656810413 7.216345756236462 0.5791814546788443 0.20188584843764587 0.2912612509786855 -0.4840065705676438
Ni 5.415278074759293 0.7574672972004717 3.9576662559098432 0.5354222060354585 0.622251959336509 -1.4693949697565856
Ni 9.099341275063482 6.033711206970473 11.17378819579469 -0.38316636192011433 0.44616893089458 0.4269069973411745
Ni 6.1389969977232735 3.3763571643082537 10.078640050471094 -1.524109587690646 -2.3262996875491164 1.5559593852113913
Ni 8.290885297167671 3.838588588411943 3.9416104261101514 0.7143475890221891 0.4414553274689945 -0.6792263198390237
Ni 8.1951508461936 0.404150620332533 4.625898065827538 -1.0934940311496328 -1.6194913443267658 1.5515160047280572
Ni 7.120988937789805 0.2642921111675461 10.24039387778651 1.3328629641344014 -0.42250835405284654 0.7407499902751179
Ni 8.967980418820247 8.564982038223798 11.669307466662415 -0.16033810690284644 0.7164402098851597 0.034890127008965724
Ni 4.513528441493426 4.702547337288103 11.33334438601155 0.28577400261186914 0.7627511771365574 -0.3388677971130551
Ni 5.0495916299811965 0.8982100191125735 9.571245618198628 -1.1095631687973535 0.026671595753915357 -0.9541914047608471
P 7.928984388213161 6.2517893862771 7.997253901784924 0.33530656212435805 -0.09000840813934821 0.07170858138889587
P 6.824271087286659 0.5076965382943958 8.051324432325936 -0.9258223666998507 -0.8404838532323461 0.12195899290401575
P 9.012412109362764 5.40929121761737 0.308834328303452 -0.4753031292563749 -1.4174694845318878 0.5499710503839109
P 8.446681741099402 2.452511422913967 0.32498963203719455 0.2719540660096413 -0.41146957974018167 1.3219380896917814
P 8.151161262024642 3.8794097435704074 10.578715780151295 0.8416009975559248 1.5098199105408514 0.5844266609586193
P 2.528139244440626 5.184157757432724 3.040570005151865 0.25437286259276837 1.3934895766775226 -0.4828007231850008
P 5.726447277348095 1.469156321528967 11.632222110360512 -0.2026805764247993 -1.3731362098321513 -1.3996381127774218
P 2.3650572558946474 7.23140500458576 8.672280334031228 0.5248752837575477 -2.0931541097662403 -1.2817532899427797
Ni 3.0406142157892213 0.39466743861972725 6.139307393239708 -0.02156949864065963 -1.7413325807059947 -1.80223918638338
Ni 2.768553006161349 2.731729229463799 6.312020853344623 -0.5545967220813803 1.5346027739124861 0.29998089023987046
Ni 2.1768212568031444 -0.011916608877261184 9.046621932126655 -0.7487137252068847 1.7020543519316622 1.0917803908926358
Ni 3.805255609955606 2.5984617894845963 12.35382352800614 1.1786201714960152 0.050319831300474634 0.841665532245273
Ni 8.468206795161976 4.348051710090679 6.416064140976738 -1.201691451493182 0.7957942236344552 0.19490530335475464
Ni 2.101736857693983 5.851139695790174 10.20967116904405 0.8538379059417488 -1.9965665057474775 0.6221241755093931
Ni 0.9505010715000174 4.247804089886543 12.188928903328579 -0.2176500532504381 -1.3572732746579659 -0.20026682477698413
Ni 0.07227886574696199 7.302703867871337 4.615194486312724 -0.7296806198348336 -0.28470545213803866 -0.5625784547352762
Ni 0.3983894216521135 5.9087148403965735 2.4863426920955005 -0.1232525149044587 0.8003219363014797 0.3362756109058467
Ni 2.656847462442518 5.187749871717878 7.613273463691001 -0.7814590379587059 -0.3138044263865241 -0.10066305963971696
Ni 6.1189548421220055 6.754713017846965 2.058981487151205 -0.4803064960082373 -0.2898599997557847 0.8143275065519524
Ni 2.939915278662079 4.4196821531564225 0.05977278170495763 -0.6013722876740224 0.2228807055217581 0.5185678534822811
Ni 6.629817967317005 4.24026064988772 8.031332934746638 -0.15201441752849948 0.5173722905122832 -1.2650130943699631
Ni 6.781202558062612 7.77484584318227 4.413295558168408 -0.884219860667716 -0.09166342724426793 -0.6261235264767733
Ni 7.156735080201809 5.363045048833379 12.427548450016612 0.6072912242616186 -0.42091966940948805 -0.4328652718071384
Ni 0.8996275226727919 6.887906773430576 6.87918898837699 -0.02614194850269046 -0.31095898651792897 1.7297173650645694
Ni 0.43438977522891287 2.010248470015953 5.394519338410884 0.806974665731307 1.1421141061501814 0.7746764678192335
Ni 4.605062881918701 5.615985157804894 8.919985166695868 -0.17181731118703958 -0.34650783015681613 -0.27074487619288856
Ni 4.847134542540265 7.9296107055756995 13.224425846199946 0.7404885090836151 -0.36494238271291984 0.2061492516996901
Ni 3.7052198323888006 4.9164531376942815 5.150629515328066 0.13289029510453887 0.7344816407679029 0.786914147536006
Ni 4.175096012535252 6.772084114107991 3.4191447717741044 -0.0825187846305224 -0.49950415198261067 0.5159039334968728
Ni 3.971948133885636 3.00691281535492 8.835906666049649 0.05581016499108452 1.57031719659496 -0.04749547447780207
Ni 6.670353595442547 5.542917869025088 10.054739595705593 1.4257309532097318 -0.867830363566099 1.330569283004218
Ni 7.194562806789311 4.3098647720746595 1.0745819094586755 0.7278767338568753 0.4069544654786475 1.1372326096881642
P 7.357175057313385 5.8568410258991745 3.941920821626586 0.44132368698713675 -1.1071360474130998 -0.6971307109232704
P 3.3787611177144723 1.2503781404642078 7.8849201985936626 1.5667395065460308 0.41030666978033203 1.843402033774935
P 6.82727372640707 2.327819004471888 4.446539194295089 0.56590880466009 -0.47552655812109074 -0.5493509003014087
P 3.5850958464734806 2.0883262976960757 4.316734920908752 -0.45152762410333214 -0.23628592318407046 -0.288976825819883
P 6.305385573521483 7.1513008560268325 11.660491128729726 -0.03375267097041284 1.294508789836235 -0.2381335179157705
P 2.1044723908803693 0.019154258634373443 12.989715256698112 -0.8311327510347493 0.17929665028322025 0.08096558121078959
P 4.566028573353364 7.34374607621658 5.578206247129471 -0.8702713689074237 -0.6364727309215813 -0.33698652092994225
P 0.1144852875425731 0.9202278375706759 10.023922939358753 0.9576865623982991 -1.426165726754305 0.4393506224211659
Ni 4.535191653797737 3.9870718560810783 3.120994680831622 0.43200858023379796 1.035360360231694 0.35768415848860985
Ni 6.986607021327259 0.12724742485926277 12.901970957371146 -0.3143628699931554 -0.3467986219243576 -0.04790993630740136
Ni 5.717982782404361 -0.21082487161545055 6.039969775321145 1.0999292452520153 0.428601611434778 2.0755363966844773
Ni 3.9605270525687377 0.23301032207352676 11.77622168255782 -0.6491402990869207 0.20013184186101662 -0.5213932387462181
Ni 6.444768818334896 6.401073971748308 6.5041455464135405 -0.7846173810820294 0.21223093911739577 -0.468434941381632
Ni 6.346317255273336 7.458316100814085 9.2615832614997 0.23456354117632508 2.8187549031047454 -1.472671326515012
Ni 7.882775061626965 2.3189308242534947 8.878168351141955 -0.1591199182250292 0.9250428082213489 0.8667931805508362
Ni 2.415936331051543 7.201562824370637 5.141947651417333 0.13548788062838601 -0.2546487419619743 0.24515391509766166
Ni 1.6873818696267788 2.160712005816648 0.29072178281177313 -0.4432869813610946 -1.1915258238140898 -0.8230093505966664
Ni 8.19920348795121 1.9947194836447502 11.669697993959058 0.5081610563266602 0.183381104765239 0.35269518991445065
Ni 0.6937634529906331 3.687360577006972 1.708042053096082 -0.6125229049742031 -0.051473999509575874 -0.07842327440491009
Ni 5.186340657652163 2.063743341216396 6.073482359491739 -0.9367590682170126 1.240749336726592 0.15927315597344183
Ni 0.8650188831177533 7.0709664437316775 13.238930619472407 2.1685167429679555 0.9076019870370821 -0.14285640517831524
Ni 1.464412888562674 1.2850466485906658 3.2590221327661255 0.6829765309100754 -0.9565403646089978 0.037079421350800654
Ni 2.098089480112135 8.791064185001702 1.700614666020318 1.172481405588129 -0.2469079216742909 -0.4577442944370052
Ni 8.258316794315611 8.299165581122423 6.929215166654897 -1.02671374030029 0.9317107071598276 -0.270235797766954
Ni 3.351461049147304 2.3806507161119943 2.025913772519003 -0.675205885825721 -1.1231157106708076 -0.3564852530845022
Ni 8.45375544307632 1.4292009580187186 2.7682481369745835 -0.12114678141536554 3.8364569268247286 -2.354516259192648
Ni 0.303606420436136 1.1330081088341728 7.8333973060302755 1.4686822599602771 -0.998379412131971 -1.104133256031034
Ni 7.53377813245066 1.8716297008068166 6.543280249967873 -0.2312267634936082 0.20557563858440725 -0.34202562601574643
Ni 9.157505894834626 0.030245602280994186 0.7390305403681842 -0.4040971985355105 1.1916973163949476 -2.1958617106398117
Ni 0.16845726520447996 4.925617634396149 9.013580928087855 -0.8280402281523546 1.1715187845645436 -1.1179925305116294
Ni 3.302295136187944 6.600583683365524 1.1416181304592028 -1.2554915280327732 0.5194641400443054 1.1956856116187344
Ni 3.3349189023366987 8.978296234203253 3.920163661717894 -0.22738245004685356 0.2757346160979961 -1.3817982563825233
P 4.711334201462557 4.332872724598541 7.075236454456285 -0.32810207395611884 -0.13478494102409044 -0.6437055012245946
P 0.9344286627113169 9.092553100119487 5.706513806230326 -0.4096770066161332 -0.6052649378602092 0.3271721059426817
P 4.555565389179173 8.700579747213625 1.978880101757112 -0.13305433148622892 -1.851418476321508 1.239527291394033
P 4.778469896397135 3.6159327660291076 0.8657575691835722 0.49648233443715134 0.04305260821510005 0.1427551037137606
P 0.06950280614299961 8.639909857992324 2.6866104319323787 0.1574957523580449 -1.2217550550122767 1.7159604204897934
P 2.7549490246250103 3.721310662276399 10.6553392620734 0.3018940481021833 -0.3945841168387527 0.7833351719354961
P 0.7342115808964087 3.364945293540804 7.485464195315342 1.057604002121243 -0.4227124996438527 -1.3491964111871022
P 3.2826674553118864 6.302751356379037 12.409943405799579 -0.5443063958989658 1.2017356744675562 -0.5548931702758766
