# total energy = -381171.0792211243 ev
CRYSTAL
PRIMVEC
9.26690299789461 0.00000000000000 0.00000000000000
0.00000000000000 9.26690299789461 0.00000000000000
0.00000000000000 0.00000000000000 13.56304925032535
PRIMCOORD
 96 1
Ni 4.875030456152332 3.456369524787996 0.31078876330521055 0.8455615248655695 0.965074370221938 -0.1971928138373507
Ni 6.034384904481067 3.013485690993509 2.744510121245047 -1.2217393712829927 1.1189430673503569 0.9814774941703097
Ni 9.26350216411711 4.002523726924587 4.629326860203001 0.4752779324453944 -0.8649700112991685 -0.09504159968788148
Ni 4.929121369649536 3.314363501414488 7.733460470802182 -0.46838429064935466 1.2214858605112897 -0.7742684337475375
Ni 6.365055808425005 0.45887294843352766 11.404517266805032 -0.38359753592026197 -0.13083161280329725 0.3561731211607221
Ni 4.594122821949697 1.1883042536679973 13.323959789261753 0.006007125426028364 -0.7553613124303894 -0.06099068075075947
Ni 2.4663769978358103 0.8439220398713153 5.123848658239475 0.29212359897898077 0.2275302884786275 0.025452121524517455
Ni 6.982472495535641 4.520450942165085 1.038408388980197 -0.14049510403499033 -1.4147669979990602 -1.0013575209236882
Ni 7.2823031459043355 2.575216774951567 4.983525504472116 0.057743891678687646 -0.8689809322307743 -1.971616263560043
Ni 2.9522407282895466 7.128389152024761 11.235860556755728 -0.038905418815945905 -0.5438564528457408 0.29599053813355475
Ni 4.314864696501989 1.3746338746528013 2.4208690900060903 -1.1613295027363677 0.013457925277118758 0.2319471865994005
Ni 2.203020878137837 4.704714043754673 4.519682715896639 0.8002280910360927 -0.03853980794641104 0.29709508405164314
Ni 7.179459055105641 6.66644329851745 9.231038349115668 -0.738850973480192 0.7246960221360487 0.649910858704358
Ni 1.2062727788129486 4.37136500480976 2.413761375314921 -0.3297655777014708 -0.4508763636725784 -1.1800767014368838
Ni 1.9063687755384662 2.060069630646337 7.649342937823454 0.2406272308719017 0.2787983426249844 -0.16591791498346908
Ni 7.91568670708653 2.94177839466982 12.875701151659081 0.5548636025895218 0.42421608077257267 -0.7140619394609703
Ni 1.6606383055700944 6.473200567806945 1.1830258256522344 0.2790063448707324 1.4691332314547665 0.2289917035155024
Ni 0.2629882236442061 1.0106391870981128 1.1826217886763086 -0.03426612027172163 0.3491226420718439 0.12605990244626675
Ni 1.6762623042263025 0.5429728742963312 11.97443644198661 0.17488232326560849 0.7816223030094475 -1.0392964620613068
Ni 5.118277396085197 1.56732985807937 9.155682673034596 0.9153222384994752 -2.8040348232857517 0.49870788133356053
Ni 0.7597109111711009 8.304618630930577 13.391625789135874 -0.9866922056020297 -0.19591266157334647 0.5752174836555255
Ni 1.9183045467538848 8.863690896013047 3.0757064585957505 0.280457218384646 -0.5551163420302762 0.9591623756128772
Ni 4.1014201169952 4.785716043905276 11.392093129795319 -0.47240601021423806 -1.3897920732212774 0.07344433313307996
Ni 3.35965085695001 3.1868138469043745 6.070264499971641 -0.2029361440790311 -0.7420738512928639 -0.6907487186563266
P 1.0067192870793844 1.807815260883202 10.2085956187744 1.6299086830053477 0.17222020305241306 -0.6096126733059437
Ni 3.1075076900242857 2.5913226525698887 12.029746879934084 0.28875442539643176 0.07919100580887008 -1.269507639806207
P 3.8631865716489355 3.018563953901933 9.669559324922407 -1.2330717655766763 2.4189995264776987 1.4923315239481008
Ni 7.3696807753998215 4.841187725966998 3.643794493721296 -0.4510558266732361 0.9332803656397926 0.05067901441210627
P 1.3944650473243825 4.107267532862381 6.485361524768121 -0.385587055546465 -0.27610459784290514 0.36380878332910893
P 0.5468788739603834 3.094626694690876 0.6915176245095912 -0.9400927605759358 0.539710291887851 0.11003421644197178
P 5.013329718278815 8.200671778660892 9.538024902071745 0.5261700913095713 -0.23161191474716888 -0.4856528479218151
Ni 2.0609499864425054 4.956662605714929 10.097894120822323 0.35633407221861857 -0.3591856827348007 1.3085809516585851
Ni 1.8086492821637827 2.0225664737295665 2.8014209533609256 0.5098227602997994 0.20103764150473766 0.40074962221951627
Ni 0.5533786798070408 6.579853355786957 11.946619052208312 1.608481109259191 -2.5957363864535425 -0.49285142255278347
Ni 7.053049229678988 0.1877140963105678 9.082658549777902 1.0147480832979814 -0.24147749468733895 0.17696645948814682
Ni 3.3626162659476293 5.6933628697548135 2.613030373122776 -0.4694417853795915 -0.3882090665503443 -0.027947634252861543
Ni 4.244788375126991 6.134078248219791 0.17016999532840082 -0.01808385408490434 0.1047390294813035 -0.4903913910480651
Ni 0.6579297341599905 8.299688638472032 5.521368221202564 -0.7583486771934875 0.05267830423032218 -1.6697396989593567
Ni 0.2392010100317381 8.946119999243754 9.328366779178792 0.868056363533976 0.10840465125834879 -0.9209105312205301
Ni 6.659335583826281 0.7150073705319855 3.270770135768856 0.5200099852454464 0.5572974088419951 -0.34770673556092374
Ni 3.9394531843064646 7.952615316010012 1.82271088095437 1.0074821457641874 -1.4458413508063614 -0.011074512646606733
Ni 5.60479907666028 5.811552952116189 2.2201488951700252 -0.551578761190663 0.5565304487689834 0.4156337384202003
Ni 8.915261211862274 8.606302661922783 3.2063725726242995 -0.19406918060670447 0.9804770779302534 0.2135278035519484
Ni 8.400883220515801 7.973762388924286 11.122405861887426 -1.9429124678674476 1.406112407647856 0.09071314751585667
Ni 6.78792313148556 7.685913844286598 3.3349777273995027 -0.9040507793507141 -1.3154308847008829 0.5980833325101054
Ni 6.310121606744102 2.932038879493263 10.918173510769805 -0.5234094978452986 0.31038794450580737 0.2839947992242593
Ni 9.031255038184788 5.311501592989467 0.2961637368050754 1.8012724515947367 -1.17735004653434 0.10622127045378481
Ni 8.534993842433149 6.024367382210984 5.640397884986392 -0.7214687734480025 0.4415864537302201 -1.749838818404793
Ni 2.5969198620528955 0.22093038384515434 0.976329404995654 -1.5491544464744158 2.885682003944598 -0.06128327229051381
Ni 2.0752210172435497 6.839910457975079 8.844287854265497 -0.03618519167130542 2.799323019632379 0.0006718292560440042
Ni 5.103737625093744 1.6472476305652182 4.846742307695664 -0.8156143436841761 -0.23986412745363206 0.3926362490837625
Ni 5.623499687151519 6.48063262410723 11.319585173042272 0.6501831385291383 1.1290151068743781 -1.1230064387864531
Ni 6.41230774742145 1.632364984158415 6.952296678913926 -1.1171664350659083 -0.6301809843755986 -0.6744898335953029
Ni 1.449816259645576 6.386100945404987 6.6524447146680625 0.15576154327575753 0.14359096935149465 -1.3654126159356486
Ni 6.021485375341422 8.433252513105444 7.436769447209717 -1.2692291893338399 -0.9932863138797797 -0.17593930377521314
Ni 5.702435167906906 8.088069638879404 12.959914133739918 -1.359635090021923 1.671057646439832 1.304003873810864
P 8.162158529304307 0.6602900143840332 12.667332054989782 0.3690569191019257 -0.6549628193059688 0.973468250712588
Ni 6.357030670325197 4.491621606566352 9.065379482224897 -0.20024342773821643 0.94262015498348 0.5680294505475185
P 2.0921423823362164 6.931096784651881 4.17294300194685 0.9446505551499472 0.953963605020757 0.7091722154688367
Ni 8.272694149690578 1.3827053472681972 10.596715761905347 0.7259640902151949 1.2969971034757277 0.6664741623796779
P 7.8180598827430225 6.337616508293907 1.9030178633711559 0.10223837454663684 0.7030110809634473 -0.5851128883923664
P 8.278226490851761 0.5996844679951827 7.023679633628501 1.2905541760638612 -0.7410420675942399 0.8788524257082153
P 6.0231904855150535 4.6627164388258855 12.433586470823352 0.8918696639034898 -0.2595749756189981 0.5708664057756814
Ni 2.730493003589424 0.4720597515698173 9.250555373771563 -0.033117094268942965 0.3001917206990959 0.840413662116043
Ni 0.19762504919479953 1.4528928714806062 4.418556708935941 -0.4189373488721366 -0.7772324014718679 0.41217380489605787
Ni 5.684225703280898 5.936563475172091 7.144702608272916 -1.3862046129803354 0.7123994641568828 2.2640784768253654
Ni 0.8712260432168978 3.6059744087179055 12.105577948145088 -0.9435205553105621 -0.9054628292068923 -1.3585937932416021
Ni 3.922226011410918 7.500158771295084 6.935329905995984 -1.5431830593823292 0.4797071718613416 0.8073243357612417
Ni 8.590400656173047 5.082516416954528 7.782721474394514 0.24738640397260622 -0.8831757356739178 1.1714321383880082
Ni 8.965830702174806 2.7561345245157156 6.613302242589795 0.1174233098171913 -0.6398704437492205 0.313850192022795
Ni 4.077761713336066 0.06019131581949561 11.126976298505008 -0.17098967307942164 0.07067448369742668 0.7144838574897373
Ni 6.9306241725928865 4.319766888251179 6.375446786890727 0.7140120600596414 -1.1542193740541475 0.14570621592228455
Ni 3.957625581320002 0.7973530716346348 7.01181151080584 0.5156177697150217 0.10962078305363702 -0.012825948120074685
Ni 8.561645455799255 7.29474859679122 7.46586196285699 0.3653252199736353 3.2825286915652825 0.513995146509934
Ni 2.264543847935326 4.9391481588227375 13.185752269476133 0.39542718156533835 1.4855872632457319 -1.032624192247454
Ni 1.7388324340760761 8.984966857112571 7.343943805371419 0.11815144623246747 -0.6422219747005328 -0.500766306524486
Ni 8.354131694287705 2.7103189555024927 2.6367378913684325 0.9588191333408455 0.22120228937807065 -0.27558652055590604
Ni 2.701292991865988 3.1123913479672405 0.7840133645969053 -0.5032829022987525 -1.7502813052588502 0.7741756169234152
Ni 7.819792793626005 5.056893429834471 11.164695374264417 0.5670007521726881 -0.2657582216115746 -0.12143268808690054
Ni 7.1348018489821134 8.867796134094126 5.496547747892488 0.4482193856657055 -0.08775432199784887 -1.1259302973014673
Ni 0.2577839308533837 6.32350301484586 3.3083807887617906 -0.7078771508064969 -0.3290263855426011 0.31461175277916786
Ni 7.411150166850907 6.66537760465893 13.007411645668979 0.38716982665255256 -0.49934988579293355 0.5947128733759758
Ni 7.5855347497171755 2.7353766615323787 8.537383776747168 0.6413953650341793 -0.5244124851885161 1.1625579758268303
Ni 5.204014783728874 4.078651336035352 4.814868794422812 -0.49139720660476016 0.3645780573949657 -0.6505641760176408
Ni 4.349420978227375 6.017667411256986 9.27553894457651 0.5235370245620984 1.1299648723821571 0.17079555479074457
Ni 4.400268475633434 8.690918754289235 3.966120551407871 0.19303482580491915 -0.17270999820463806 1.025980718789007
Ni 7.85052184436384 8.695932148875835 1.0846048277115514 -1.4884838680672368 -0.8270153864322659 -0.39373848100900577
Ni 0.6768156827135803 3.610672728598509 8.924093497223623 -0.47621124289294114 -0.8404591706419978 0.4262505947040982
P 3.7697483875145656 3.5195698040497647 2.6613961938739514 0.08269567652801887 0.3791644398495728 0.6092144094262605
Ni 4.075037243819503 6.2515640459442325 4.957403031274022 0.2480667178690825 0.3737324702007241 0.07625069223362352
P 3.280400301488626 8.336283638883284 13.052522930045267 0.523852241809672 -1.480876230923308 -1.642470064610126
Ni 2.9286471929522357 5.057699650405699 7.727126542521329 1.2976702182833522 -1.9029356703641938 -0.3018264280890415
P 6.3023096074159985 6.317182986919684 5.260238938323741 0.8694149344443995 0.564253528444854 -2.2784645703437083
P 0.139485425725532 6.511000265623478 9.61352977529301 -0.7475325604145899 -0.25208200967606265 0.6027683966906006
P 5.610572357302521 0.005027294941276981 1.3917452112593782 1.0263635560497226 -0.7628082556267379 -0.17999316212961258
Ni 6.726882040650184 1.8788646070855444 0.9192054341080712 0.10650229202931334 -1.4329745221460224 -0.09004286092170943
