# total energy = -340870.51687433943 ev
CRYSTAL
PRIMVEC
9.24299112927273 0.00000000000000 0.00000000000000

0.00000000000000 9.24299112927273 0.00000000000000

0.00000000000000 0.00000000000000 13.52805181355461

PRIMCOORD
 96 1
Ni 6.4793368221202154 1.7322382213557372 0.6725902855025893 -0.9380685310570555 -0.02414780089079712 -0.9230358050936491
Ni 6.068827854529881 7.7977755710230285 1.3596504737085011 0.4759623601069286 -0.8339918177500991 1.6202320791475322
Ni 8.552964922969549 4.087435562736094 4.056129551585564 -1.2218707546545347 -1.0781615145576207 -1.20974543214591
Ni 0.45717035999990674 4.550167430533247 1.589559712195999 -0.2060011561576001 -0.4532692893847871 -0.3044517815270305
Ni 2.5927791868522228 2.1329588612789894 7.588804480471549 -0.37047796781916836 0.2966142877604827 -0.520781059083516
Ni 6.384771779285534 6.0314214691959 12.142211579415857 -0.9388768858909636 0.8759900165587559 0.46259313788887424
Ni 8.809799919084034 2.5052018453549487 0.5236616657021695 -1.4926009755594036 1.7878947447362499 0.015102402859077216
Ni 7.70263746273475 7.752115194559014 13.19462595036602 0.5021819559250901 0.6363215500556976 -1.542598133413137
Ni 8.807738732049323 9.062521784120284 10.630140483836469 0.6661088086204593 -0.24429336686957923 1.1667128785354681
Ni 1.192623152864724 1.1297153548456795 1.127860286514439 2.1478023932387393 -1.29909358099344 0.5916707441155423
Ni 6.534998115048616 4.87832134664699 8.005778920397224 -1.061248797962682 1.5665582437731602 -0.9720875683149773
Ni 1.913973914075463 7.678254451983319 4.185903920749066 -0.7109676168063627 -0.5943048393042797 0.10283769869353257
Ni 3.014287313955145 1.7547264189138236 2.8982360138070526 -1.1921889113193853 1.422482878586079 0.893999565762299
Ni 3.8474228105820343 3.6696616040727394 4.49556076289929 1.120970896413663 -2.663228872878562 -0.25523135393832175
Ni 5.7956789789702565 8.919116775853244 8.894559072568377 -0.4192988459766134 -1.1300993410774924 1.1608530773205814
Ni 4.7872593974722 6.685178235855761 7.863978495400255 1.4046065125262905 -0.5843610978280065 -0.7219223160456534
Ni 6.320301915755879 3.355510819607373 4.729393651145689 0.6424142932169968 1.7677239262153297 0.36526068528428707
Ni 8.385518894624997 8.75481336451229 5.097761973316039 0.28016359840362715 -0.06650775391424676 -0.4479730739828543
Ni 6.41330489307995 1.6767433022687048 3.3481118051621417 1.2377401175866232 -2.0301564258877813 -0.8268960872455823
Ni 3.584265608495609 3.600533272984812 12.101018340592544 0.5512424608971668 0.22626736260580385 0.10066280252940082
Ni 4.524823148698363 0.32962909750719604 2.121049267134479 2.70884512805578 -0.4239687406484569 -0.8222557602600936
Ni 5.185373513880704 1.288214167721168 10.659252208879193 -0.730055229565433 1.4001978419356338 0.12370682883305793
Ni 7.3293777496282155 6.379327657476363 4.203558033916327 -0.3392233806802609 -0.514278739188624 -1.1577973212133932
Ni 1.0310279379415745 6.6559149257575685 9.317418524982845 0.08449287763775772 0.3243937718665962 0.22856747149389023
P 5.332558905543247 5.138391389676943 3.456458147856711 -0.28719479421879573 0.047508072883292375 -0.9670636327378248
P 7.213655499966382 5.868985142074729 0.6735561780816356 0.17763237520691988 0.40063983611452936 1.1302219826982858
P 5.046044664727152 2.5877972146024044 2.0131502852133627 -1.5022423553039097 0.7324949493551772 -0.09076071292434046
P 7.824155067870862 8.120291262512673 2.9585714873787414 0.15174110926245477 -0.7296456528318401 1.7994017169345848
P 7.386111229534313 1.5682213427415814 5.575505383100076 0.1584941117155722 -1.0368842530753883 -0.39346003053663847
P 5.178025335887002 9.12817475052188 13.590822146103214 -0.672170698543823 0.8731204083204447 -2.6412199727076384
P 4.448161779792992 7.501112525883556 5.6363279623073215 0.5283598998720385 -0.9111840479613855 0.7690709487069981
P 1.6017271857946282 2.929002234272258 13.350130958396026 1.0189474660913096 0.5407359049388881 -0.07844384323020039
Ni 2.5061908454119632 2.0095187139759716 10.45756274678487 0.09531233685076487 -0.02650267427621887 0.3987958409272551
Ni 2.63770936701246 5.315561044750267 10.716841589769212 -1.0026178756933508 1.0665491271296728 -0.055727118358974995
Ni 2.257905616145496 8.161551975171653 0.07411030333774593 0.07456147745665868 -0.841345429901693 1.4034191770864088
Ni 1.4339853817320922 0.6337345991504794 12.276652734829698 -1.1778467836651005 0.942242717039403 -0.5879385307666196
Ni 8.11582689776933 6.792979242070294 10.795506839163934 -2.0534850733113923 -0.5967396739980174 -1.3553788858487303
Ni 7.325218403594044 6.908248585163962 6.506113767589092 -0.6455032165549657 -0.7475461872613448 -0.43356486897732427
Ni 2.705802483087438 7.019783759818064 6.921925439223437 -1.8607886046824986 -0.05617269053682584 -1.0048848173506564
Ni 6.641921037100379 9.013423014934688 6.703758496739964 -1.3468955309680672 1.465121282081896 -0.14740083001588808
Ni 5.044713673996218 5.51818589755272 1.1543294403767865 0.23388399861079717 0.4418211954488455 -0.25687300330680274
Ni 0.3355529305589747 2.570577522020935 5.485178251724655 0.07016437683022755 -0.9740567762262062 0.8885768520848311
Ni 7.486406926904963 4.217271859940548 12.99799610164749 0.9226133728442497 -2.1124209284156525 -0.5323227411745284
Ni 4.169051174917723 4.123279882559464 7.01993626917265 -0.666588319360039 -0.7095661084731457 0.5704830542943337
Ni 0.3189839445570735 5.719627647483231 5.186884742939787 0.3073974944189158 2.219254121421823 -0.22119251918605776
Ni 3.730619130951317 3.5424965313213415 9.313387656526174 1.0431657152087261 0.6804558213707507 0.1532446903911748
Ni 1.8343640309814238 -0.09373687082432233 7.928587928096835 -0.38570378362998736 -0.6712283892352117 2.155040048637759
Ni 5.128547604062737 1.746823661448898 5.757579369297248 -0.7914732276615982 -0.7272792094821926 1.2857295009817082
Ni 2.5324501833743644 6.305078709270811 1.6097168273767117 -0.1839305495108058 0.21931664231958362 0.11644629061590267
Ni 4.99799959653688 5.31367547454811 10.526122633914795 -0.09303948165618815 -0.2730915220481942 -0.5233778732764147
Ni 3.099766496452959 5.648271755519225 4.651864365367855 -1.1384898791340328 1.3873703511536621 0.8352544865126066
Ni 3.489099771233769 8.964130142934163 11.784461605521189 1.8507836709509868 -0.36846762225735896 -0.85619946419539
Ni 1.5667609501340278 3.8401578195090154 3.777951564521068 1.0720921684350893 -0.6051494953282675 0.06284290346814983
Ni 8.85795590316855 0.8999558528154117 7.337276809896666 -0.4866357806603748 -0.3918466633029316 -2.2966306997297736
Ni 8.22091970756606 8.012231452544901 8.343913418394742 -0.13742623530167944 0.0901701305281931 1.36459963311605
Ni -0.09408995308766756 5.864770338093436 7.463872514390943 -0.13419050197320115 -1.354268683503687 0.48247804973825936
P 8.857188734900026 2.0467402394862115 2.733031410825361 -0.8431994523912963 2.4099063059271786 -0.26078750786986055
P 2.747386700437964 5.368199879560502 8.317925824373239 1.3120252014534435 0.38884310058991745 0.5787293534635258
P 7.553076622337136 4.774688929457815 5.985323899248738 0.810179802932166 0.341101057318948 0.022817769225463927
P 0.9512424380149815 5.88858028339127 3.140442127769798 0.4042884886107102 0.46765075491743974 0.19759956235746615
P 0.005725108741257149 3.345269585372124 7.642984121912665 0.5904759524764928 -0.7605233162473031 -0.25575020255626923
P 1.9177080825150299 9.2676699735168 10.166073928111908 -0.5779623933905143 -1.878824636248603 0.004652154060030698
P 4.551581608184866 1.6474799921705128 8.545684218811513 0.11039211400202278 0.20851286683586026 -0.34989140191706836
P 6.3662857969114395 6.718619377970499 9.425656724680525 0.10163879328942496 -0.04814339247444612 0.09237613704057639
Ni 7.19231343331549 2.6725184718228805 7.506674957979921 -0.393667004341122 -0.29760647647042293 -0.1278452764814637
Ni 3.397316868746388 1.5583220991802536 -0.08356218612562057 0.7741915577630151 -0.11764365335811351 0.6073246486027154
Ni 4.127753490293995 9.073077280055891 7.358773234500382 -0.5666631663276112 0.39220198975982135 -1.4468155417941728
Ni 1.2990099814276392 4.067017795203906 9.178782900168322 0.38003732937282936 -1.1203340341606123 0.429431563535241
Ni 5.971092465718041 8.449545094577676 4.300500374084317 1.7324892713827516 0.7443878441380213 -0.0017208393458486492
Ni 8.271229308597157 4.53494422404818 9.407880604029597 1.3829737647478633 0.7277834028121208 0.38874514155947243
Ni 0.0008743869662946825 7.213747929878253 1.3004611310440057 0.8434707037748119 -1.1757407930656911 0.9161547617030995
Ni 0.3891345504702884 2.8818629792183166 11.421748145359075 0.06482445267455288 0.8545768409903025 0.595149189582446
Ni 1.4312124843759781 0.3069726775095055 5.701857072627013 -0.41726998847204266 -0.2827848380765582 -0.5762456678097237
Ni 0.6561128051134398 0.3618843638526353 3.324180776679757 0.6141231595817875 -1.055377941004202 0.7622510975716872
Ni 4.323575501582781 7.1738736658973306 3.4055385094072665 -0.0364988662569823 -0.37770508169522693 -2.0108068177165754
Ni 1.2422302865656072 5.176777532076751 12.92974677902145 1.151362621331643 -0.12171216700053233 0.5880981962729356
Ni 8.187145817768586 0.19470915514986536 1.4117060757748332 -1.215979843091396 0.36621970676344673 3.850684640388336
Ni 0.2143079936628806 1.6147043454212426 9.307070072049827 1.8805781286045997 1.9369230830532318 1.0899433376838972
Ni 5.481648353390321 5.283820613013946 5.664181716249489 -0.48906238782399647 2.5497581199512154 -0.19322740143169947
Ni 3.7945344150097493 0.05235877217726732 4.617313140011553 -0.5848166973081863 -0.08448002212195128 -0.24780909333232157
Ni 7.024664059164825 3.993600716205189 2.217504501666912 -0.7483828242300273 0.19420467774330424 -0.9705590474855931
Ni 6.493903776231003 3.392048363769771 9.795039927283213 -1.714306686936454 -1.9073291714461988 0.0027611076849049223
Ni 6.130071914135257 8.539211352083221 11.478822691639975 -0.03615768086747967 -0.2617750685941104 0.1963950005264037
Ni 0.7854204032219954 7.450294560337169 11.592025301904217 2.775554456457871 -0.5613695220288397 1.7069222215469249
Ni 3.392750831099987 4.0559816637265715 1.9131642280474777 -0.5088015181241367 -1.1700296016135268 0.23326564830050794
Ni 3.338170968140472 7.5714424458258 9.454052117906254 -0.32495375813512417 0.5812757740344634 0.6471150411267759
Ni 7.506630591622223 1.5833706052971521 11.572247149362173 -0.8322051581633216 0.9587769672490004 0.25380336324254354
Ni 1.6993054437562876 4.452367340783099 6.483454574694046 0.9685718418522351 -0.8331022160562942 0.721671633487428
P 8.673724602828322 0.5788977810359648 13.135494838546004 0.7044403572108061 -0.7693601978126428 -5.278757354357367
P 3.522587128304441 5.9802799989579665 12.588975255638267 -0.044250485177943145 0.25438160434351675 1.1951119985034515
P 0.06188644749287576 5.082683881792609 11.221816700188526 0.486698001356878 0.15785082170461845 -0.5866712340184219
P 5.826883317217729 3.305423050364763 11.77334136282405 -0.5005886432960411 0.1337295031763826 0.8523440950050418
P 2.6998130247982313 8.705437305591081 2.4367537984183882 -2.0061256101908223 -0.6535224873150164 -0.5570968627954147
P 2.815535274460065 1.804786459182872 5.349681546717252 0.6368177729658258 2.2939765499363785 -0.37150512353210213
P 0.5318065895361958 7.812250095221945 6.758709003646079 -0.7925746882558931 -0.11128325835772447 -0.48805682937761746
P 7.49174013281989 0.7794022916601088 9.338035016825554 -0.4322464072762169 1.2886003947716 -0.31038974427802024
