# total energy = -340862.1169572873 ev
CRYSTAL
PRIMVEC
9.38225807753483 0.00000000000000 0.00000000000000
0.00000000000000 9.38225807753483 0.00000000000000
0.00000000000000 0.00000000000000 13.73188306965588
PRIMCOORD
 96 1
Ni 7.886360106245376 0.12291320821198957 13.609916485565819 0.5127085664880268 0.42244356225318214 -0.9152052533056367
Ni 7.308760161421877 7.227838186792592 6.50435351344611 -1.445680142638149 -0.425804508305615 -0.5992326156232003
Ni 3.628644547214344 4.925450855769142 5.7478498597735 0.4905921942049616 1.1870487618793428 1.0802618487300748
Ni 3.7730656435005567 0.4807346992971062 7.170280849081489 -0.16127090312976095 0.005681109545177313 0.6481645654372128
Ni 4.380651284662048 6.6568808805821424 9.815631927535222 0.0899047926819484 0.09194290615789973 -0.23796896731344822
Ni 3.6752649868587404 0.22055061356585814 13.365035800740985 0.18416143457468928 0.48676227893591006 0.1857254366276995
Ni 7.534121996853232 9.186975611518955 2.278517928628742 2.282147161401618 3.6081591640524575 -0.8349027596001428
Ni 6.27730287158771 5.946334340918417 8.552875709452842 0.09264584576219527 -0.22683634773539643 -2.0627359024856995
Ni 0.9390983427906106 8.538736646755297 9.747632136750218 1.4665256186285907 1.1632668289683967 2.9171065410024664
Ni 4.7177182829845625 2.254218818820929 8.90306661016509 0.8446379846100358 1.3480813237460525 -0.5427902163647554
Ni 2.537994592112216 1.5321790131953628 9.424904981444909 -0.5752473084521964 0.3908866133825075 2.040107623563222
Ni 8.118355198031848 5.077837489036255 9.873375033953302 -0.04061083154282683 0.1318551689718052 -0.24454070699369498
Ni 2.7130581427913847 2.745473843932739 7.530743445773347 -0.319878657605062 0.48846177812552005 -2.2417070511087003
Ni 0.8751582550110654 3.9078699254105356 5.563183568104989 0.1372783968699055 1.0803963174254103 0.8562822537171834
Ni 6.185159716476498 7.946556673111635 12.965437929779718 0.035053134949391246 -2.0160207578173472 -0.28950261641636593
Ni 1.1810104812070141 4.610657337767778 7.769993837615567 -2.3078237402321156 -1.5821697250581719 1.930906444545507
Ni 4.167120476477945 7.265292160441301 0.9878279140172285 -0.19278568590859058 -0.6156460239842171 -0.9812998309418647
Ni 2.6670850789440226 7.902300562465104 6.1748298504977335 0.6973397416102829 -0.4929123576977059 -0.03345776543781334
Ni 0.2491130213761691 6.817073552445379 2.792103665835063 0.26821953866787357 1.0076443823736647 -0.09862546038439789
Ni 1.2452695657561126 3.0118079997358125 3.2779376223160552 -0.6847513634223111 0.21344321425794208 -0.16620407876532023
Ni 7.278774465083884 8.436104127280544 4.31790837299412 0.38058883100092517 -0.06629898033755033 1.8299086272741907
Ni 6.428169579070481 0.5308913119545781 11.61640434424273 0.4635130785999823 1.8094251626088578 0.7768122832153138
Ni 8.192578240500517 1.6336012213973998 6.192007826538169 1.0086813082786112 0.14280241201192825 -1.04359380388508
Ni 0.16989674123820062 6.200396503351623 13.123271901999846 0.8496768325855237 0.991807415341408 -0.48059960176862393
P 6.035456408976803 1.1571607815539544 4.645056448235119 -0.2846895112984387 -2.37970638530503 -0.64022114222042
P 5.074600610051084 6.683001086653786 6.374848330813884 -0.7939057483624907 -2.01141488361422 1.5905412369513188
P 5.3476149334989165 4.626260032702097 9.81506899205954 -0.8091310499526775 -1.6313682982700095 -0.425708349047383
P 7.026598136494212 4.927824567024935 6.336535880564761 0.8708719786059002 1.0434181975391643 0.04067073824648479
P 1.6413884954776672 5.987362954837705 6.309361108702006 -0.9705397642118835 0.7192524825229742 -1.7765993743280888
P 7.819398931413004 5.7511552292415455 3.1646224639644434 -0.7840154858319723 0.0701720901397114 -0.29542258144522665
P 4.265540362143011 3.3725651993266106 1.9684924741064038 0.631775582556228 -1.4708005918548603 -0.17371838486449437
P 3.285150702211127 1.922190093005768 11.539876081001141 0.8387036214034717 0.9235639096829772 0.7171004691769779
Ni 1.357340636706467 1.2332884223820144 0.32998808471581387 0.183307056994194 -0.5565831563837899 -0.5288170420141151
Ni 3.1823023908040287 2.684188935146827 0.13728401268035778 0.43640310975706775 -0.26721937953813335 0.2696228467733034
Ni 1.46665332382598 0.5159678924942487 6.018848874218391 -0.6804583924739119 1.7424774929437152 1.444596422655667
Ni 5.201486266269802 3.0863312744581792 11.4771350457848 -0.8873113551088461 -0.38902359203183967 0.2857254087621208
Ni 0.7340218872254572 3.9084797721758577 10.055336420661162 -0.03068971577437295 -0.9839547520662086 0.03970863144353161
Ni 8.957654463241973 5.964329511624384 5.2230044748277455 -0.2378147011237711 0.06976302762675081 -0.4484261023598729
Ni 6.2598894008732815 5.34049379973154 11.601806489132503 -0.13246709152419123 0.4860518831324468 1.303512535996742
Ni 4.795506583465885 2.342655982050568 6.03484656221148 -3.9442740810107235 -1.637904556726631 1.3352849433123326
Ni 6.943246157061568 3.8959075465522934 1.3290484379244834 1.4286391279954622 1.2202190779837243 0.014856348286542156
Ni 2.5133849295669854 1.0597823265188995 2.801647298599458 -0.2302572004914873 0.34994462375250696 -1.2667997539567408
Ni 3.861258868024067 7.855248538956018 11.70913576692603 0.08006852331781694 0.10522702486131554 0.971572576351772
Ni 4.975064235692582 8.485398510434429 5.520299143567536 1.5794479552516347 1.0725174288979658 -0.8387915531315877
Ni 6.1971220953347395 1.007673265986604 7.188887743004364 0.34007878670202074 -0.5059126266121158 0.03348579046227136
Ni 5.022923133383477 4.211817553247093 0.15846164527551396 -0.698485682289268 1.653256099482037 -1.6165047508946158
Ni 5.658336551559515 6.142282797745387 4.2372200165872425 1.4765367230076893 0.13514309569445757 1.0887308054330347
Ni 2.0792209439472567 5.85416303903342 4.186466692325548 -1.0377376022146194 -0.1652381153076251 -0.20014392604587466
Ni 4.739400681056247 0.937359810396546 2.382165608411308 0.20157268807260126 0.1744048694085577 2.595525555994317
Ni 3.4831444912664082 0.5831129595820099 4.710942416308938 0.39958491248745376 1.5351154518828465 0.9997248704162719
Ni 8.887428262650644 3.9437007684376937 12.565647722530922 -0.8844306911269413 1.7167127252747854 -0.44529706981258793
Ni 4.055452842618495 5.2282069368488395 2.949814730476334 -0.7617659304051526 2.2244454358147756 -2.1060312228392246
Ni 8.00687520933096 7.0050377077755925 11.27528983985006 0.3414165316768378 1.0735607825608156 0.37872838075341875
Ni 1.9169735575977815 8.335047827137698 1.011909355441111 -1.0618501789921067 0.7088438855951404 -0.3548981111030404
Ni 8.008883012527559 7.406729698706399 8.638933532071933 1.5505716385369168 0.21109836817484934 1.9435205337650918
Ni 2.350593372257684 3.993070209655003 11.895092119059644 0.20227177102215488 -1.6049191029395455 0.6485833981421862
P 5.43498251932476 9.065456606835072 0.824684522035626 0.4598302304317564 0.5676777236350545 -0.25307959770264155
P 1.1305151690383406 3.468404964061468 13.831987963141811 0.03902420378199731 -0.14789242494032592 0.43819568288111627
P 2.286550079640931 2.5000433587933224 5.157818423195358 1.944091575777213 -1.8955756304546965 0.08040250961846798
P 0.5622017831120099 6.442515051442443 9.863790119254023 -3.3856042173012333 -1.0792694029098187 -0.8733181261535475
P 8.727789144005161 3.2154499080637695 4.420732290530605 -2.2192062989030235 -0.8645946302376206 -1.3017418172495645
P 0.469369032043087 8.397730692354887 12.874821268033395 -0.38134190711686583 0.9269598227384036 0.16193527618663725
P 3.011817381993741 8.954595847157433 8.936943128865838 -0.001678416143687432 -2.4752830315607754 -0.20865916260573739
P 6.048704157171185 8.012298154413363 10.734569674490075 -0.19707917107762188 -1.0120651371491796 -1.0677919983978383
Ni 5.928873958914347 7.829128332884374 2.4809251318133696 -1.5837162436096854 -2.1652864089561157 1.0706034997047045
Ni 1.870456322790594 0.42871007908616304 11.6620762376106 -1.082433402460097 -1.559243712389618 0.3793966104650369
Ni 3.214671180655743 4.196515090566471 9.509479469085576 0.24778518207292163 -0.5088333998033366 0.19532002229467008
Ni 8.610670418289526 1.9505338942063557 1.1489944642533945 0.30443172692237247 0.8288809788860949 0.19681280479011268
Ni 4.037673463844873 3.468677049541381 4.220864864567096 -0.056899284290205236 -2.839902483716638 -1.884571051814077
Ni 5.7245377634997165 1.897514754655041 0.6403672503620387 1.1747254644272995 0.43685690946503475 -1.5152043147812164
Ni 4.509460303756013 0.44890726572783973 10.324975007706488 -0.161041046507142 -0.8392546088109353 0.12385646703704478
Ni 7.148304786336657 2.228905486931096 2.9757951409048506 -0.018765453532961232 -0.47557926573589715 0.8170883571265412
Ni 1.1748275732324405 8.6362652179172 4.18502463928201 -1.4917111167552826 -0.28396780264106575 -0.7537960248257987
Ni 6.437392338613737 3.1833625859498964 5.0746306332764535 3.337980444775684 2.657703057964326 -0.6478400922182584
Ni 0.9083855214631944 7.362614321928788 7.965838151379535 0.7531223957975417 -1.5007847969217765 -3.1795747790088598
Ni 5.8447901633633155 8.320627296702312 8.394313674017498 -0.869184306490832 0.6028385878069037 0.41032878126751915
Ni 8.051206378040916 7.460124128574835 0.9649295753180711 0.7111905314504461 -0.5727165716105427 0.4716328794936394
Ni 9.187698045379413 0.08784138985120928 8.003065074386386 -0.30049073999675346 2.054671123199694 -1.3688332115814232
Ni 8.193610288872602 9.434329459533616 10.041137311512875 -1.1191952925704791 0.7441086223347056 1.1894288320757451
Ni 5.305282185727632 4.046276994364879 7.376465349307943 -0.175179285680737 0.7906880127561415 0.9861049656399921
Ni 9.323665727272468 4.885313556353017 1.3541000048181244 -0.32452438390718946 -0.7720508572709284 0.17752361754319748
Ni 7.41950833400438 2.773864556422967 10.633722598699027 1.1865479109835244 0.525094084636573 -0.4977753422169621
Ni 2.556168025718816 5.332800348230553 0.29432236942818907 -0.8202716399505292 -0.8184111897030227 0.9576058297590345
Ni 9.209905849895067 1.727667739383859 12.25206639225386 -0.19307750611739652 -0.9656019605906339 -0.77058635691026
Ni 2.186666561739091 6.006230675530979 10.918810949874446 0.6164044994167964 0.9721559596590678 0.23989009559556104
Ni 8.01026220444298 3.635315332601176 7.7404566132065336 0.523148273764112 -0.47331335251985573 0.785806259183808
Ni 3.274905276553715 7.8735064128839705 3.7514264038153415 1.5019999002758002 -0.6735770919730464 -1.4579815857133214
Ni 3.011986262636445 5.822141392725043 7.846521162631362 2.9286749625663564 1.4511118551766815 1.1074438084615057
P 6.636990493774713 1.395695307116266 9.208586704430386 0.5507035576745613 -0.8084805608528722 0.4268499188509939
P 3.748943858367584 5.742748726138029 12.362333255004653 2.2256152877531603 0.26892170694122075 0.07793065103920772
P 0.6425514400076848 0.472021396359342 2.223329611044466 -2.1253456068971204 -0.7763248020559339 0.3756667111089595
P 7.397553850452782 5.820039766949164 13.654558207013192 -0.5379976800721186 -1.853023358914783 -1.2615439048744403
P 2.3925695942277043 6.5794678704179415 2.0353401236178463 -0.17388576368029407 -0.9002666297179334 1.584831073940419
P 8.940757016713583 8.589654160530731 6.058424176384627 0.418770227166653 0.39925555417249303 -1.2067554962796507
P 0.755334624334777 2.1536034848007026 8.515195623388069 -1.620201740130229 1.1048277109948972 -0.8620824053387282
P 7.147357178285925 2.636508300356563 12.78563258594372 -0.4922672679145393 -0.8460150674632205 0.7794574341476447
