# total energy = -340891.8477298496 ev
CRYSTAL
PRIMVEC
9.07430926079522 0.00000000000000 0.00000000000000
0.00000000000000 9.07430926079522 0.00000000000000
0.00000000000000 0.00000000000000 13.28116884841094
PRIMCOORD
 96 1
Ni 6.382487880672416 1.7829837667442199 11.364337099942905 -0.809685894014883 0.8294162825642748 0.529370857635056
Ni 4.567662363392509 0.6414610934789352 6.0231425191054875 -0.4341030008689814 -1.3774104117274728 0.3493704964165919
Ni 2.8829261409771236 1.6959702170472408 4.52671363627158 -0.12563515620402232 0.6451273212727857 0.9497901903693577
Ni 3.53436171498864 4.395613463376374 4.933237238137766 0.03274788385498231 0.2084326484172281 -0.5197420762960404
Ni 5.18820898932096 4.422736573194319 2.792644932583108 0.07256218763844277 0.5068873318205593 0.025199382083763055
Ni 7.178722204555108 6.0788252018675655 2.6438026705891917 0.11631413591341258 0.7858160293758208 -0.5433116360858643
Ni 5.019617401061478 4.489777568622547 11.610782630321502 -0.0372524565935552 0.107095445528622 0.2204769811762719
Ni 5.522334123682464 7.904766747761384 12.493104016944862 -0.21542476346434508 0.6725386234062031 0.6547288489182918
Ni 2.026638039652092 6.42694292081899 0.08850173638488233 -0.5538544445987171 -0.6583733876494146 0.680692362861589
Ni 2.533873768191224 1.7391276309964359 0.31970152009063696 0.15389672215287686 0.16794034473013655 -0.10039926445536904
Ni 0.9455067081266482 9.157066771322922 4.764167433790158 -0.7424569456638955 -0.5528218895691447 -0.09063909974481164
Ni 8.502818161498906 2.212806564585163 1.504158379301931 1.0938974372356387 0.6881426484920471 -0.9174621676606136
Ni 6.973715413987357 0.8335633091145674 5.233404493087857 -0.06429429120269572 -1.4478393550729967 -2.641337215011793
Ni 0.7969911212593443 7.283140279053296 2.0116318547387646 0.36976705779507285 0.98542902261889 -0.7354859136627011
Ni 7.680141300978715 4.103030515949145 3.8823914131420607 0.8975304617336931 -0.7938640964912779 0.6131674805367375
Ni 7.7033261606591585 4.218664436461045 12.747119335951806 -1.274388364937276 -2.189711631878016 0.17943317586108454
Ni 7.967325034507758 8.748005992640046 7.198525976675107 0.05884895181740833 0.5827988955472092 0.27154500349668076
Ni 6.702357275480896 0.7574144296701896 0.5588395093730855 -0.37333703453451833 -0.3986585440184424 -0.5853712842600758
Ni 1.6598998384837313 6.392061276743989 9.216918191672946 1.8388103006391945 0.9468779018185695 0.35702544185868834
Ni 0.171185933223333 4.874437530209255 1.3443997234936993 -0.6782719263455544 0.04220517261314022 0.34824820988669053
Ni 6.4931581541216135 2.0031355791541072 7.045168338486675 -0.5970438355019976 0.24225191095951826 1.8935123201677648
Ni 3.4531647974071857 4.257928971818103 0.35596699629920686 -0.2805322945969556 0.42819717690750775 -0.137331361595028
Ni 5.932066401236714 5.507633742984884 4.914630367384437 0.8420275435703821 0.7142840827741053 -0.3483942485462516
Ni 5.097003108832448 2.880938867290229 9.404196504605594 1.4711618318490212 -0.1733841414535272 -0.5200979169735623
P 0.16167514988436088 5.6419244429500095 12.4403115016224 0.33937867531120264 0.8247679851589861 0.0393911002031128
P 4.078938225361443 6.204295673414143 12.733201160696282 -0.16061887136805886 -0.3114834915628313 -0.6979192682628368
P 2.1895309618139933 8.685819752565648 1.2751264480336162 2.4154226077597176 0.3688959680440292 1.079318253869883
P 6.353313977004068 7.87289777429848 5.892163941951853 0.7936648359962782 -0.23607175029073538 0.40490272515594133
P 4.725283111983241 1.133571763655889 12.765872303081203 -0.7475346172971191 -0.74601303844627 -0.5733187239709158
P 4.147476481786647 6.06421556426071 8.105710062726432 -0.7001355591878652 -0.269534143714239 0.7387625275314439
P 4.871243373415706 1.0916938272859278 3.887424932384621 -0.36044886571794055 -0.21852499965622363 -1.0004743469877866
P 0.20677174368236662 5.927638138409294 3.3519681026297627 -0.528810871366528 -2.3105262267649436 2.9463829213690804
Ni 1.3711643981032768 1.2324363610016589 2.6454097307259454 0.9134098519681108 0.3215197927529108 -0.8550717783488501
Ni 2.008598313215801 6.624608595347022 4.590583160678941 0.02519398276712435 0.3484700960895096 0.9339475669101464
Ni 5.8788546528350984 5.505065713517343 9.455275790375152 0.18121572168280403 -0.34369272930552425 -0.7946151157246896
Ni 8.77906735259549 2.258913128982947 10.403086465575328 -1.0216568946026727 0.5646903588719565 -0.1840472775943282
Ni 2.305781935342828 5.4318904851560506 6.856230334424652 0.19702826323502842 -0.08971273127580033 0.42698181644316785
Ni 0.5297418299009472 -0.20067925257103572 9.18866986753 0.0925820824037954 0.14635079148481892 0.21584359616931859
Ni 1.6895637548419986 1.0216583098637477 11.265963422717961 -1.225286979424935 0.9549002579024135 -0.0772351676340799
Ni 4.09995432517354 6.805867919071827 1.689657220225446 0.7095568525017651 1.2195084250699448 -1.1930769703512936
Ni 5.750053909858884 7.710576533608151 8.24440452488448 -0.6823923762718311 0.28138332974334124 -1.055476157144963
Ni 5.479485236241737 2.9883514637823696 4.872197083299234 -0.1658955463859659 -0.47069288417787325 -0.01773881204065977
Ni 0.757904442360109 7.368384338481122 6.7106021927042425 0.3505066669035641 0.42106056586272644 0.27971751200514405
Ni 5.063954475190109 4.429714716871133 6.995523700981491 0.25080648539774875 -0.0799674789635784 0.6387142186575904
Ni 8.08388453454506 6.912327713111346 9.313870832097122 0.3429198556952417 0.5941197198766671 0.23363845825889443
Ni 4.511510538851378 0.31930134306053615 10.586499122843056 0.1928299088829647 -0.4041905295802652 -0.2850335249014188
Ni 8.348845285155353 7.313974781281926 4.742506150603 -0.8670641748240357 0.3846648008425117 -0.04695991368930622
Ni 7.429654073339188 6.193306685127247 6.973729025450966 -1.1612130317631615 -0.5504402767108456 -0.08250850021787726
Ni 2.326961372718232 5.39128295205625 2.6250097764998763 0.9858969633942438 0.0531794122364568 -1.202325228422439
Ni 2.5837098736178383 4.927168340230023 11.28426539668645 -0.1785212055697764 1.0451637194753614 0.5279786052732198
Ni 1.3370268473722273 3.6594601398632416 3.8384971652961717 -1.3799496332095589 -0.5968350619253012 -0.06257628007032448
Ni 3.7053852180795737 2.7796786523492973 2.3011349816667592 -0.07963503532482413 -0.9208606518192012 1.235426124741466
Ni 0.961668052584915 3.578326742445295 8.14070513566484 0.6806178008699116 -0.8197898152181043 -0.19875115946340607
Ni 3.4794712194085977 2.582257984166225 7.041277274756352 0.28807385438963934 -0.08425890725008069 -0.32412174915213215
Ni 4.361122014591493 6.874469695660539 5.986977767727622 -0.9060485265070332 1.0015159008784233 0.1707958119010607
Ni 0.7487620759694836 7.485424776899272 11.370937752362298 -0.12883823652235232 -0.7888347615974866 -0.09666448000328512
P 0.1770270659733534 5.656080365103236 7.94822179904816 0.06288121290525299 -0.9846425221618526 -0.20805109670809332
P 8.714122522563027 1.6466513472377633 8.256078623506356 -0.4737180441574422 -0.7127031114402306 -1.0038121531117679
P 1.635716804805303 3.1906813331737083 10.571690757867513 1.2094407564212977 -0.5519374300816623 -1.3866933796912957
P 4.166323821730398 6.214712980229466 3.7052599926143728 -0.5790900792370544 -0.045183538515173795 1.2890842763865542
P 6.78320029500852 3.803986660462239 10.579234230999548 0.9809306205279043 0.5251102825864892 -0.6989919325017252
P 6.32434878244439 7.66613056777065 10.294844477233953 -0.33361091958948996 0.8908736185388076 1.2229652732702938
P 2.5320589063767076 8.477156015441649 5.888723871382438 1.280944420888239 -0.5507040718951934 0.012841888959674658
P 7.069077328031111 3.832933706403772 1.8724455650289813 -0.6147983312719412 0.5783989667073006 -1.9185954883886376
Ni 5.357254293034071 2.9096681298140203 0.5009935113281034 0.9648856512498994 0.1264687078489112 0.1967978923917772
Ni 1.5354366152442105 0.9307609558837041 7.1577133641902675 -0.4137732881726938 0.8636240387942353 -0.036165394176963524
Ni 6.8695514201432 0.6827718855318602 9.306221189548937 -0.09718718527597456 -0.2896890213955592 -0.43494760825746387
Ni 3.0167086796341853 1.7727933176557116 9.278968317111254 -1.2637856497207656 -1.5733492985530646 -1.078586260799865
Ni 6.562558469908713 1.8169942771482535 2.78148806957837 -0.3550883727369755 -0.019154204330947656 0.4219596806382281
Ni 4.142440240251364 6.911746957330702 10.57817162940715 -0.28093518646232907 -0.21265337136679502 -0.626870689055443
Ni 8.178520503863007 7.4030572734474545 0.239143433867892 0.05948889939425238 -1.1380414787427047 -0.41299861479019834
Ni 7.6865114659476665 3.6825451821438877 8.339245573587469 -0.7363300068305513 0.7089511005969662 0.5716966149864605
Ni 2.7773737778448617 8.430849816244267 12.430150997753831 2.1405624238468746 0.027130023447572628 0.48974681548553073
Ni 0.12186252625931907 4.938729009988491 10.339562672343632 -0.7539217517703855 -0.9136211966479685 0.2757171325964993
Ni 8.683705438551735 2.407341602483154 5.847871331937678 1.137590250137899 0.3095721334727313 0.019597719626269477
Ni 3.643516578822717 2.549762883377313 11.393396667316937 0.23453962991692512 0.3521657997735419 1.1775313093072106
Ni 0.8597771731634394 3.404472054923716 12.658534115923457 0.479416122983484 -0.4720550546327225 0.0556507565950848
Ni 3.1997011963918536 8.158076085522483 7.984797616627012 0.1531485311329427 0.23346079503044953 0.5792489734124218
Ni 5.674700847320172 7.998404543081348 3.8102742492186303 -0.07483812815681305 -0.11514299842344686 -0.681088312748427
Ni 3.1427326840341903 8.581682981648708 3.401958471310611 -0.12287841939449161 -0.672456605215358 0.4955415677904369
Ni 3.192686755478748 4.1228034354183 8.884822980250977 -0.0004982797926572064 1.666805298921381 0.7117618305728839
Ni 6.999023661990786 6.145875271604867 11.685143870878582 0.7607318327136834 0.002718427372427577 -0.969731409377975
Ni 0.5789363816761305 9.250985870224136 0.14314450332724324 -1.2124713157175053 0.629681933251993 -0.5413138889295451
Ni 4.287974009157418 0.46356017154189233 1.5668328172044337 0.9009127479423644 -0.25721933090262794 -0.24608439733173101
Ni 5.910768997843366 5.41986702563488 0.5363706126784676 -0.25686194756320924 0.8013580908754779 0.32776963031736456
Ni 7.939766357854329 8.882414658623114 11.560765946144343 -0.6070695951691157 -0.39287279057460084 -0.9138479679467939
Ni 0.05503840681792545 4.985280215530831 5.674591955611301 0.5385576663406467 -0.15374965505205132 0.13906274246383793
Ni 8.029511274582156 8.699866783010004 2.378909977296944 0.09505574075526856 0.6738470578049814 1.0168453321466424
P 8.62609265024992 1.2867461008010563 3.7400699496477 -1.7133420090303395 1.4358163624701916 -0.10264435173580388
P 1.8431101386591413 3.508445488277349 1.630010879260464 -0.7832503255311736 -1.6220735032316451 -0.8882243538414187
P 4.859183616658246 0.8724512606451132 8.201280685878855 0.19242213192158475 0.7585926748834936 0.7982496271534834
P 8.158538875285185 1.7115326571067173 12.476914542128469 1.9951248882049444 0.5663199240555794 1.5387705321369307
P 6.388467850351247 7.7706121624323465 1.321007062135493 -1.4605056376867556 -0.6882388077502792 0.873405029440399
P 1.8354877190381735 3.3733018032594004 5.9293377564985885 -0.5585058273277993 -0.2486020215472622 0.29551436982808454
P 7.0448579971163925 3.9676508988953096 6.165848733304525 0.3467351156762738 0.5407665010665075 -0.5234112976175115
P 2.446007233441422 8.397447284548097 10.2145604351452 -0.06724591763185192 -0.32771075205497113 -0.8945747215394786
