# total energy = -340892.3090810396 ev
CRYSTAL
PRIMVEC
9.03828617743266 0.00000000000000 0.00000000000000

0.00000000000000 9.03828617743266 0.00000000000000

0.00000000000000 0.00000000000000 13.22844542464292

PRIMCOORD
 96 1
Ni 6.3118963404725195 2.135367466513768 11.567481823455807 1.6315793858395513 -0.9542281715360534 -1.0711331469559295
Ni 4.750044298706969 0.4267020197320228 6.07922463769963 -0.6107439586969095 -0.545406313831364 -0.4446810334951438
Ni 2.688754627465941 1.6505085929893537 4.760996894157373 0.6442222929600131 -0.44197520452820654 0.07893672370621889
Ni 3.3590520229048004 4.415980195354638 4.849138263056806 0.041936492332785846 -0.18063568080961795 0.4478211217860223
Ni 5.287370424739711 4.390311462000003 3.093974448100325 0.16886645608883175 0.7458040077592576 -1.4446576149109056
Ni 7.357282621199163 6.1143736296513325 2.5588970477220316 -0.17834328523101545 0.0385367226226175 -0.23099125044403443
Ni 5.318507321361794 4.285485416420058 11.782589424282197 -0.7853761136249249 0.40168318977737916 -0.6099430600621689
Ni 5.548956509510774 7.73719795142053 12.400080631473012 -0.4413689384027754 0.5906798409571827 -0.04236432389882381
Ni 1.768792647007697 6.187023375674061 0.35842770815189284 0.7799536570577729 0.9412104191201468 -0.35709743274720435
Ni 3.029579369039846 1.742897956493251 0.40819522451478746 -1.2837284113912797 -0.25198507908688217 -0.0566156916115154
Ni 0.8605714005732796 8.908342949012095 4.608989185951421 -0.4434463897570944 1.4408282138624862 -0.20516606185081437
Ni 8.648013186049587 2.266621461505315 1.1914495079722642 0.4385759490386705 -0.07644378208103608 0.5845426177111932
Ni 7.059796462877184 0.9010891346421137 4.7397252871326785 -1.0991836253352425 -0.2143050480376051 1.3432787601510865
Ni 0.9371347246039501 7.246473230027399 2.4317455309240295 -0.2817381419795987 0.35344569492723 0.10868515861324507
Ni 7.686267207598923 3.769128114817862 3.7502380962575863 -0.19603658874572044 0.07059040862405261 0.015540775948076464
Ni 7.844138956016314 3.947236586468009 12.833708690067589 -1.5237887140161177 0.08474150331345405 -1.5731508093890132
Ni 7.949444030775061 8.83081252833743 6.8051626279992155 0.07977567466774649 0.19010299687010485 0.4079957622589683
Ni 6.823499503432273 0.48750618760877074 0.35078945232161074 0.11947916390495553 0.6097828803352208 -0.17692017963124368
Ni 1.556799639672155 6.6349337344260295 9.187962222793427 1.982259602206502 0.13351327340051847 0.8515712213947593
Ni 0.01906174600173343 4.956804138221267 1.4336855254056724 0.7012287922520439 -1.3397329517813572 -0.0828010917576316
Ni 6.315285697869697 2.1337496132495146 7.084203451451429 0.4944925577006322 -0.4114374409506656 -0.49241124969157124
Ni 3.7210082780643163 4.3715299028764365 0.5725031366722612 -0.64473985602638 -0.750217820556237 -0.14755689597777813
Ni 6.290954630901151 5.940820454342994 4.60495449490582 -1.1894830823524483 0.1549274774102364 1.398417095886127
Ni 5.397131374689949 2.807364059794413 9.246710180515885 0.5470919290639029 0.17292031444323125 0.33670164269967173
P 0.15195980528807204 5.723775044914058 12.252556817146367 0.1411013701604215 -1.7173364749017133 -0.17772107826598424
P 4.023384149324626 6.113795179322214 12.502561241734108 -0.679173098003585 -0.8390131822240905 -0.14248256677866428
P 2.268347774206278 8.539174141311383 1.2624054791250419 1.5091221131428785 -0.22374279641173725 0.2972375231667784
P 6.324613209426734 7.968795001941354 5.674619420539934 0.4935147671683952 -1.192915505072765 0.7692275288895204
P 4.649601822027376 0.9355168713396967 12.540434373204503 1.1667378182361325 -1.7743213769271893 -0.9267500207204427
P 4.023149153878421 6.111011387113331 8.154398020668141 -0.029793686322664818 -1.3249671063260924 0.64140462100556
P 4.677701854421586 1.2476992833358431 3.726413173327017 -0.32151156522279467 -2.2612872872334733 0.3130480078364738
P 0.32586908908027384 5.528195565667255 3.567182970464837 -0.40867864725860586 -0.6039423623940438 0.10922123362237318
Ni 1.5639037327766416 1.3059691157081408 2.4494849756265435 -0.42824268543346244 -0.27388136493934123 0.6335653274667993
Ni 1.7782918860061898 6.581860916729406 4.8647473836566135 1.1581739878265214 0.3861593831101672 -0.5828233210272413
Ni 6.0700950646145895 5.474155651326635 9.142046824091006 -1.3648744840439913 1.302866160661995 0.24498267962712
Ni 8.626059188402262 2.47165498831865 9.943624425551949 -0.5875063283252075 -0.4801365460892763 2.080976593863442
Ni 2.2249911143815675 5.329271920455233 7.124589226538932 0.21391501168803803 0.44283600986660504 0.5795752464035889
Ni 0.3624163039368928 0.22634490229815557 9.306899744917944 1.274738034967211 0.49833738536801914 0.1202237553804639
Ni 1.5413080167954496 1.0971395086099656 11.894436410731819 0.24848452213279143 -0.7219673103509759 -2.067175169203975
Ni 3.958082530138981 6.712762418551647 1.4196499704667953 -0.0022743978564735024 1.5786239166884426 1.0677423761068257
Ni 5.45610619340086 7.792946101889326 8.046175387061904 0.4305160548486715 0.5154210803231833 -0.4723851842786317
Ni 5.266121413430999 2.8343433446759563 4.922199251110391 0.47446752072895704 0.5350943903823946 0.6838571337428158
Ni 0.8904375141285799 7.528540071763811 7.038313359950906 -0.34921468756501794 1.1661266670146948 -0.6861328171508699
Ni 5.047756414188761 4.389507054511073 6.983798935574683 -0.19088178401765835 0.6090130920487318 0.33838700082189466
Ni 8.256311930372432 7.329408545964765 9.256551970568653 -1.9096881585966785 -0.9192130889134491 -0.06886519840282979
Ni 4.540636241279676 0.01051514238900743 10.426488549269544 -0.23220892490121944 0.7814143007636994 -0.47982210017265103
Ni 8.304278116257304 7.3703339067499 4.579132110682513 -0.8406178077070491 -0.8384879058482398 0.6587914490234396
Ni 7.102041413475621 6.2759510754896395 7.0596907149263926 0.6443824726869612 -0.08649885232419297 -0.8258607040025326
Ni 2.440165598527261 5.124554733665636 2.5885823955494818 -0.481521599362261 -0.19004617549024044 0.4512764273244744
Ni 2.190745047240473 5.168191580368513 11.358763387280261 1.017818494693189 0.8926260824535401 0.4602932861111041
Ni 1.10416225713692 3.336194196618227 3.980372752040107 0.5086955886738918 0.5586449240088249 -1.157752841128703
Ni 3.662955364565438 2.7346239309077602 2.658586635145132 -0.24220383133040221 0.7620094138745264 -0.2651681534360595
Ni 1.096859321731799 3.189439540463582 8.24064677239699 -0.49420382281561986 0.6418391374398172 -0.5761651922807756
Ni 3.5830388362831584 2.4476131465146618 6.864941854199056 0.0031246616719107475 0.36973749010871804 0.8329276381516428
Ni 3.9484657934173857 6.676853306714337 6.041602770590945 0.8584985446422119 1.3620958928575897 -0.19548611555888915
Ni 0.6784652948517407 7.581947306056957 11.303164368536939 0.27714358063038075 0.35165286469286533 0.6065610309638134
P 0.09104537031733588 5.812440634424254 7.937160095739046 -1.0447963088336136 -1.816025955754827 0.18247659067309863
P 8.266859610592451 1.6119241483798705 7.989214298559237 0.670211260824607 0.7391111691201142 -1.0619972460929323
P 1.845464430475077 3.249182613517853 10.340477504472817 -0.47102404226504685 -0.008804999886139675 0.7982514269256963
P 3.925870077436194 6.363224768895395 3.8509860670172453 0.5025727636056054 -0.5953119404125553 -1.078646167503523
P 6.9833054451376535 3.9629541665045256 10.312764310736206 0.445321238182304 -0.2726348941267498 0.9177624725098517
P 6.123755370926723 7.5274374008239295 10.128517938796929 1.042671806291443 -0.32560604700714246 0.5448928645300551
P 2.4965554673299235 8.593530395675737 6.016945421483629 0.5429557954083423 0.46933097083334013 -1.0392769216772813
P 6.96964859439862 3.6777420011035304 1.5804682002481338 -0.9272215610402225 1.220442763958756 0.43165402510785655
Ni 5.345549874248085 2.544684342369862 13.675567222493884 0.2810506289942708 1.6874833960960227 1.4465987977976764
Ni 1.1797042548052405 1.2308699940730514 6.740290327417214 0.8056508047135609 -1.556708347562274 1.484797934575217
Ni 6.7945408338307764 0.5082309783067199 9.209445325719704 -0.4614024600148827 0.5170671005670385 -0.17815533758992544
Ni 2.654535675184024 1.6768913509689933 9.193531614868471 0.6656431818379503 -1.878656743212171 -0.16917216025470866
Ni 6.439932705508344 1.6644185157473754 2.5304029460411095 0.4421785787882643 0.7385167300692248 -0.05630767345279335
Ni 3.815738557743865 6.607990602690056 10.337897977536405 0.6981126152205654 0.7027727397003961 -0.32106882125842123
Ni 8.130914744963208 7.156162672393771 0.18942982918536286 -0.3236918607035651 -0.09949423614259639 0.2867659342114932
Ni 7.65155114956542 3.9906745908702517 8.074842120012923 0.8502905549101227 -0.2714277611925261 -0.31001899120216286
Ni 3.047267295509923 8.258851688848717 12.393863194263627 0.28629850765677145 -0.35888846320935613 0.2644132775479059
Ni 9.335194100469595 4.810700238686881 10.055643139443028 -1.885814951523507 0.15664934519734958 -0.03274814096529844
Ni 8.82081618358735 2.6953616148188413 5.7936229221551185 -2.544770951149269 -0.06721634994549715 0.4182310668337313
Ni 3.7157570336702874 2.4640809043217544 11.291695686933526 0.1735381505328882 0.3645343486412238 0.40246737624157136
Ni 1.0599469601049238 3.3998508476804408 12.436829400116183 0.23147487494867228 -0.25240236912995884 0.627466670768229
Ni 3.12221276627634 8.281185294524526 8.140322697269138 -0.18282497515145288 0.357904502029532 -0.33957202226893135
Ni 5.636537504653872 8.182975274583875 3.6373065154408675 -0.8061794235235212 -0.05298735083030875 -0.9787258995671014
Ni 2.9143321792493753 8.461481031481652 3.5062124981184675 1.4043064647873684 -0.4401625767995 -0.2552727486992184
Ni 3.632107693107915 4.159952656714949 9.527907539101344 -0.5449838815819646 1.554759451366019 -0.9662853598109035
Ni 7.094395023187585 5.983029251795861 11.466244881402314 0.6322738623488853 -0.2139558922283025 -0.6646767041596231
Ni 0.35829303768464493 -0.03185815187620199 0.5987277246400324 0.0037939198247934664 0.6703742687650326 -0.6677548288643145
Ni 4.488476290508693 0.2857047520093858 1.6030630124006864 0.33682377009983283 -0.8072631435060033 -0.0654335470134615
Ni 5.867836291723745 5.624381009455991 0.512489818854855 1.38360291369143 -0.5562067468809776 0.4279452087977017
Ni 7.596580291726378 8.77377190291451 11.368592523732078 0.3537208029654876 -0.15127471114899751 -0.07093082268260686
Ni 0.15078211657113233 5.12117441455485 5.735139786223958 -1.1210801682980176 -0.25183929753763723 0.7072320610233304
Ni 7.982072244651903 8.68133734797865 2.562852201847379 0.07794762032007221 0.46298780222413166 -0.047836402756988576
P 8.613441740598365 1.547381745251194 3.587885165446805 1.525655077800895 0.9606430739234616 -0.7616276050550754
P 1.9035354205467396 3.2568470803786735 1.4087371434765188 -1.2388387499674407 1.0748782158206585 0.29631424002156065
P 4.639379520117484 1.0567745215811646 8.334700988254381 0.6029401463817745 -0.7435069841949646 -0.9128094993799506
P 8.564869989525194 1.4666608094799845 12.269608448254413 -1.376694873717687 0.7680792742176901 0.5582083506920387
P 6.381997289732569 7.6699531006605035 1.3730467581699068 -1.507106111154114 -0.1670124335992285 0.7498313837510957
P 1.7848717584999128 3.5159566746781965 6.222845719962002 0.2836762395425759 -1.4599857606275437 -1.9994929353656532
P 6.9389184206642 4.294740621685954 5.923102701527823 0.10149326885049617 -0.9028071367516001 -0.38914134855662663
P 2.345950501172083 8.497896287356943 10.167105998720968 -0.7170994407357133 0.7355054540467268 0.9189320673379205
