# total energy = -381163.3058585669 ev
CRYSTAL
PRIMVEC
9.31504609999588 0.00000000000000 0.00000000000000
0.00000000000000 9.31504609999588 0.00000000000000
0.00000000000000 0.00000000000000 13.63351154663754
PRIMCOORD
 96 1
Ni 1.9790746885517998 3.37516721865959 8.38102360824769 0.3585411071722664 -0.9367264152068641 -0.5595692355953072
Ni 4.136849220957397 1.8423857024847325 2.8608285662280384 -1.4506832522796953 -0.6943246089330429 0.3715318630049795
Ni 5.855521796553979 7.56150727939989 5.24471652699618 0.21295907553267196 0.11999852674353527 -0.1869207424873813
Ni 2.882559637210447 1.9920971229610787 10.81110208797527 -0.0328026483523177 -0.12680063726703325 -0.2872037930798602
Ni 8.348162920217923 8.494353253278886 9.586294625047609 -2.1242665149003286 -0.137207434422654 0.9987681629299574
Ni 4.864596510413284 2.171244089026353 9.271837299733988 1.138750074773955 0.6794623471092298 1.6562511775546187
Ni 9.125643240654599 1.313244510339458 1.2730892097303594 -0.04276541599198442 1.0317826701827648 -1.8542358911656454
Ni 3.313091751632812 9.245518568560902 1.1251830451828533 -0.7456422853704127 -0.4065196919340741 2.7291663561116355
Ni 8.458136354149218 3.9472787183370555 1.8999936734151652 -1.286566652171023 -0.39996774974816923 0.1020473415817533
Ni 6.961925708854781 0.8733545006327145 12.65447518534368 1.072175729287831 -3.341819873126432 -0.04156702480850906
Ni 1.6987476920476208 1.857988404656079 6.545735039365554 -1.6587459189520144 0.8011480317472008 -0.14773867297128107
Ni 6.988753041543425 2.1208776349126395 4.513851491619846 0.04387330434418251 0.16380241130236306 -2.5189776442352487
Ni 3.308760255209125 7.002706980559948 2.01563251836772 -0.9925399226320584 -2.075205752817936 -0.9915307646412536
Ni 5.735991125352356 0.4355082120342653 1.7328463497004152 0.0381824246069923 -0.32301026125550825 0.702434382524371
Ni 3.4266701083941418 2.489716199197197 5.073888828578208 0.28875185429327044 1.0679262099828575 -0.6557740023533545
Ni 1.330943097877105 3.708496827315984 2.6731089632622926 -0.013179989025383752 -0.5524182263728228 -0.9946489985552611
Ni 4.35689855432678 7.152688537372396 7.567934661189877 0.34982198213171367 0.26681468790054697 -0.5734660481820575
Ni 6.081756320515466 2.186623230091961 6.598415350923664 0.31360362322962765 -1.6695844043284147 0.32304291426565657
Ni 8.713266151027431 4.374466731219412 13.086520994752819 -0.814768964964745 -0.3725883292939519 0.47140250865038813
Ni 5.027498036128214 4.850391065152804 5.217081579813056 -1.0974841261456325 0.8068522812208299 0.2960743560966127
Ni 6.625503504902335 7.887720192856936 7.984125330679105 -1.0694886693739711 -0.7959212361306228 -0.3628021964414655
Ni 9.22924518307234 4.550372061251476 6.590616794351812 -1.9209423913542596 -0.7886707252157965 -0.011455807245425432
Ni 0.8252674382929284 0.5051474964718689 10.35840109540509 0.22018798918094337 1.4894793992112865 0.9421699548199387
Ni 3.705571902849236 4.467477466252782 11.59310672628933 2.022524106153504 1.7515653141775964 -1.9603095802979722
P 5.704096407600303 4.235253367666712 10.429990950490264 -0.9081082372495392 -0.489027420821003 -0.6113029165241729
Ni 7.318803753982318 8.450488701323739 0.7733267413929715 2.0552419081014994 0.015601968203315063 0.46198610043249466
P 1.7297761105149372 7.678681243945184 7.023548464642438 1.4308155668214906 1.5592311139841275 -1.6063486362972206
Ni 5.194125580272122 7.517791768181902 0.5405185894181594 -0.9913929535118087 -0.32266701898347655 -0.9899793609937337
P 0.11685259545579428 5.4488548301692195 3.6820840141775646 0.04153848556341879 -0.5224376208503324 0.13033976076854326
P 1.5606428189775419 2.666227007223969 0.501316218022272 -1.4678093704370205 1.4585269166938302 0.9076127856703595
P 4.734772713301609 5.421626950499461 2.829049355047283 0.2668493977932243 -0.2387657521831307 -0.10326990113494472
Ni 8.721668322584776 5.030655836746773 8.781290206476072 -0.36994677790604674 1.7335639925041693 0.791784845364746
Ni 0.28054403707766695 0.3554621581245255 7.624977208823712 -0.08392106429468772 -0.6311490047158227 0.11547852738599469
Ni 9.243441313286747 2.041094265302143 11.960434390100938 -0.4819437745013442 -0.1747288284068797 2.5334989777798755
Ni 1.9351728764123635 0.8911481016403001 13.134470194410731 -0.7840851627276432 -1.2872698488856347 -0.8194247185692016
Ni 3.0180469823341687 4.836409180998064 4.060454665108056 0.3137056960251307 0.15792255548281836 -2.1117570695794083
Ni 3.235683718770788 0.24600664075486026 5.801345488596636 -1.255455018367883 -1.6940175976701148 0.06264878517947274
Ni 5.358638608957583 7.673269202177092 10.220784330749208 0.2431901065030715 -0.12946507147307382 -0.012388860582656083
Ni 8.669820776145544 1.943062720435725 5.998172412107412 1.4290458765155776 2.4677504706291566 1.004517920929541
Ni 3.759040267305074 2.155604126670717 7.3969160043274185 -0.13902674701957993 -0.7630031452463634 -0.650938271527608
Ni 1.3165606667412488 6.716064382818652 11.348194603447983 -1.4481684562776413 1.4790427772589947 -0.25023518627531094
Ni 9.194583896636768 2.8621410562196457 8.33119370078775 -1.0991172908736813 -2.2802843971612665 -0.10298939378004844
Ni 9.35007064567803 1.98288454239543 3.591394588625448 -0.2505583739426846 -0.8250556916027341 0.41191232370455516
Ni 6.3761956118194005 5.751491362016906 9.085576432983189 -0.062167988888312285 -0.23590977079157435 0.08568381262206534
Ni 1.472643578731148 7.363208578609668 3.5710123363143302 -0.3529672126289147 -0.18529374840691962 -0.4115829653895944
Ni 4.4933080890116734 0.30649948145392947 13.053528033068822 0.4940449286402524 0.6962202832938591 0.0064616964649437105
Ni 6.969768977647781 5.4426789546231875 4.140061048843176 1.9190801413345402 -0.05705483603146303 -0.7942459053107289
Ni 8.582184822695975 6.689544446650399 2.132894975850702 1.2745410884650565 0.22638254802742944 0.5195610706334859
Ni 7.7983609558839655 3.795611138185496 11.040363070405695 0.8224192824211513 0.9888961552318839 -1.1243817218674248
Ni 2.6483886939952357 6.559711334492651 13.059731853753071 2.5216019692319733 0.8766613315941676 1.548112635473463
Ni 1.4806452033073787 5.806878625963668 5.502635248668485 -0.18753497903261251 1.7716255752625814 0.5880303191494776
Ni 5.025867903065536 2.448618215925567 0.7503474542368553 0.8339627642843767 -0.9309925980468806 -0.922112007727799
Ni 5.141113653073834 0.5943148434957475 11.055551253026815 0.21071090292844358 -0.5987456486844527 -2.2470986544379166
Ni 3.359024243816041 0.2581199266674686 9.190732125085812 0.019421599059721392 -0.6932894828003092 -0.5023341652322382
Ni 7.736201653442535 9.318865241335338 5.947496698464093 -1.0548680912473187 -2.167310638474996 -1.8121780427636467
Ni 8.285621700887523 6.3373052944669395 10.900769652973239 0.46164568637394043 -0.6383066988065265 -0.08552877510143979
P 2.316763738770099 0.17535201629536012 3.4830075070402926 0.6746885798696703 0.07339831038649296 -0.3998618202979243
Ni 4.447981074823153 8.257164235136203 3.411281652282461 -0.11101997739400879 1.1778971772870617 -0.0008908872453855626
P 9.032259903778332 6.660779584378687 13.225092551631127 -0.17133960021967268 -0.0827931213378316 -0.10961409818541769
Ni 1.139099724015087 3.676117727168163 4.8596790975916395 -0.5023791595375606 -1.978826151044921 0.800350732656886
P 6.9382748068768425 4.001622697123703 5.619078913601698 1.3169812599071382 -1.016914494821681 1.8835652362573818
P 6.90444255954172 9.229608469869165 3.626473189125064 0.22480517623798055 -0.5765400591216909 0.08640012196279959
P 4.7335617573121915 0.11842497523282311 7.382491655484237 1.2857840083687275 -0.40292734659712537 0.48085876896728147
Ni 7.072951742992261 6.075617705153724 6.621824061703719 -0.7641575705657807 -2.100889530737285 0.882158864373629
Ni 3.2204536184423396 6.973653351859991 9.540295064532657 -0.5384985309679371 -0.5869730815295569 0.9581329059070982
Ni 3.359694927133257 7.079248714137234 5.2146550103111835 0.7596067179703048 0.6067116976090647 0.34931316081609515
Ni 4.720557952995057 4.715136596180894 13.816882086136633 3.015509343853097 2.300579914185509 -1.5688141296868723
Ni 3.316147086744574 2.7891017799655997 12.94526484159643 0.4342688370228843 -1.065129363964011 0.19813923691102003
Ni 7.1309099596550185 5.859648361964072 0.5947070069353975 -0.6099083501694914 -0.15734662837469032 -0.9920755814011301
Ni 7.185933936804955 0.6351901971662463 8.030656780324792 0.0028423545448015564 2.80238854593158 1.1876907663387157
Ni 9.145614699433922 8.723559276937483 12.474595125152506 0.6698585054708786 0.366688161759433 -0.49096269017050287
Ni 5.9617226368259315 2.6312862694062256 11.871870658062553 -1.9344802779396943 1.7170788503649523 0.3448558963756899
Ni 1.1328400130544036 8.245427277084922 0.9003681342428068 -0.24143738547802288 -0.6114993488056952 0.041236380941967694
Ni 7.02952499820252 7.750472304025522 12.166245675548588 -1.7880724079646946 -0.2779987295418244 -0.06583541043757049
Ni 0.8300358103774134 9.345133671259635 5.115184290826574 -0.05068415661842884 -0.2640371251554098 0.1806433941191018
Ni 6.343956237362666 6.909947751770535 2.6193108461754897 -1.1615066517441803 1.7427328034876308 -0.37435699115860044
Ni 9.058966140868032 8.952364753614965 2.7752652105295894 -1.0967086814321887 -0.15085510711307568 1.1829571083084724
Ni 6.987635236014731 3.208856386082145 8.816396752113905 -0.47627526336165715 0.6068165986180453 -0.515758409057944
Ni 1.6784036314253996 5.75337300132354 7.889249723422032 0.5169871392587225 -0.5235871610737434 0.46421601820427794
Ni 5.191750243523648 0.6662502867902088 4.82528142695992 0.8414899258993573 0.3041710170618181 0.30752527824603165
Ni 1.141251499657822 8.015131393035848 9.236935685109751 2.1754584643931114 -2.240380104767161 -1.164775552303439
Ni 1.6461549419225927 4.575196659034543 12.52370311654183 -0.7684268873650959 -1.474828482067331 0.3294030521557295
Ni 1.0063789475748817 5.432926101385338 1.0132674241454551 0.25120320661553514 1.1566858333167693 0.03961684306067371
Ni 5.227697006317215 3.989829848795987 7.449582343316419 -0.10341054047786707 2.2594641179818056 -0.13733984623546025
Ni 7.552956067105385 1.4839893048473867 10.305966701063292 0.1500117852761739 -0.8557994005434938 0.18538219435566783
Ni 2.770788399387172 8.667361603982418 11.426477319136207 0.5182446658149075 -0.1493157876504138 -0.029621936631490924
Ni 8.713098480198125 6.9885574255759035 5.440384658775545 0.8968545187125909 1.0035648129876522 -1.0149738261555425
Ni 3.0408315850273704 4.1567275292759955 1.2132204771181443 -1.4085809237930063 -0.3446964879796902 2.011010449086949
P 3.00456811066734 4.384247529595481 6.314565403994885 0.661663628364912 -0.5633312737409008 0.40019606370889144
Ni 5.796352623901804 3.430507907375989 2.592207788123102 0.7118749591119804 1.6605801439472756 0.7574241084966891
P 7.199412808471783 2.396379437551292 0.28477306799455726 0.7676136474351812 2.491053407021155 1.7937586597161947
Ni 3.6586613308283997 4.569765987174307 8.952554780554843 1.8189752681911382 1.6072438944179803 1.4067158455598094
P 8.851613215295393 7.349645871528186 7.701066231161878 -1.7598936315376337 -0.6292047365052583 0.3032425917102778
P 4.845230529628671 6.683415146334729 12.120818990367093 -0.6447144021050832 0.0626770673142469 0.6869026054373589
P 0.8597163416780468 2.73334191417594 10.313819284902367 0.5400931291485666 1.1410103315630413 -1.3095425442409059
Ni 1.5803068812364744 4.898754784360942 10.173544006097407 -0.3135596573655696 -1.151586821527307 -0.5434949557412639
