# total energy = -340856.946861565 ev
CRYSTAL
PRIMVEC
9.39211825313606 0.00000000000000 0.00000000000000
0.00000000000000 9.39211825313606 0.00000000000000
0.00000000000000 0.00000000000000 13.74631443332628
PRIMCOORD
 96 1
Ni 1.220571490226578 1.9263422038709086 9.932220290452987 1.3051451865041588 0.6138585930664912 -1.229707991310766
Ni 0.7172093742624343 9.014348313262731 2.825169783216243 -2.516302668506247 2.990265224574328 2.2851612656375937
Ni 3.286940782655918 7.335713831817208 10.175323996592144 0.08785330946955837 1.0253572262723956 -0.931783469379292
Ni 8.94285551038482 6.94996075774974 4.541121967456669 0.595014977997427 -0.42858361371264897 -0.10478710911041952
Ni 4.492268865227366 6.46947878065723 13.115674959179586 -0.11394332168839087 -0.595613273703058 -0.7280122309934752
Ni 8.782231506861693 4.516256334821453 12.141665352971783 1.9299345675505408 3.295096500927964 -0.8698445657826503
Ni 0.4509127717193453 3.542857216289303 0.37290183888908635 -0.24243934437997597 0.5277176383023493 -1.056770193366038
Ni 1.218956045915622 8.390439300864312 0.8993704437707601 2.6415321046314184 -1.0833736548861794 -3.651517990654066
Ni 9.18295561715977 4.917262208662138 6.384805079256084 -1.7985159718955217 -0.32964962094889677 -0.1803222633342572
Ni 8.269093135180837 1.090237067533886 5.086383261418534 -0.5743965304161269 0.06887625414642332 -0.14214215272011002
Ni 3.4726793099435658 0.6925757269439654 0.4385696501294673 0.9664830776440064 -0.5774551147367926 -1.2015922069111564
Ni 5.474318124517603 3.351633692038873 4.864105637925391 -0.3255461403034845 0.506662874514579 0.13276431104963587
Ni 8.78689938955091 0.6115010851937412 10.43691608718548 -0.11825968967555761 -2.7229283456217233 0.04896048905910278
Ni 6.918994944417045 1.8995089224964745 10.49033469801685 -0.4028818380711707 3.085958856023911 -2.224510484724756
Ni 8.541812068071787 9.310885657622203 0.8440255095197529 -1.188299089346676 1.344011010331421 0.052360772989903374
Ni 2.9301342165324487 4.137622486263897 0.11060909628646681 0.20684267822228894 -0.03399718288105113 -1.2301581914743072
Ni 6.012430138191676 2.0281527639335146 0.6308770248071321 0.3913432413039518 -0.6813829611707104 0.4635431605069694
Ni 5.5496616958111655 1.4046382204947474 6.897131032722419 -0.993288884982941 -0.5450180772540097 -1.9137456164955042
Ni 8.895021452967953 4.23675629267172 2.6140819292119 1.8434591122651154 0.3399065227902146 -0.25541004560803104
Ni 7.764154082589894 5.009868492999527 4.449572296404063 -1.831357443905575 2.240513802131548 -1.1776619213478041
Ni 2.6229368181442827 2.016947967055776 7.723448642801024 1.1435886338131789 1.3795729665964305 0.2940179877882162
Ni 5.394306670534822 6.6337469259980955 10.87780183363519 0.6100078518618334 0.8997827481029795 1.1357038317484633
Ni 3.137164675523226 9.101929814423599 7.68680153723753 1.2409000033718436 -1.0264427460270904 -0.483529116710593
Ni 2.569711684945501 4.564738448386321 7.390471758687781 -2.3046453425041338 -1.284759166648639 1.0047866012098954
P 3.2145275522054853 3.1024326228376617 5.7830192010114905 1.1289821967539138 0.31403685411230436 0.0835143157745723
P 0.7569596356418594 9.162574720911076 12.079559972121785 -0.1638450916148404 -0.814702630503184 -0.5797302839242146
P 1.2525422601945775 5.9616751320497645 12.496678024540646 0.6379963666549593 -0.9476883135350067 -0.7833652538424832
P 8.913636631016299 7.440905554391119 1.806526953435607 -1.3731192405512869 -0.6771519538084982 1.0918541815533649
P 3.4383417262176534 8.160914719055274 5.536781345066713 -0.46212056912782995 -1.605021689955681 0.4934641164361179
P 4.849300842184922 4.448651868831542 12.501090441617896 -0.5368576529304044 0.6864416066405403 1.3043807975343082
P 7.736015296801373 8.271469341056838 5.9551645157918855 0.4449599981881433 0.24423140328339227 -0.5240435318848717
P 3.3487221354319163 6.4342959063034915 1.6341346259495244 -2.248334840837863 -1.6481933402471485 -0.3902844610221343
Ni 0.8043024852827799 4.42612956965902 9.736308220853548 1.176996262739347 2.6382647467340568 3.7339509004390017
Ni 4.574806798975538 2.2808477010630734 12.413512697304263 -0.28914471885631493 -0.8309918545815108 0.3694976061837701
Ni 5.185942530775696 7.185928332566429 1.3176775383394281 0.9530423787580684 1.1954866082340507 1.526840356358248
Ni 4.201620378908417 7.072039508643997 3.597520282767197 -2.4077596918978212 3.9566140906333143 0.06677566286365273
Ni 6.357731359658624 9.236575219318205 10.627220123075196 -2.530418024861706 -2.1016207524763546 0.6807633253088405
Ni 6.0004551876308065 5.51801964997621 9.049432570376558 -0.7938435276659876 -0.2482883469615853 -2.4481298681847514
Ni 2.97363850751123 0.6965777084608175 2.6977694582139153 -0.46472741062305767 -0.3101174644532401 0.3700822750426465
Ni 2.6015885337326305 0.9413344273832809 11.654812702180891 -0.4372975965468791 -0.8694159628856639 1.4182894093300218
Ni 6.511696351458099 8.499209420429354 0.13720663549691833 0.05451535743906095 1.303068249370472 -1.5704886891758176
Ni 6.778000467695657 3.9433746999894668 2.604514178516718 -2.704956591634651 -2.8677974103546937 -0.599723953437322
Ni 1.6696368323182194 4.678646056544927 1.922958223724178 1.4632186657425443 0.5081679983051957 0.37053941718472316
Ni 0.41928387484971125 7.132055143219648 10.399485678973532 -0.45094398368572014 -2.218732701700714 2.225401886190774
Ni 6.914993902112001 6.114935714992717 2.3944425516893837 1.358717206193344 1.791039975233451 -0.25484928800855466
Ni 8.523553790510745 5.980872621419502 8.657208326947176 0.24412418828156668 -2.106467539045695 -0.7728345295144883
Ni 4.661007658777622 3.993716452935552 7.5139001569511334 1.4481314323921188 -0.1311684273174257 -0.4473408397154941
Ni 7.76715956037772 7.791428793514414 11.70392784450482 1.3562677162115868 1.002662355778041 0.3402124840664076
Ni 1.7046224721921313 7.137098710632344 3.041371645518933 1.8196362988139048 -0.23347596453910113 -0.8451385783955381
Ni 7.570019001732507 1.5954390994312644 2.8437135811671292 -1.8544120117321934 -0.3422164018703139 -0.13384057483295014
Ni 7.041853241112521 3.4834145009169566 7.386100666930111 0.9406298640263284 -0.20488941115066006 0.29325128482552076
Ni 3.742899939423385 4.792976310017445 3.2661654174475707 0.2786633597090169 -0.3466597823536482 0.3009381119468172
Ni 1.4860209237182238 8.846445418222213 9.682023656734557 0.8162609761292393 1.8893975266684426 -0.8388900263826649
Ni 6.929946154106436 5.892812122236201 6.593062148869018 -0.6148039876988961 0.7681227258611159 -0.12741898757732248
Ni 3.03686624647262 5.186731468695001 11.066580589547584 1.0799193777889917 1.4034659711639441 0.36322385735991636
Ni 5.017523069240396 4.486013714581453 1.0360454853839567 1.0272315604769728 0.5866874319683381 -0.20440064443969955
P 5.636303985163338 5.947089172660721 4.205066347034521 3.515112483307417 -3.2518613443884123 1.1797558277623552
P 4.445590038335193 8.9201171924963 11.75879002388616 -0.6407844709230578 0.05157632941539504 -0.2798216416831762
P 5.435331442338647 9.427338529782373 1.9214601808893086 -0.02098431556115096 0.9661704314995941 0.5223741146022487
P 7.85713605165076 4.391444477563891 0.4725090080484926 -1.1276639921631224 0.17896934885078855 0.4607727968506839
P 7.608545470125201 5.020068333241962 10.173550764697328 0.5455037586411766 -1.1395070075446376 3.1067981613667652
P 7.9737579819364965 3.335084779969656 5.389654754446353 -0.04202108162679215 -4.046946457770985 1.6386164951919908
P 6.937168692915305 1.0912044556968423 12.489323996078559 0.31935903765616613 -0.17629977243842543 1.1876614557626772
P 5.383552695325257 2.380075428651767 8.67103728161841 0.7783608586493562 -0.42094332355857184 1.5033433016775724
Ni 7.437468039171293 8.532335420922047 3.5092550354095993 -0.3002737388899409 0.39452343880414636 -0.4412686653794852
Ni -0.032773796064433966 7.502902925883117 7.387571472622529 0.6894387415956513 2.244135200934219 -1.2403541581707027
Ni 7.706608575071113 0.7073579816010259 7.474750991129275 1.1107507613475516 -0.3753815757683729 0.684649290626808
Ni 0.905814375990221 2.1488602655870768 5.96672527394512 -0.5088202871772141 0.7309371179497541 3.104835124103124
Ni 0.8337204775547444 8.721736874263609 5.170098966774811 0.9826494029912238 0.47174497959147144 1.5786020623115715
Ni 4.386457262859717 2.602687411548805 2.441083810109209 -0.03294508746745294 -0.11297195891405705 -0.23935659168959422
Ni 3.6507256925179963 6.537872184566446 7.757608715495094 0.9494189230728681 1.7502260265408824 1.1834697862788326
Ni 1.8493456197940408 3.25900862346531 4.093130144462368 1.1337950447615248 0.9664977329320257 -1.0705451356629434
Ni 0.8272990864186923 1.3295951969799669 13.556422641493418 1.1504395952967412 -1.27040932568487 0.577227829217335
Ni 3.0867665698686184 0.7638844443073722 5.077365888843247 -0.014558871650781378 1.5796212476047053 1.1334446034006416
Ni 6.9880833650646945 6.128526109864543 12.86447430803766 -0.8629892334237138 -1.5580910868424132 1.2770000915285102
Ni 9.125053209153686 2.324624363466377 11.876911875430382 -0.7535083183820507 -0.42683397801139394 -0.15594974802716366
Ni 4.082349871322159 5.6612682350384675 5.719731352494345 0.28337284936954427 -0.1379743944956656 -0.8040011849252799
Ni 2.005292348509863 3.3837171674239155 11.72961998353169 -1.0863818455848837 -1.4820347700077832 1.0411165459891811
Ni 7.860329371800325 8.080198856215972 9.388512452822704 -0.7059763342393583 -0.1817091163794548 -1.6861227683030702
Ni 2.75149613051854 7.823108407821718 12.591170246189895 -1.6993495514059895 0.44955455953736123 -0.3755633527618758
Ni 5.1429735905278715 3.68403953537243 10.61277316703384 -0.3649439253748166 0.06559629784357089 -2.834450716573447
Ni 0.22501166906825526 1.9797645715495158 2.203616314034032 1.8285994215444636 -0.2574345322372276 0.12573697188920924
Ni 5.575020414645948 8.230397608662578 6.219162867039097 -0.5581209331845549 -0.0477430717122339 0.4818578996557572
Ni 5.333201550261084 0.9881823124010188 4.066118412844281 0.4489079270922979 -0.8706953438187198 -0.44802321049449934
Ni 4.132560134615027 1.076270987938582 9.971631496369472 0.3232935968238819 0.48832345277544287 -0.8243275551874577
Ni 1.5295439989331792 6.0761368751755 6.077547571312161 1.686439785322857 2.6298832075385805 -1.5967926171776694
Ni 6.898698577231132 3.4022290321733064 12.247828220555885 -1.3509658443826993 0.26586080862770983 1.8025384627913537
Ni 0.3652669860961996 3.5440781916406072 7.987817982712671 -0.13570231063203725 -1.670154417899272 -3.0809367202189715
P 5.573433146689252 7.696596577190417 8.708262941656061 -0.12253954799783412 -0.16873224450381263 0.02187700257874942
P 1.644306289837698 6.570406481619663 8.657222415124306 -0.08376679810501057 -0.38808153983354454 -0.3170597000990281
P 1.1435091613231019 0.4761043108521794 7.750845451260677 -1.1213149100166429 -0.39793709247138564 -0.33917195861703525
P 2.239907458322031 2.286576893096117 1.1814589536652575 0.8486437633353191 1.0131812530314936 0.4961722593959004
P 1.0901807148253642 1.282071079459968 4.201849546589739 -0.7757756144206833 -1.8842077549373872 -2.931252236375229
P 2.9573150062761 3.4169652654517413 9.61312777450769 -0.3770826176198796 0.022533919436457963 0.0893229520365494
P 1.2194820045284915 5.384970905156388 3.8558270104537122 -1.473736791665049 -1.908249112157307 2.5655585773185816
P 8.607472365617697 2.2594242797067263 9.032001738418975 -1.8828167881271316 -0.8866001879744344 0.3539627437729646
