# total energy = -340888.91406511277 ev
CRYSTAL
PRIMVEC
9.07109938714093 0.00000000000000 0.00000000000000
0.00000000000000 9.07109938714093 0.00000000000000
0.00000000000000 0.00000000000000 13.27647087386186
PRIMCOORD
 96 1
Ni 6.495977333574609 1.962369006960951 11.222746551185102 0.8474260888781341 0.008834567572494463 0.4498682341230381
Ni 4.513298135765399 0.21987799912786493 5.7617090542605895 0.44554826659144553 0.03428077555974096 -0.5673450228859841
Ni 2.9986967217708442 1.8221207440288685 4.49465612003862 -0.6578581385758928 -0.3658417545987377 0.8296615658058615
Ni 3.4533492789417197 4.6306509446103865 4.7237412847363744 0.5748572721026293 -0.3903101720537472 -0.23829909695935733
Ni 3.8099704683157505 3.1044385237887786 2.5692364209750402 -1.0104630827693823 0.019627030202308132 -0.9956666411864981
Ni 5.273002684019839 4.954979021246676 2.807163185949614 -0.6762803498368223 -0.12649313332894344 -0.6255689395248839
Ni 5.1511687522275365 4.918767193704805 11.195848021072399 1.3300301226712965 -0.851364761810908 0.4530957399214003
Ni 5.586273090873179 7.983456161309094 12.439760581532013 -0.12169108395460977 0.07063283182621384 -0.02225983983946489
Ni 1.8698982229023746 6.394272170648892 0.23784421797291264 0.6055040504542087 -0.09177732711431291 -0.22878267282848988
Ni 2.842193049280888 1.7242163716191947 13.297712389741491 0.5026797214971149 -0.06046797547807006 1.2422724582393379
Ni 8.405752108048643 9.052512401612743 6.65051620600305 -1.3025092915432084 0.6271509393000232 -0.3833728215039655
Ni 8.438435278046981 2.5610978308772028 1.2851207493767534 0.8261584377486094 -0.8869166907735888 -0.15945647562884152
Ni 6.732306678000555 0.9301232867386935 4.527289398991997 0.06979490930595075 -0.25466622546347106 -1.0302335805280902
Ni 0.9483289825995491 7.376980618775418 2.30130336734171 0.3923940511659693 -0.41478707414918886 1.1294455095435774
Ni 7.725891373928359 3.782766242163929 3.4666992154631053 -0.1233525308174327 0.3136061943327889 0.5679168362290542
Ni 7.487013050659913 3.976914975850971 12.352255317111819 0.8129259982187355 0.4714505882795042 0.21893791882392616
Ni 8.182548643996718 7.579066564160641 8.92991377616769 2.834344015792254 -0.39918536305618996 1.3175355897487115
Ni 7.158793472516742 0.7841203185479528 0.2815143031813488 -1.7707272318180276 -0.8556021969310234 -0.053423667036778956
Ni 2.287676762298273 6.756644436841947 8.99210069593555 -0.4185894786144146 0.04401702901089839 -0.31319841737140897
Ni 0.01994371844528016 4.763388337501218 1.4805784426615645 0.6069798636687869 1.3475876719390856 -0.5736966761356249
Ni 6.425141120830502 1.7867706708999425 6.671931256719696 1.131713736752464 1.351449725997653 0.21450225165007578
Ni 3.407304379993188 4.414940208401544 0.3368244227339055 1.038994871660488 -0.43800439280591663 -0.6783308046079479
Ni 6.405384267026345 5.795579631128974 4.63858634208875 -1.4796220468012324 0.14846963760003462 1.935061604364461
Ni 5.30646596853937 2.900356936605156 9.119766437328721 0.4940408148751943 -1.2684624863711444 0.3631199847922004
P 0.16985995878070093 5.637207312227789 12.471650937470441 -0.3987914700518809 -0.0217715873491367 -0.911172992217792
P 3.8952660129991714 6.186308153057474 12.483546776808721 0.44569430525100656 0.4691342814415017 1.7214211864940483
P 2.387322785732005 8.662337216728346 1.3570545651099801 1.055010273252138 -0.4800285597565023 -1.0622024201252027
P 6.454939681320243 8.06661999770786 5.714325261087313 -0.46608623864379733 0.14190741100148463 -0.21703761647741976
P 4.820200631062026 0.9508507481447996 12.625352547453463 0.05524580784718227 0.47525453540662665 -0.5126129214504268
P 4.5922076266939404 6.338040427429438 7.905845651769329 -0.8488630784349768 -0.36383989367736047 1.4172031182443785
P 4.632900577183127 1.2307939369648628 3.2776820025276754 1.2112492703849462 -0.25392034843638206 1.4388811174384444
P 0.20087132521792428 5.714447720924943 3.5811021028860948 0.19524057520698634 -1.6301357114144894 0.2515999278333215
Ni 0.7522181701807166 0.02887602971293565 4.191660547117315 0.5356914005364452 0.21796629893927622 1.349318281476947
Ni 1.6296592347713823 6.840833307437165 4.654385475362717 1.2672651236289336 -0.7119469500004965 0.4710500104069758
Ni 6.431708596567054 5.90905908066525 9.103052030157217 -0.7175254725295385 -0.776384708759592 1.2501559747524726
Ni 8.893858878639966 2.21834635200205 10.014083374654582 -0.41925950809824575 0.5838594756012396 1.8341910566996282
Ni 2.4334221112750387 5.300252265667079 7.008674946671757 -0.09272220752608548 -1.0386410878654952 0.8145352516873843
Ni 0.9890582174850708 9.314658094030715 8.515475215454385 0.2585570758774451 -1.1413358332232602 2.181332149565069
Ni 1.4628235804251652 1.0747347483300045 11.482965542157707 -0.06940333029448693 0.2432155604243682 -1.41766925924752
Ni 4.094313140191376 6.875103919775138 1.6424721622270169 -0.6032887879704449 -0.00874920694753977 -0.7431382880016363
Ni 6.284548156133242 7.955362967447077 7.924061325839177 -3.2492169647870304 1.3102012608708273 -1.3155982635166825
Ni 5.376948408419214 3.1670653918621956 4.58715321028454 0.39647130655913654 -0.4881920694039011 0.2033079255961531
Ni 0.9149019824763538 7.481779026488654 7.032678889066872 0.1450202455988535 -1.7542662580485273 -0.19303996801124174
Ni 5.448891295251524 4.395836473731408 7.428809250499675 -0.013780598723860138 1.0082161957167346 -1.694191661354134
Ni 0.7865949143779685 7.453023642393531 11.018607816077251 0.5339332801947578 -0.6458081493898942 0.32032011601785476
Ni 4.738905441074488 0.5126159732053954 10.21597882695905 -1.200049802124701 -1.0558250558439493 0.6427516219517576
Ni 8.160614726412488 7.35659785913449 4.749697327654289 1.62162356017842 0.5106198022797981 -0.5393696207189808
Ni 7.4982158580282015 6.250522463470526 6.954135870541309 0.8886619555994696 -0.9625752579491682 -0.9891180414347032
Ni 2.513637840471624 5.280341203178501 2.4050458991216113 -1.3784149417325875 -0.4602925147801557 1.009668354782229
Ni 2.493300436326114 5.346877714956964 10.917640133507033 -1.7061717165341455 -0.8093364810952642 2.255529815924406
Ni 1.166298422480217 3.4081570633070495 3.855566347859642 -0.24047836399886327 0.8451172382392994 -1.2104583990525346
Ni 1.6575165800572258 1.329015797842464 2.38096213105456 -0.28551509252352764 1.5257982882469787 -0.15154544831188094
Ni 0.9911808546706414 3.474720788382764 8.36316692629061 2.0501333832303406 -0.1696025629239079 -0.9809326774104331
Ni 4.009199017489628 2.7205586816684244 6.719433881290968 -0.621622039061994 -0.3485847672905029 0.030909287984346768
Ni 3.817417840663415 6.794842835083134 6.006886348732713 0.2736175697549933 1.6226540583254636 -0.7290399009270412
Ni 0.6040562804080709 9.357655103687145 13.591918974760661 0.3715771144206181 1.2779087193857088 -0.22830496186112292
P 0.4046091177462772 5.568130892705908 8.20831056539424 -0.13161579926748945 1.4624697033916618 -1.2639995655037843
P 8.694149561214655 1.7174856160991374 8.002379381107465 -1.4928097491361 0.41698125358703025 -2.180831812889883
P 2.160962579198974 3.2554723235313032 10.376119103071636 -0.1389526992485349 -0.20736666904655898 -0.37672446294951245
P 3.8952206575037533 6.477227371768735 3.860279690943499 0.8789074473158671 -0.2236893174659825 -1.3067253865070851
P 6.999659181292532 3.8998922735318255 10.084302752661001 -0.335198575791584 0.5025563085453733 0.904628763341371
P 6.325105040136174 7.9835922277953495 10.209619079391512 0.18720613493828403 -0.4324572377354423 0.2941604269033514
P 2.2808915801837144 8.628375021759217 5.797622442642609 0.9025430844569359 0.12205103839718981 -0.8419444969382726
P 6.732515313279478 4.171607975483031 1.3702911128928204 1.168538104669665 -0.8025423409915663 0.34656156621288703
Ni 5.43123893643477 2.966158689357845 -0.011014128507349752 0.3089267865792486 0.5798855785551561 0.973054560213937
Ni 1.6571446649947967 1.3825987801294963 6.647953620511923 0.08796078158170013 1.57655932084993 -0.21256286853551778
Ni 6.85249874085872 0.9059814636375069 9.127360761481542 1.178999666322621 -0.05148402681190488 -0.5436638772189605
Ni 3.0227169921443098 1.8528899121205589 8.91957090899253 -0.4384664200439997 0.11739245657925589 0.6071706395233543
Ni 6.20853234581238 2.1726642970168637 2.152434838950449 0.04170997814427655 -0.4337649008032723 0.9856694207644703
Ni 4.111920143512712 6.90011293994872 10.547996474288537 1.3065461806167433 2.4648834334940064 -2.1073627971664544
Ni 8.698920959332646 7.41079767615921 0.46706363493710495 -1.7974042268885817 -1.6991058108262995 -1.3651953577185199
Ni 7.748950107798959 3.874103138837051 7.953787317536249 0.23827055771426706 -0.3636082372825286 0.02631292686291597
Ni 2.979529489407123 8.294495077787857 12.364469552027934 0.3467713682308479 0.6807972638705695 0.31194783279375954
Ni 0.03921164000882949 4.908008870191614 10.237724972792249 -0.23659342712216028 -0.15357044916170973 0.5384195981008856
Ni 8.6318764660055 2.3928108006776045 5.6590822676679755 -0.22887857497640585 0.8005427940630342 0.7520474175658081
Ni 4.204663060543798 2.723787992942199 11.411484374268754 -2.2424778678364543 -0.14340070771755947 -1.564191029092564
Ni 1.0944190333414927 3.426725603131251 12.345112733693364 -0.6476650000929749 0.5106794518731399 -0.11758297532350717
Ni 3.331406493960413 8.780370358004607 7.851903453958585 -0.1841390659771861 -1.4486829340202148 0.0985221020373142
Ni 5.842214151517943 7.869858787484731 3.3547645741007734 -0.507088649198088 0.5028360445693211 0.4360776080968489
Ni 3.3290752214959185 8.479971840750947 3.4289534650661913 -0.9780617836205414 0.7723933282120117 0.6211929219443754
Ni 3.7452844607503484 4.606367612363496 9.157591106287665 -0.21716488608390339 0.17314117220478567 -0.7577082153960112
Ni 7.415478363286366 6.379259501665476 11.394596709104752 -0.09226326561179593 -0.20036761202090655 0.4284679140703911
Ni 8.233936420305511 8.93237476534908 2.439671191433755 -1.0024584672973509 0.8515200564418497 0.04584405491730815
Ni 4.739749053289265 0.05002529722643091 1.4717767552207133 0.32988461977783834 0.9766587326254277 -1.5416072302547774
Ni 5.952428005384109 5.915408850023795 0.4931521159016396 0.07712949529415104 -0.12959054130734457 -1.326928343817521
Ni 8.039098283088112 8.814087633298477 11.27667514234722 -0.19732265454699566 1.288917926012019 0.2010911204504924
Ni 0.3432159191482348 4.82831926474188 5.87019123531169 -1.0966418327499954 0.47726308119622324 -0.1630130826318483
Ni 7.4274612851758475 6.213766369983637 2.6734560925667408 0.359174112770575 0.3659607966751052 -2.3488539187005486
P 8.664332858526745 1.779568218227536 3.613895033183344 -0.34129131895288317 -0.6552420411092844 -1.4435142453350818
P 1.7289605564399357 3.389153110726834 1.2067954372291978 0.4601004533740076 -0.9033946338239539 1.5396323659165936
P 5.046107282640874 0.9357655103687145 7.913068060859719 -1.2528751734558488 0.8687644453445942 0.7408062974343499
P 8.469367725922176 1.8181113182339017 12.27995140053598 1.1499402870628195 0.0010459247660111017 -0.24430750793696632
P 6.687903647986161 7.878866388874782 1.1790378740332743 -0.6024750338198979 -0.31087851098898067 0.824480021604922
P 2.084357147437676 3.483356474710385 5.805535162373264 -0.5572562711914145 -1.495335086661115 1.4755370780985815
P 6.976908864790776 4.150463243519078 5.8308934198615665 0.7924057667781965 -0.9324637832757683 0.011886981245573077
P 2.4329685563208567 8.690158277617854 10.07382744743922 0.9579840390340598 -0.07019908672290491 0.39468053320730095
