# total energy = -340864.4165560991 ev
CRYSTAL
PRIMVEC
9.31519655164731 0.00000000000000 0.00000000000000

0.00000000000000 9.31519655164731 0.00000000000000

0.00000000000000 0.00000000000000 13.63373174783371

PRIMCOORD
 96 1
Ni 2.8393836325102573 1.6773128867533493 0.33437549393560106 1.3391153728020162 0.013530430386267021 -1.4451592371376725
Ni 6.5363708177909325 2.331658854975345 1.458823093119061 -0.2669794956131854 -0.43940615824944973 0.38207544284878064
Ni 1.8540407920719868 1.978026055607253 10.410349528447199 0.08676367594980541 -0.4934700299733889 -0.034806823266540055
Ni 0.14525837745979553 8.038930620853703 13.230609062832896 -0.03322328082950407 0.8682563953599242 -0.6985682147007453
Ni 0.3794657019102408 3.938213510187456 4.901762517224741 -0.12714439375969716 -0.42522241054989995 -1.4381169855789102
Ni 1.3083286437859996 2.102551600531328 8.09733224442503 0.8907653750957174 0.5626794990895149 -0.17974710755707754
Ni 0.2038211539281284 3.846216630948216 13.434774879026298 0.6662119098572268 0.4675098584642013 -1.0796123880715343
Ni 8.953831946426934 1.7876234420339367 2.038788149935892 0.22203609813327568 -1.280824607480923 0.5793705865919506
Ni 8.352200674399233 1.6982068721860766 13.357102908747578 -1.008254762264154 -0.351684232151433 -0.40764120713302693
Ni 9.019355037614542 0.4118285570998893 4.276370042325083 0.017433107874782878 0.6621742494527435 -0.9559122441066956
Ni 9.234470867127683 3.9780080290321336 2.1545657939594434 0.956652721817146 1.0724174129849917 2.0610384601786182
Ni 1.0782805545097462 5.966821082022845 3.041917426301603 0.3005349629711276 -0.2589144592168638 -0.07637359096473298
Ni 3.941119851451393 2.6081152525110043 4.7489010764969155 1.057483417382979 0.716756712684314 0.531256247583227
Ni 2.1232779124295975 7.0910069241886236 1.0070444533953031 1.5443948203022435 0.4570986904332063 0.8640220455636023
Ni 1.7608701980915413 6.130023322228545 12.663486867235905 -0.034324741423798946 -0.6262621089371666 -1.8080390808946085
Ni 6.2829136400650825 5.310928791205293 12.26648623969991 -0.20536789344897532 -0.11954961213157475 0.41812436605253794
Ni 5.689489056029461 1.016502172258365 11.76505108274644 0.8143997545507845 -0.2014572455406595 -1.2930782280372957
Ni 8.31321657763777 2.8858571471441743 8.02846779230353 0.6410896608683023 -0.04897360168522534 0.3961784579090661
Ni 8.175938528898534 2.033376952371081 5.822625568467586 0.02272829483545118 0.41072473115435715 -0.8499539975063105
Ni 5.397662584501827 6.710611565681778 9.769031793852584 0.05464494103838976 -3.052243723159653 -0.02618411459453555
Ni 7.7872712760250975 5.500390569946373 4.146031814873134 -0.6524007150057474 -0.972422840167209 1.1578551710345222
Ni 8.482445749887596 8.5168560852369 8.796497348407625 0.47050596497804775 1.183768034245542 0.012293215545056246
Ni 6.934316006237706 7.575378504452092 5.6802763268306355 -0.8384030594439175 -0.5880115500964002 -0.6530308923905785
Ni 0.17274845343416995 4.074289898596409 10.72547889518594 0.6103346390736327 -0.22646636599048742 -0.05724535477571431
P 0.5323634719038659 4.2671796695975175 8.189304904153737 1.6442567241969037 2.0304191926308643 0.3098117602873632
P 3.467777463676712 0.4098947223358081 8.192482317631715 0.7624341601167708 0.3718825614761789 0.3147207675532064
P 0.2305678772330728 6.160586481481679 0.8127583344600144 -0.21247262281455664 -1.161529791672632 -1.365503375877242
P 1.7758117730510128 3.24394261037176 1.048747655973893 0.3017032722476159 0.5914290604183814 1.0903518859762253
P 4.208121324682898 5.363084575618062 11.585127133557108 -0.7862950258947684 -0.8186366754502674 -0.6144944268782772
P 5.160479054814753 0.7292429415054369 5.768881543075646 -0.017284498112060558 -0.05464956902408008 -0.7298269156047108
P 8.88167643543188 7.589174310259435 6.548758165908829 0.6590292760658586 -0.49357698786489834 1.2292876159438957
P 1.8515536346441945 9.246757611124904 0.7422069002779409 -0.5955315126225292 -1.0919552259076033 0.24217554919562806
Ni 4.3124794694902295 8.171141202773766 1.5771223607969325 -0.6023835025473562 -0.7832642094882446 1.6080705040843335
Ni 5.482756903239217 3.9697733954509786 3.6088076735092605 1.6666536038348652 0.7433072094793327 0.13554958710425688
Ni 0.3532900001420892 0.3067074977107741 6.893528487461184 -1.2226148319094106 -0.3152923237859602 -0.08318110080486965
Ni 6.075445586762495 8.873870300883228 9.219756582959365 -0.8465938227848259 0.9371735300466117 0.9489594669379463
Ni 4.002665353793805 7.125379998752496 12.725793421120828 -1.1537414059764648 0.11506766510082118 1.4676288789950984
Ni 2.346609745131176 1.959162782980738 3.2374117262046243 -1.190150797843434 0.25096743645564523 -2.204298014332623
Ni 4.343023998350645 7.764542196909692 5.077815070807367 1.5170225989368775 1.1830450400365884 0.2940077033755711
Ni 2.2462291891690396 3.7107084695171477 6.424527912709326 -0.20073913642771235 -0.5110368352125585 -0.16787452448920767
Ni 3.318641169972759 5.406549281828096 2.587586422775541 0.984333475561866 1.55893209468647 -0.8008901501001239
Ni 6.452422268205671 7.1078860599907205 0.544948302184568 -0.6032329950318449 -0.11257369503437387 -0.2785042084233333
Ni 4.165671974875971 3.267333068428638 1.8545969092946057 -0.30984441329751156 -2.6459230346102625 0.2162194914514986
Ni 7.778859653713126 5.060173020423488 9.156250231783432 0.6674064443859602 -1.4254591876055838 1.6366642565616265
Ni 2.3008069246350895 9.164783883167702 12.111880062694086 0.4437569790189777 0.13216550112337236 0.4558337076778537
Ni 7.482981071769426 2.576369063320307 10.405877302675352 0.382144091303187 -1.434219450296717 -0.5860024900861714
Ni 2.314612045638791 5.453106633229242 10.272716570726695 -0.11096649844825406 0.8133085783691348 1.1780591567862229
Ni 3.704579070313075 8.113545343687473 10.015911511429502 -0.638417513352778 1.606591348435646 0.04030101361189188
Ni 6.0204486674603 2.836915105475182 6.153489233375929 0.6626905269675296 0.8798980933639103 -0.512948964633607
Ni 2.2850921883778397 8.42221369023177 6.639790922324936 0.8079131183851763 -0.5330876443650109 1.6187626936908572
Ni 5.701971419150216 4.824563758921048 8.270903229697678 -2.258627481013123 -0.5478264932370823 -1.167176448435448
Ni 8.332424512529558 4.995851589566162 6.455639737027992 0.016565617668165018 0.3427028545884292 1.3319340245622286
Ni 4.8692953318358745 0.37831341212066066 0.14756016248004827 0.4212713963219519 0.7456114321324773 0.3734529912870923
Ni 7.872328333977053 -0.14429611767593428 11.372904604033003 1.2149550013713075 0.2577533490292271 -1.821146307700528
Ni 1.9753805398413615 8.677375548891275 2.965895177298022 2.2214123054154062 0.0805133241647194 2.026937147619535
Ni 4.034532640537167 5.101746741772691 5.2135393447939595 0.3560386524653868 0.6602515785087338 -0.9788719382266624
P 6.988754013758374 9.196157464504049 13.233158632076291 -0.43996254497355197 -0.5998944175769152 0.7028442163682799
P 7.446642490773852 7.2466638553437175 10.248094643711186 0.5923209761050315 -0.7865945594130582 0.46963230412384277
P 2.3843362903842054 7.364296154962301 4.867365223150336 -1.295802568946994 -0.27551530099833843 -2.493663333840176
P 1.650429230061931 7.673942597124268 10.643581551838881 -0.17317408232525014 -1.405867124406269 0.5924431035051926
P 3.800050517794138 2.0778476997878625 11.512800222949053 -1.9530091899818172 -1.212844382786208 0.9129156859405116
P 6.586998910000863 1.9347383381280356 8.198180423244375 -4.049427572321625 0.2909928278086472 1.6143141710012003
P 3.6269834846444975 5.310174260300233 7.263042765101347 -0.8595177299353456 0.20192801452949094 1.7574729379112828
P 7.6134962879521915 3.3585102103883067 3.7346746067089986 0.8588950087496822 -0.46087666941839983 -0.2694909491811294
Ni 8.097299641237774 6.635773278135397 2.268407740179642 -0.6084523344492553 -2.059278540064718 -2.026079941825562
Ni 0.13651979175563075 8.364860026250806 1.9356763784013642 -0.16269709405332625 1.3007665978204888 -0.3407660425770325
Ni 3.080656533398831 3.7950109965640415 8.92929013010011 -0.673288357088034 0.4483397132936537 0.6035055319669413
Ni 0.011283497349381501 7.459143484287325 4.323897105667178 -0.5184002175561653 0.16075462561497475 1.5112556145461133
Ni 2.371602416961763 6.89542506143983 8.314912874894702 1.2599552202310818 -0.6960521331471109 0.21711834911668415
Ni 1.5951062788871793 9.118012282250305 9.00516147292268 -0.4492023184042651 -0.06130769777054603 0.5069498096273785
Ni 0.2714084926288404 6.534246953021132 9.214098532691047 0.5222602147322039 -0.8266333205024989 0.6180119531132324
Ni 4.945372540497972 2.979279251426307 12.943156075995704 1.3824759991758384 0.534355455333841 1.0036062077485488
Ni 2.4215877606229377 3.6602294204489576 12.02585142976191 -0.8196980268352464 0.057776287578519846 -0.7919841058597457
Ni 6.506245472766661 1.4994764730680177 3.8802143030988288 -0.39956820031690543 -0.40185751057171437 0.28593623922134626
Ni 4.712194545245171 1.8293275761321626 9.732547895793815 0.7868048756516515 -0.5289036881906504 -2.792720169603881
Ni 5.336675993940941 6.578997156328677 3.231371752885596 0.5926431353311405 -0.4913565831748118 -0.09419596385813454
Ni 2.707545658444545 0.7449083072219851 5.150114967345983 1.1256870709424098 -1.464011336847169 0.007672171833277108
Ni 8.726261699382114 5.887353141886154 12.25729679849198 -1.0138255714837119 0.1412525510263051 -0.4956863208984172
Ni 7.389149098847507 -0.07811816818430464 1.6925460273588504 -1.3449286370496836 0.24294508037180093 0.8068916190991976
Ni 7.517326200744221 4.496435967183275 0.846076928796073 -2.4702598673145713 1.1410504407723574 -1.0760856058651982
Ni 5.7145562494309186 4.026102387832477 10.248625609903637 -1.1288958076876945 -0.03533955584155849 2.412755859560832
Ni 4.742198792716779 7.321735022799068 7.5166443283707585 -0.7388504592595598 0.23208885438358737 -0.28731537895706
Ni 3.4772882791590187 4.548060785403594 0.10490494683359172 0.0369089572112074 2.973024692326325 1.1256832142876678
Ni 4.209313669816821 2.610034182960912 7.469158251892642 -0.04407153639791765 -1.970652356984877 -0.7495143667313091
Ni 1.4484757730037363 6.013611313332961 6.229960474844003 -1.2121021053035448 0.17160930894129153 0.2855953109421598
Ni 7.057695782009653 6.811113219196578 7.967184978498436 0.5269434791404861 0.9563989539351271 -1.184338304926715
Ni 5.805584348248846 7.793521772781834 11.704449209795174 1.54203274782797 1.410875633364454 0.6018633683778281
Ni 7.016066169482297 0.23242812194591972 7.208426837330227 0.08901159144371766 -1.2728901831251949 -2.497058989785286
P 4.741108914742802 0.929840105973794 2.66093614194379 -0.46990586950020363 0.6240033948099769 -1.1044356177628012
P 2.2168863206389053 4.124256611864866 3.7154648087779374 -0.03804538480849577 -1.1486282531196153 1.5243247890252458
P -0.18893267558790183 1.1576646578792082 9.612652934979685 0.38793395851208673 0.5992418715945809 0.036975548783084705
P 7.684310410671582 3.592535888509756 12.235824339365374 0.08455227012078341 0.8931169060470296 0.5854921261086562
P 7.0479707170110935 7.7814865390863 3.53389020679383 -0.4649045596308703 2.4905121898057043 0.9312617925478671
P 0.981449088360303 1.7859280762966403 5.483746177092518 -0.06552147874157747 1.4145520537747767 -0.043433645703602614
P 6.186315053824609 5.218559304111703 6.35025133150338 0.17460387279324124 0.7098658991017517 -2.577663331001916
P 5.288907667013155 5.130437546557712 1.5590853460874405 0.920796117129853 0.001057751840553017 -0.8968439771896296
