# total energy = -340888.16889633186 ev
CRYSTAL
PRIMVEC
9.08310381677456 0.00000000000000 0.00000000000000
0.00000000000000 9.08310381677456 0.00000000000000
0.00000000000000 0.00000000000000 13.29404057005447
PRIMCOORD
 96 1
Ni 6.446478735515128 2.0715381132545665 11.100045389528509 0.5714665012535255 -0.05713531156041128 0.9222284787010053
Ni 4.668188634829012 0.6763860555405691 5.7755961326868155 0.24040611600003112 -0.93685419903398 -0.1640060426727369
Ni 2.970583746955209 1.8965521147372617 4.4167991987239485 0.21353011754479354 -0.031902505135551505 1.4004490387144912
Ni 3.792940733602563 4.474627688636239 4.870963481717137 0.04965622957454674 -1.1190631378679887 -0.2714167054489326
Ni 3.744609537230355 2.883367782368489 2.4063540429584753 0.7469121532217717 -0.01032246497193061 0.05420502528749374
Ni 4.9912019791982 4.882050318456832 2.3314420510471527 -0.0619036794833321 -0.2559615472361269 -0.6523078981816249
Ni 5.474686521896235 4.546120800202795 11.350877123048106 -0.14850743281650552 -0.35180250289685217 -1.225089004481516
Ni 5.598743556297967 8.023414586778372 12.456662378531908 -0.3044404686731208 0.7075596195660782 0.40539920517638567
Ni 1.731194206457607 6.163976034976056 0.4542869048971589 1.1921194915340307 0.7605271729020451 -1.2974349623440944
Ni 2.988441129414852 2.214124679811777 0.039690439539115954 0.2686633110735115 -0.6593318949079419 0.22128790711334145
Ni 8.32593644852856 8.891959157254457 6.805485696096334 -0.8241105540806452 0.4131582802965143 -0.19878844045924474
Ni 8.750389898344999 2.464382361158717 1.1409096186432302 -0.010048385374937534 0.1730884645899793 0.2935503041231783
Ni 7.223238540093607 0.8280121271963738 4.761087897587145 -1.0055967558160166 0.05904512698861444 -0.565055455520859
Ni 1.2162094590952577 7.35925802246042 2.545742448598066 -1.0024533250910284 0.6044833224991782 -0.14216554975887774
Ni 8.11724305107548 3.6524796133808337 4.06300412321667 -1.1948518028635293 1.227968125801524 -1.0531799049116184
Ni 7.579078222310786 4.142449492333286 12.576109737654763 1.2145551948297277 -0.575436541644867 0.21510851777550696
Ni 7.788434686355705 6.733314076661143 9.293345156158122 1.04769677030986 0.7024703779686288 -0.5612751625428205
Ni 7.015317206480337 0.632085032412178 0.3951268319387933 0.1917734425939923 0.6413182319393407 -0.851368875575966
Ni 1.6847522957169385 6.7829986555290205 8.962616623253217 1.4773106250592365 -0.42833678780916556 0.610715162341503
Ni 0.022725926202455116 4.888453906775269 1.5370437668153778 -0.6203642553954929 0.014268336993556074 0.44132600097998187
Ni 7.1177110378473545 1.9834138382680682 6.8488502512025535 -0.9889989993583355 0.1219898461419512 0.01723847536547354
Ni 3.7567445641713944 4.397421304655076 -0.3984276319315879 -2.090934733517418 1.3417538388661276 1.225131427683677
Ni 6.095589344976741 5.590659593739939 4.799162452925056 0.19421547637658165 0.9537149793450607 0.31299118645660934
Ni 5.846703212333467 2.9775868201375006 8.821274441943704 -1.4169449794869855 0.4588817504755581 0.1729568241081215
P 0.1382248600174746 5.768388689664574 12.313312831238884 -0.17741588832073962 0.006000183447492892 0.7661450333094547
P 3.9860656908034424 6.478269599507372 12.35811342508715 -0.5652076648280072 -0.8752346264499702 1.0472362857336739
P 2.630112676702281 8.52008779648119 1.145767262661245 -2.082226407110143 0.4322356086429395 -0.041288574336141796
P 6.4643452010787685 8.0327247683761 6.057482998774838 0.24388507568756707 0.6720316018627975 -2.423665050274168
P 5.0088050347459045 1.2019671520267328 12.585760535652408 -0.07065982840940734 0.7546478313031326 -1.2736327177181743
P 4.024087564138165 6.492139499311987 8.149978557883491 -0.3623242283637825 -0.873602747273502 0.3999926894488337
P 5.025890353365736 1.3257971088285196 3.683087857232566 -0.5250393201392377 -0.48509800385960977 -0.3112022128769866
P -0.03622069381196254 5.790596878939156 3.6020338703979418 0.509272287112968 -0.1686797939993224 0.07322758913658356
Ni 0.5845340746733799 -0.08183876702003222 4.611290254766094 2.071119241453388 0.7249112234706483 -0.21001027731699315
Ni 2.1530317223226834 6.3906630614487465 4.610918755812585 0.03861205594524318 1.3714853044922894 1.2104496573017864
Ni 5.765082439809381 5.5448716664871105 9.16445954367117 0.3933643854990387 -0.09926875039535162 0.0021766959363446383
Ni 8.96936536952357 2.42846776795148 10.267838684905955 -0.7599059943782784 0.16613800141407517 -0.7073657583877173
Ni 2.597013845734356 5.342509192520485 6.933573812052281 -2.049465410629038 0.61606357113761 -0.02083416313653186
Ni 0.2942925695281957 -0.3173191464729775 8.958814435919745 0.4186175036388725 -0.10161591047128951 0.4941883961966521
Ni 1.6006790851134514 1.2344210826108144 11.51697348768278 0.156240282684389 0.25198327931466924 -0.8841234442991677
Ni 4.214333177371748 7.0828500847038605 1.350448653078505 0.4041090256100524 0.3701794627421431 0.10990668972517202
Ni 5.81783710782851 7.894598005881803 8.0335486059087 -0.9857324127919218 0.4306860047676324 1.645193119968244
Ni 5.793476222906453 3.3429455953443568 3.972857949280265 -0.8083471205988014 0.10446366433272976 1.644255181535007
Ni 0.9439706660736813 7.4484086881986675 6.6568316160686045 0.5988582630029171 -0.9114750968392432 -0.31183856090940487
Ni 4.785342510192427 4.75606766600757 6.987175025364004 2.6382799162427077 -0.2706330332053726 -0.24224342631908602
Ni 0.8561524916919079 7.532817973650073 11.2271234643199 0.16743640851052455 -0.17584777250267133 0.3391040814935773
Ni 4.654718391600299 0.3711438041430449 10.372608656278794 0.42662443310374915 1.1432309933634441 -0.5495290777504859
Ni 8.053815735858956 7.495677161403135 4.541284047323975 -0.9691860783974664 -1.6806229215307638 1.4449054692556533
Ni 7.196234471908196 6.1616507603526225 6.901268844373764 0.9924257656516973 -0.6382470492131846 0.4437274113326229
Ni 2.663220590774203 5.420160648597538 2.5903704634703772 -0.6338334935265213 -0.7523163549564785 -1.0597501019299684
Ni 2.440530130060537 5.426091915508091 11.110055878444465 -0.13745477454676971 0.183638986412316 0.36271555026493013
Ni 1.3492587664547953 3.3666161643625814 3.63327429828792 -0.27606680262643424 0.7262638808438008 -1.2103041328628574
Ni 1.8021786642002877 1.4051561884571568 1.8887642613695617 -0.906866137312322 -0.46207146105744934 1.1567529391092788
Ni 1.284559816678581 3.4576742819403643 8.007226678833522 -0.19764738487626607 -0.47581323612357407 0.19019067148790472
Ni 3.5865726107729143 2.6585337091113463 7.03464786840842 0.913658220533491 0.8910901054249878 -0.6261170987188701
Ni 4.372097610709255 7.2400786149054985 6.022945404133665 -0.2533585623956411 -0.6649322718138548 -0.6105225867147227
Ni 0.5686658919892515 -0.10249919537339129 0.04946658437193068 0.7445881330742854 -0.00011569964225786526 0.505435172755065
P 0.28590432298624235 5.651053152221203 7.851247983741979 -0.3839911718142548 -0.049910511677197913 -0.3018451971421188
P 8.906237796738973 1.5574980087079873 8.028936205698624 0.5668925087295978 1.2708826657768628 -0.4079456257473232
P 1.8858976337478612 3.298638214043167 10.33224788366464 -0.11466888700050575 0.8010392740834785 -0.965848272273485
P 4.284618236106599 6.201997908310779 3.79430501582303 -0.6427901884991769 2.1453071376207116 0.021588010583420886
P 7.350510993310555 3.9922058691059443 10.292764538896677 -1.5589956009345538 0.5082374180905506 -0.3908681014397462
P 6.397829630502998 8.095143859048871 10.361242059935968 -0.4981741203172775 -0.3948836503570425 -1.024690539222674
P 2.595451551846738 8.64357259533106 5.6457667856944935 0.06402381115012845 -0.8968910283774811 -1.1627394957100168
P 6.826243313662469 4.09796953205614 1.6168079528823163 2.357840438469875 0.10262866800652004 0.6061411698175755
Ni 5.440552217072564 3.2180074998548407 0.3569078552473183 0.3067390348993104 -2.4242438055957733 -0.2633344426614304
Ni 1.8318894973770385 1.0874564599266723 6.85661448849986 -1.8433614103449867 0.8532516944209757 0.1743565326691255
Ni 7.0571903159101215 0.7532300236722199 9.031439302244426 -0.5868584103285636 0.10298476579435813 -0.02370197160263015
Ni 3.0326213472600725 1.6911013854113894 9.024473469788525 -0.3640844055879988 -0.4888623559980484 0.9159099926821451
Ni 6.692131283135191 1.9673821597119798 2.465951921529534 0.8880343493177996 -0.5976251619267643 -1.202199244367536
Ni 4.175648237445187 7.150210383951425 10.35918201194927 -0.08946950491674269 -0.389664053829316 -1.0798589568647015
Ni 8.144392448924856 7.182273741063602 0.5978489968237313 1.155537578644939 -0.8719382150868854 -0.7234752623550702
Ni 7.918250408692031 3.9702701729512966 8.082843519615073 0.40981378930431356 0.3924171910944209 0.11957223783939408
Ni 3.2776653269122846 8.750444396968986 12.268059898811524 -0.9186903836407597 -0.3663189513454723 0.685367142629439
Ni 0.25365748717331027 5.091724691141674 10.1922490934364 -0.48829954151604293 -1.0922935830836284 -0.44254573231969596
Ni 9.223710447669513 2.2527187886983606 5.489680909975776 0.5839034414652977 -0.3391439335925772 1.1267630776154078
Ni 3.6880762979481485 2.760764044606403 11.155534980161368 1.984432955708737 -0.4288471517866808 -0.2116732668417129
Ni 1.1557250695740153 3.6412074813195843 12.57354376077539 -0.5365275232844954 0.4500394695935797 -0.013908896771608304
Ni 3.116131405415697 8.517035873537935 7.890545124877991 1.270308795551264 -0.2678570131221322 0.5518024471656948
Ni 5.416954312886321 8.088722104522438 3.710592404448255 0.6483332298045931 0.2280743339075556 -0.005672110684112812
Ni 2.974407733738276 8.961835476309409 3.3693083963875248 0.6343883375887267 -1.3763259204140426 0.07213049941766288
Ni 3.567816001017491 4.413198656299227 9.097670571665065 -0.38045256253337706 -0.4342834923109037 0.24897071774059057
Ni 7.122942905750079 6.433508063006292 11.621769800057214 1.4576334583452832 -0.4520621564505634 -0.778710014458659
Ni 7.879583634973466 -0.3007615561954174 2.6383882927546614 0.8990561543496001 0.16906803057667658 -0.5979987432160991
Ni 4.477616029851509 0.7401657951922074 1.294133408292245 0.4428475798308309 -1.0216985464738855 1.2966111808912186
Ni 5.803458554200017 5.672225867640037 0.11888148174379418 0.5939960498146093 0.7043238862375999 1.2456624577574935
Ni 8.078894185996836 -0.03584465330645428 11.145564456903001 0.8118425353465695 0.4101020099686937 1.139785972237637
Ni 0.38647245044970485 5.010748819001431 5.679068169881568 -0.5152192487250223 -0.2088810488085564 0.31128525950909613
Ni 7.003100431603318 6.223461283057542 2.683096238942153 0.5128304367778717 -0.6855563758221097 -0.6066286509769552
P 8.950363515960207 1.5341271821216893 3.3165973272675857 -0.176736859975844 0.7981868922363479 -0.274890780040462
P 1.9970475773687417 3.68610526438063 1.4743494580914747 -0.7328538753564927 -0.3491627512811599 -1.5246878287916195
P 5.009731511353679 1.1499754647434182 7.859676195941523 0.5035868066924165 0.11821520959086736 1.4854180846577194
P 8.702249447156744 1.71224685151823 12.386908681380925 -0.47499331132544 0.05938168439242676 0.4045003475112001
P 6.370907310253567 7.901864489080029 1.4066821499287847 -1.955272789205013 0.037009487344813685 -0.18541921824119034
P 2.1035106393267657 3.4794283160150568 5.706333831462115 -1.2814943798544383 -0.2989020553533949 0.8594174569120554
P 6.769037924684427 3.996847335248812 6.090691735301136 0.04726587496549924 -0.049203972528476546 -0.34221923008379124
P 2.2816030594113133 8.774414708419137 9.983850896863247 0.7081232053790321 0.3698503615374985 0.6019042489180925
