# total energy = -340860.58902747085 ev
CRYSTAL
PRIMVEC
9.40600520417187 0.00000000000000 0.00000000000000

0.00000000000000 9.40600520417187 0.00000000000000

0.00000000000000 0.00000000000000 13.76663938988392

PRIMCOORD
 96 1
Ni 3.475801132757306 8.992225705967524 13.676812330438683 0.37425080459803933 0.7662008262480546 -1.984273290202421
Ni 4.220164172951646 0.12828192187071136 11.332780318126275 0.5682729340168923 0.05287859316658635 -0.4634328601813502
Ni 0.8314824017393075 4.317779695793514 4.346747370267989 -2.2282285570062914 -0.7184199593193499 0.3071918061660129
Ni 8.41542124391011 7.918125744522025 3.7288866357445443 0.07286326381862936 0.6349781486539258 -0.5850601807775602
Ni 6.90426184091805 6.976763329650476 5.806355280097646 0.07307563693975157 -0.04547510161366362 -0.21922999614304825
Ni 6.210945191402338 8.978182540077862 7.319805045376466 -1.8084242321481694 -1.9440728067241355 -0.5058871726908191
Ni 8.316432444296714 5.582482948322806 3.580399673922338 -0.0058196920055706225 1.191514253849864 -1.611747438715289
Ni 3.5377867075817333 8.727512499247666 2.1767669015403546 0.457253985064148 -0.06738038632718718 2.0560865154899814
Ni 6.8291925127429725 1.7729379360631736 1.0323420009852486 0.19370716928159543 0.05281354425660582 -1.5809049994131354
Ni 8.77525738207146 1.1369414827508093 1.9927487547561946 1.5902910686137257 -0.37747728195513697 0.5010761244554209
Ni 2.982399719556978 5.49416055870196 8.572073558919735 -1.9967961052597807 -0.002102391054983476 0.781975572583808
Ni 2.2920365557005784 4.878518700825113 6.0323900524873775 0.7339368240080263 0.31579086068893353 0.8920668675159604
Ni 1.846511709398025 2.3288892844049953 10.2060913811355 -0.5844785972424772 0.892038071160554 0.8945695793331562
Ni 0.8609570598986134 6.493087725914253 7.24200985686996 -0.3838813857092679 -3.12946115018192 0.9147558244730439
Ni 3.127158140884434 1.0130361751389456 8.967850983873438 1.2633794154212825 -0.6074868852121924 -0.9482364727289928
Ni 7.752269653341581 6.234921098872363 9.553015503427657 -0.028253595529054563 -0.36443124740445626 1.1769926631949212
Ni 4.427199755267348 3.084793493083338 9.553731300429803 -0.6832814637450038 0.5894886488625589 -2.725820579567854
Ni 3.1257378340864843 3.934701318574326 0.3515710813179164 0.5995925700657803 -0.6281958356247698 -0.4539012665418312
Ni 0.7835230619950299 6.799159137869771 4.601857045592438 1.3944480839360502 0.3232087504195595 1.5921659170389353
Ni 6.595528529467036 4.661550376929049 8.096270781606584 0.20822258928895104 0.2093685299679362 0.0403542354473305
Ni 8.423642092528706 7.865865979161704 8.126020095120197 0.7376032171160201 -0.27636813591693693 -2.1749753541091055
Ni 1.5404779214636444 5.85217193183813 2.5908126699574887 0.4405312729928284 0.504173275323506 -0.7074814580299752
Ni 7.783817395065577 3.5327262767387073 2.8696151319929015 0.6244785346741826 -0.7819382915879695 -1.0703291629973954
Ni 4.516650865522326 1.7825602794691506 0.13294353808967738 -1.1155690086718013 0.6964025745079943 -0.3232213488250498
P 7.535799847725592 0.08483746466296246 4.725936364302064 -1.2413841420971135 0.709932747783945 1.4835841167727741
P 2.266602717411466 9.096726424677598 10.720688286643774 0.25174210983814066 -0.9146550372291216 -0.8518892668558101
P 2.353184996054691 2.491942386010678 12.483464915198173 -0.5698618757705669 -0.034614761860392 1.089269194435008
P 9.403051798775795 6.254241033726592 11.802195477250766 -0.9953329119961634 -1.2920675273845943 -0.17851169248807966
P 6.501816498818209 2.6247551806269014 9.997939305992537 1.2890418531843928 1.3960262270564474 0.08887506586585339
P 8.78857628555422 4.670260337822436 8.56501153015218 0.1543363807934568 -0.20239518397389658 -0.23636202783764454
P 5.13508630696865 0.7004454609207853 1.8369655546348518 0.10786497670479488 -0.928224034162808 0.9003188231121075
P 6.471350447701924 2.719962766115954 5.307122143620968 1.3108409513373553 1.0016508837943912 -1.134237788725898
Ni 4.314083135716731 4.031761887104412 7.170409463443783 -0.34343947564413757 0.41526709910940096 -0.6635451616583411
Ni 5.251090570141589 7.817425051946864 0.9788491083321378 1.6370761472880644 -0.8656055880006382 0.15199333448257696
Ni 8.591068986591651 8.485053901030783 11.842489863288757 -1.745284109154575 -0.16612437456732038 -0.7463233705978373
Ni 6.640649136816471 1.5159376536765532 3.2440117663345567 -0.9420663393625388 -0.6286714897096076 2.799666776125043
Ni 1.6356478829315588 0.07831157819662139 5.0183671873940945 -0.7291951955579828 0.4258980964606859 -1.3168969277234481
Ni 5.856367010194987 4.348913573284995 11.10261536881615 1.5850629874455668 1.0235481980881147 0.30774562178695386
Ni 4.231009297044601 8.06290297786005 8.944915380587872 -0.2713606554000165 1.2594250587592246 -0.8148892925926934
Ni 4.229889982415753 2.8329759196084416 11.703502026203301 -0.9385871225646868 -0.2580685662768007 1.0870328489053214
Ni 5.108119289818175 3.681153040127093 2.745728636391607 1.7160578652996057 1.3575612382120297 0.0727961580261198
Ni 9.289474284966243 1.8690484980595317 4.74085899168582 -0.276406188243724 -1.7529040875936779 -0.9207668065538142
Ni 5.6269169172864775 0.966589321044405 9.283079141973355 -1.2877028226579952 -2.316619741257191 -0.20442944079510597
Ni 6.952335933926797 6.3180513735762 11.997020183506214 0.9903282596927202 -0.38402459615535156 0.489883083953079
Ni 0.2297275700644009 2.7940256517255957 12.814181001599438 1.5658668741330903 -1.2466109377136916 1.4729592900690762
Ni 3.568008202560623 2.2489664575031503 2.4557753550914962 -1.2135442370667102 -1.5382308575833765 0.8717770069186729
Ni 8.130513343844571 4.324373305497903 12.588614648272873 -0.8605531131783953 1.95619015881296 0.1307436810751813
Ni 7.888496827876055 0.8953171972026549 7.171992494133153 2.7813870039792485 0.837954401942273 -0.9674143312090243
Ni 1.0477537406437958 4.591851877771385 10.551757372335848 -0.6276114238762094 0.9504157397684987 -0.07354023528099592
Ni 1.2276812157297547 7.771824738327922 12.675330492191136 0.14825160805195758 -0.7830184120260257 -1.6671642249226966
Ni 4.39361091039663 6.1615166336326315 5.037530041960075 -1.1939812273331178 0.9323948777110458 0.5621614218025157
Ni 8.422438123852299 3.3549433708575993 5.994972022865366 -1.3842516030190226 -0.06661574024702076 2.4598504990557895
Ni 3.2174934156361488 8.766359301072384 6.578594898153467 -0.3142965355315942 -2.4498062274459103 -0.5920677224436448
Ni 1.3826451527908232 1.0620602746814214 7.2260544501059725 -0.28324172310831863 1.1651820437132383 -0.5745621094597138
Ni 0.3363079565428635 0.3713443856268559 10.004395588019772 -2.01543351785531 1.1026523006101332 -1.0125251075047337
Ni 2.2684180764313617 2.6249338947273055 5.2912908961267355 -0.8197967571966397 -0.6555742276377226 -0.030247743140947907
P 0.5752741049976365 9.17759925811317 0.558191858800574 -0.5073339324396746 -0.23057216062874483 -1.0323791661161832
P 8.942787742192532 3.9411726502100173 0.948257016745041 -0.25924715996593417 0.33842916691373975 0.14249156563972878
P 4.4490875295642285 0.8341744004517129 6.995958164634422 1.675728826663256 2.111629542862609 0.47976630723405117
P 0.8290039193468589 8.395151302522152 6.731542187681553 -1.60063718773474 1.917104762775724 -2.2383725874188287
P 7.370489304851644 7.421657973598972 1.9609338824821212 -0.7076280109101685 -0.20715301037385614 -1.143696620145953
P 2.8635360307775715 4.499343815798965 3.7390056162295395 2.045651950420219 -0.2579973467192331 0.09617339929947953
P 7.844768309308717 0.9646610899610959 12.63368634439483 2.0358128528426103 0.28363355923009864 0.298978160006969
P 4.506144357619612 6.384627078979432 7.480227287304092 1.4514000758410617 0.12356361838697431 -1.9414937331430497
Ni 6.293172489598869 4.889363824918067 4.562498557080248 0.5004875989418025 -2.0526132122294003 1.4298056374997377
Ni 5.894799947787189 6.578917524134724 3.167730944678845 -0.3020388012101637 0.8487808031338155 -0.14471428432266045
Ni 0.545045085214519 7.406608365143875 9.952413299815342 -0.7757694437730962 -1.9281612777002017 1.5358921821478708
Ni 2.7719873813441644 6.910112376204968 10.661120055177447 0.42071141005342383 -0.27258218651194344 0.5728821506541295
Ni 6.029794935629402 9.227507522152383 12.888107500132458 0.8496333809420981 2.432062016088611 0.5856564196006624
Ni 4.901873811946366 8.99872525561907 4.563187076667068 0.06369599549706449 -0.09630529689165349 0.016996534557996535
Ni 0.016451103242477005 2.6014753175479246 8.368065769705092 0.32640308898714104 0.6680721029944172 0.6152644722750823
Ni 6.752956839912627 5.34930807732166 0.8714720332060835 1.429728504404899 2.2541830720885243 0.9705541623895865
Ni 4.49477249723073 2.2531709418652928 5.02636511368745 0.09268544075087909 -0.8700880492520242 -0.061406942352571665
Ni 1.2886039119570412 8.683605266579923 2.4957678083598576 -1.281598252422154 -0.21822726591014677 1.5631381623480176
Ni 1.1538252622363703 5.253282169372861 13.700476899133793 -0.6818886971625353 -0.13395421759267898 -0.5065960258323856
Ni 3.588278143948581 6.402188090845472 13.122787331979113 0.1393000552856246 -1.6307674314612173 -0.8508294581327284
Ni 9.294675805888534 6.940446743247271 1.134423495136166 -0.7129093139137658 0.2603887297695451 -0.01297070122805508
Ni 2.217277625699888 7.344594572303595 0.7214076842976773 0.0521604840536392 -1.3216539827924594 4.008947352819392
Ni 1.4218587888216332 3.4719540765959716 2.151160933354537 -0.5985808409718143 -0.3050521341151907 -0.49127559342523136
Ni 2.01610198467639 1.4532278164452244 0.8937746123360075 -0.618341054317877 -0.5904759524764928 -1.0157158465278895
Ni 4.177959427240387 5.62062429975119 1.7554117264166857 -0.7399128390858032 0.4011154901993673 0.18269873398623376
Ni 6.281546667067309 7.858331768928871 10.436475490368755 -0.19586920992992074 2.4254321694769194 0.22847439755945168
Ni 6.084961156622614 2.467025878012209 7.385017820613983 -0.43942004220652064 -0.7105688387060473 0.14718048647496587
Ni 1.101198662669956 0.6178118232959658 12.234536866546653 0.06805915756176666 1.5182374451805853 1.379228181662502
Ni 5.156550811027731 6.089419603127436 9.57790567461133 0.7502476453529079 -1.0425303956175722 -0.22115061020452884
Ni 8.510572393367456 2.5819484505774377 10.791380059959474 -0.23460365038564113 -0.3571308570883011 -0.31506375271492193
Ni 1.7716587193444904 8.538940905305312 8.499894696168564 1.7673398034030336 -0.9144673466983477 1.0857894634165237
Ni 6.407765851979143 2.4516658713827266 12.58843499357194 0.5388276321725817 0.46579698953815263 -2.7163126400774185
P 2.791909300536598 7.860034255885354 4.140867786001745 1.4466134530856958 -0.5648076011761112 0.028466739981125165
P 8.636697518226446 5.337503540689694 5.63454800937374 0.21655476330373027 2.7989923757658377 0.6556279636937935
P 7.507845200020251 -0.12201093814757845 9.222629567811875 0.0963214948415696 1.1987927897891482 0.8851066341480434
P 3.7283994046708107 4.873806292177612 10.653878371708961 -0.8952259819702324 0.02436814443171932 0.9179679036524385
P 5.832588628835936 3.6630464799545552 0.4061720013935337 -2.2341102125980488 -0.8526153463885574 0.5954497515420003
P 1.2140331020620394 1.3668712819288256 3.1789513683826476 1.5257507228384948 1.0563896700981676 -0.3017171562046868
P 5.238505335071014 7.4420595990609115 12.49595138721326 -0.5752655632846415 -0.8413354025993639 -0.7865251396277035
P 2.2322613921179935 3.487285865209601 8.105040000333263 -0.11443414528188034 -1.0642274209750318 -0.4283334453750559
