# total energy = -381162.9250461343 ev
CRYSTAL
PRIMVEC
9.27101009229956 0.00000000000000 0.00000000000000
0.00000000000000 9.27101009229956 0.00000000000000
0.00000000000000 0.00000000000000 13.56906039813832
PRIMCOORD
 96 1
Ni 8.877817254141094 5.282399029015053 11.323530104685931 0.27905313894826783 -0.9874668789845252 -0.8008898929898077
Ni 7.361710436702506 3.3823982269343325 1.706010479142018 0.778046412732731 -0.713977350166964 0.27969488629732475
Ni 2.0426816469329823 7.251728444338478 6.19115548759315 2.3529314312040315 0.07865390235847745 -0.7454826198640967
Ni 0.15729010250776376 0.20489117656945624 3.6057470574359765 -0.7389751577628821 0.8109105104506035 -0.4323744482136489
Ni 0.9285750967873669 3.3350233655181496 1.775335383980697 -1.0829275684876962 -0.5729217456428132 -1.3030368819119043
Ni 2.2619503059063946 2.157568003619741 13.591313730123257 -0.5296133126631654 -0.722667164631478 0.21892274931527456
Ni -0.053094147523353584 8.061560444253347 6.05975282648116 1.2754903397522035 2.6446495672144774 -0.359865996631277
Ni 0.44931301294174253 8.330586614228844 8.394973779108568 -1.1101210981833527 0.0176958746178663 -0.20215864248305832
Ni 8.790901534811013 1.7532128997710499 8.373223062402403 -2.216720556366692 0.5000271143656162 -0.34441212397005194
Ni 5.49763479861155 8.082030834469968 4.79765314271783 0.28886755393552827 -0.3147462214745031 1.9898759811011792
Ni 6.813654676894747 3.9303798186615952 12.401958099709425 0.6113615376762503 0.16065898057737493 -1.4483612890147377
Ni 2.4920382336220155 4.736790815863631 10.035391862062818 -0.2676628948334552 -0.40604480918018454 -0.05348074552695951
Ni 4.530937308449753 5.691547245065734 9.140879383343787 0.542515108326498 0.9972494122925858 -1.164399399910943
Ni 5.340908373515549 3.660092791317683 0.7379965055514337 -1.256360818011604 -0.8035445570038355 -0.03154666445802954
Ni 0.4416023138732808 0.5476543250720785 10.058785401751948 1.960453047854372 0.79752329051042 1.334505899054463
Ni 6.098971053244906 5.951840123562945 4.275353175962968 -1.0880132105407196 -0.4130050425481016 1.5652366967482592
Ni 5.873416649449542 2.285934408936466 2.8629500228745033 0.6890957564339357 1.0633923266682461 1.4659167813999978
Ni 7.322169578788608 7.378546590974871 6.762208914960396 -2.7253446683727 -2.28752976586977 -1.3518870706453878
Ni 9.093674181411737 1.985674206062511 12.680015160586196 -0.2946116555081571 -0.6188416481033794 1.7683846997277803
Ni 3.1200286421832617 3.6401044936242797 2.433556702151706 1.5801586081654142 1.2445034044523857 0.16685276809291266
Ni 2.0022878560933917 7.564699202007264 13.161771146138465 0.9164064727025896 1.8318359262038906 1.233576730237553
Ni 5.091610912951722 5.376434884072655 2.2952471385436195 -0.513665016864025 -0.4612263394483347 0.04409107678194342
Ni 4.525541580593741 1.5925092113585038 8.320601736392204 -0.21808945478070182 -0.4925120369354937 -0.1374581169808794
Ni 1.5134182245206456 1.0814540527076903 7.462684715690414 0.7152202214351295 0.02077399932255777 -0.27568705068951227
P 3.504024607936074 8.997246405758172 0.3163111025940796 -0.7111046566048592 0.04736589087847326 -0.3745752778169936
Ni 5.708948930951874 2.6530849494068507 6.01911335387493 1.2857415851665661 0.6231335906105139 0.01621209098348821
P 1.5489076510375042 2.45557535104866 9.124609687786203 0.12723181126718086 -0.3288227541722273 1.669096408948403
Ni 9.212667595555907 6.627316645661116 13.011453770298237 -1.228980112005806 0.6653001966762347 0.07467512021638753
P 7.364695701942429 8.188934851493451 13.536698209848751 -2.5848426223591745 -1.5115415212176484 0.505481195501652
P 6.488928278467504 1.4523871652833207 9.157745204848352 0.6560892196009281 0.24755069746461236 -0.49093415092541254
P 3.420279574047155 4.696350669973731 0.4708746010426459 -0.32981777109564486 0.6145021401877611 0.7873648619201795
Ni 0.975551304770889 5.820581163106914 1.3079077444790563 0.26501825812175644 -0.3636583737941737 0.9754829671497716
Ni 8.067697852914307 7.608810667881667 4.268284030790788 -1.0541618092089136 0.9132082774802659 -0.6999165011985237
Ni 4.170007615730886 1.5262307604261574 4.083282879208079 -1.4231814473150006 0.019641171269695203 0.6906330190140687
Ni 1.2898200038483374 3.4774446220886777 6.025300825990225 -2.9793668324942693 -0.17324864431692744 1.6866033074839146
Ni 4.28551513009179 1.7822682453049672 12.906809098426832 -0.4543602084561208 0.809190185325387 -0.756068108689427
Ni 8.545331020292062 7.468364136454318 1.933156715365006 -0.04582425742296624 -1.1865826208762016 -0.16437808130017498
Ni 0.8911637898846816 4.658905060333817 3.5646866809729367 0.5804442792721035 0.7481853635072405 1.3534963241140368
Ni 3.6096121415307723 7.262371563889511 10.457919072733791 0.23728556809317844 -0.1847093366583593 1.8366469744392886
Ni 2.836808555803034 9.175472303187663 9.222361363676603 -0.09890828173213934 0.6888833833128136 -0.6654140965462798
Ni 5.967637924708381 7.533446627088683 1.8298962052958392 -0.7499067170737214 -0.16446318481481353 -0.27876440406325537
Ni -0.049640696275305034 8.814681675619724 0.20772161594134675 1.5889661791547152 3.0129305273823275 -0.4846100084795976
Ni 2.3267732082590267 7.028120952656109 8.628986125383381 0.2727022570295755 -2.1117357294231693 -0.7456687677329739
Ni 7.244302365278917 0.012272963119910505 2.473829969860492 0.733040280335686 2.069016079067456 -0.46126644865765076
Ni 6.411923268893567 5.841923028269352 0.22212783847649475 0.6597810666302185 0.2975519690834037 -0.13101493245869694
Ni 1.5118606948302507 8.569889925945969 1.904037399861662 0.36443716094172723 -0.6657419121993439 0.03226914444635088
Ni 4.344154268733151 3.9295083437157787 7.442249555312029 -1.1211840408657334 -0.5160101200574339 -0.11988488398380644
Ni 7.25806054421074 0.8931069935936506 4.712561958167926 -1.18956664320519 -0.2527247854663841 -0.8211453008047342
Ni 1.8615631943641864 0.21118619240146955 5.115590380476762 -0.02229223573929709 1.193609702926312 0.005669282470635397
Ni 6.923339996936794 7.3111927028753465 11.550893282544369 0.28529757719608284 -0.1953724727991603 0.9434182254047428
Ni 6.496419254597499 1.8273717092559905 13.3399738660428 2.9639283864520114 -0.20270397346356706 -1.0509648995381706
Ni 0.38207501246799197 6.203427523612054 7.324592093717775 -0.07649340437204889 -1.4387253085868708 1.5528092696181837
Ni 2.339724809315466 1.4963781080269187 2.27196299677322 -0.03834568965773396 -1.4043458026657363 1.083387281732934
Ni 8.354644885339411 5.653721524013283 5.610711454134231 -0.06095777063029502 -0.5574527034729367 -1.2702877125053413
Ni 2.982650815086394 6.759113324700736 1.723813599763837 2.2555951219447024 -0.5112283823980744 0.0773809491833248
Ni 5.069017461430932 1.0414403732806368 1.220381992686904 -1.1741510799810682 -2.142594366675239 1.68958553004069
P 9.007694834097904 1.554284836873392 1.7174360719422732 -0.49943961729326236 -0.8129496523678194 -0.30422218201472767
Ni 8.485273417111232 4.600646033104993 0.447520926696782 0.09044600989739907 1.0314360854766236 -1.3607861729072306
P 5.852556876810322 5.555495172407714 10.87624002613969 -0.12412746131024428 -0.770316391078325 0.25657167001630005
Ni 7.9252951383639045 5.6090908815754155 3.2613642634755444 1.4944801948599875 -2.3701444526482085 -2.4869787227311493
P 5.16046670468127 -0.09649359982500418 3.144412325747 0.6060123575491951 1.061780502096436 -1.4257666915436735
P 8.076570209543524 3.6896302293748175 6.1651299081474535 0.05648919333598013 -2.129755048818726 0.6192651087940432
P 0.19801486840656332 6.369888509273025 9.56491220604881 -0.2632765928403014 -0.32594877505854186 -0.439920635992023
Ni 4.494363173755654 5.817540271806619 6.198970949075311 0.8883076575838443 1.0886094493638219 1.239363255012343
Ni 7.602738156291139 0.41542561696357594 10.701945036976435 -0.29878429882860796 0.22681217936568038 1.0957866838385517
Ni 7.159760024524676 6.836869286089684 9.31411469605697 0.17985200856605799 -1.2672764364828433 -0.5637573055347259
Ni 5.459605115337738 8.865746399040534 12.607583540275781 1.2232735485393318 1.1725076308403741 0.9045583151147518
Ni 4.418952777912361 6.845936333930197 12.877702762337574 -0.17558963374527822 -0.5448535266516875 0.1351811480212446
Ni 5.571626729915377 1.9972166135895457 11.037398921146274 0.2576636175288982 -0.5751197817353966 0.329102233085859
Ni 1.2326827688370001 7.729797349189139 10.921654996028792 -0.037004088028174974 -1.028003662756307 -0.7228895650549292
Ni 3.3063944864470787 2.08118415171995 6.153311224520575 0.12137406693482324 -0.06414311033681211 0.692777319050581
Ni 7.3461258687884925 4.247976810351257 9.774146850832253 -0.8212458309383405 0.37840879263047084 -0.18355696822147097
Ni 8.63129182558577 2.8542473257294207 3.5778357545436945 -0.3095250822848798 -0.8268369518728729 1.4162237850502448
Ni 1.5831362201859478 0.3460728990947117 12.174283415912912 -0.8113128880953447 1.4876264051629478 0.36029999884490205
Ni 9.004283102395135 1.4503290010495844 5.917630096434625 0.526889485974099 0.8511220496724826 0.27006456229641235
Ni 8.850866427891223 2.799446385253676 10.660749303766492 0.6727880204128478 -0.298894342043911 -0.49178698584401115
Ni 3.2438429815596064 8.420793542130891 3.6098717298125043 -0.5995995120443157 1.2211547024241163 -0.7907499763423285
Ni 3.0644952919126287 4.329441175764955 4.967646383212376 1.381185562499189 -0.7719197310097029 -0.8575130408004908
Ni 2.8893844538639284 2.280649933201197 10.93483095552873 -0.5404440847300822 1.162541777876914 -0.8898963422272028
Ni 0.34473416524177686 4.146023512700815 8.659937392474951 -0.27740146227745777 0.7884128435687197 -0.4630009148502542
Ni 5.478369639702974 8.780527274551776 10.104295863044687 0.1866525764276592 0.053033116466579634 -0.6377623962672823
Ni 5.870449926229742 0.49374618286529215 6.509404231290161 -0.9332554259391282 -1.66808647962665 0.6981684081591654
Ni 6.658689743710502 4.734667754559462 7.459346224967133 0.29295277974849543 0.45403547812685024 -0.2458594258051185
Ni 3.6458617908727042 0.1734253684194515 11.355363044834386 0.21164549892757098 -0.6827808699595015 0.22377699208378232
Ni 3.614896617266041 6.430437475987132 4.264972425996686 -0.32562558739116826 -0.9973478855436629 -1.390574974133889
Ni 4.33480909059078 4.189384026760205 12.091837250533661 0.2633151593877207 -0.06503399758219768 -0.8682926479144982
Ni 5.041352767406297 3.610057150013742 9.547299141133257 0.1672785427764216 -0.793740169318904 0.8937033746781189
Ni 2.410648036288812 5.631471099864782 12.372065581966922 -0.09690025016317505 -0.4939464553891751 -1.8044732179202212
P 1.6876668586335917 2.584896670401758 4.147301984988347 0.526697424567951 -0.8858789935376937 -0.659074013260865
Ni 1.1713272242475095 3.9788023042147698 13.096368805656965 -0.5764534129451556 0.19677372402206111 -1.117791984465049
P 5.193953593024763 3.88081699887081 4.428751308446756 -0.5081703122980409 0.964176798108333 -1.5184837568634364
Ni 7.275758902418859 8.842689397016649 8.198778809977151 0.47168790110129083 3.0904143206921035 2.1722096184385107
P 2.4484737573412634 5.025582779291046 7.0739985459472985 -0.1007982996660006 1.2483238066397406 0.234119511660371
P 3.250332688602919 9.180283957409776 6.708462088328686 1.5026645304429926 -0.5038076644539711 1.407024377939164
P 0.9923503750030069 6.745021389406685 3.522433125514934 0.08424605173427427 1.6651903890257775 -0.5709083147572104
Ni 5.069258507692541 7.731123103627987 7.996966535849244 -0.7865554786450066 0.3226271668844767 -1.035486087176281
