# total energy = -381180.4322934963 ev
CRYSTAL
PRIMVEC
9.07685955262131 0.00000000000000 0.00000000000000

0.00000000000000 9.07685955262131 0.00000000000000

0.00000000000000 0.00000000000000 13.28490145829696

PRIMCOORD
 96 1
Ni 5.714373335807706 2.4444890876181766 6.586441708991042 0.9299381886404372 -0.8430917231688384 0.40084141060237416
Ni 6.008926510150648 6.9201433792490885 5.076546034960006 -0.8752474819657766 0.18709300639918747 0.5463046572759171
Ni 1.5519705495155895 7.293438311547871 5.689458263598716 -0.4929781779386349 -0.8313322686400649 -0.13877735001293517
Ni 3.6431428730494857 6.216650444539055 5.7663782958114185 1.4323973094863136 -0.06535204304324874 1.721118824762281
Ni 2.7897909845814186 3.0173932417275537 4.870776348466457 0.5053662671903425 -0.11930818554473001 -0.5664101697765407
Ni 7.0856145317026895 0.6149971833133452 2.4790555847533273 0.761316758682876 0.5940096766613641 1.34964815401254
Ni 5.409617771154407 5.686725221141021 0.7386049511135588 -0.16232299854335913 -0.5784305912761843 0.03452837279417279
Ni 4.055441071508067 3.925033828101545 6.826074435992471 -1.2413036665681654 0.6806805357870471 1.1092942314066832
Ni 2.9841537814815258 0.8657390789098354 2.667488469207032 -0.29984847842706425 -0.612300504550752 0.3937076277710703
Ni 4.508094988222748 3.088192747440011 13.213376196819755 1.74228260332409 0.594353176043712 -0.35123660309105315
Ni 2.453575024184609 0.3025317340251525 5.109851756281893 -1.1103404132830104 2.3526648078062062 0.18217191494848625
Ni 2.691851668345853 5.573436935141384 8.042307375617794 0.021415232450982473 0.4353972942003727 0.3675289124931735
Ni 1.0667307064537646 2.2722102903845314 6.37828026996477 0.38256523800100567 0.18153145315100994 0.5715138095516932
Ni 2.920524994937382 6.291797766051034 13.137479126696 0.05849722490494441 0.879127533746473 -0.363081161134465
Ni 3.632141719084935 1.8947581563400684 11.339938676244815 -0.7091706728069399 0.051030484214254046 -0.24557840422958996
Ni 0.44985824392501 4.582089548551973 8.881102704174188 1.0442201246151694 -0.05728752086755941 -1.1714820177893372
Ni 8.137913031222762 5.764795291478566 5.941646102946488 0.20476574108860218 -0.19693776040375116 -0.8293003258117009
Ni 8.913331002248885 7.43422040559918 1.4074823736460251 -0.3110160650081095 0.15942639372185446 1.0149213756510522
Ni 5.831038213618246 2.8166131050147913 10.965570859128695 -1.689854981651993 0.9211195619075426 -0.9264047215658819
Ni 4.64579094997377 6.110024573564154 3.0371408577055052 0.8284701166009215 -0.19855292740967098 -0.23317154592480485
Ni 0.49018673160199033 3.3510132202482406 10.81206300776856 1.2453210152576746 0.6440590279092715 1.556294914173939
Ni 7.006228316707671 2.385262578031794 0.7553181728915521 0.11673836793502476 -0.438623000226522 0.03591316895684137
Ni 1.7148911043916009 8.887389337207065 0.679127920199271 1.0390259820087395 -2.018234991859847 -0.02719712924008219
Ni 7.764037179902748 1.6469508094867626 10.969649092194928 1.0174791090758992 -0.790475125414387 0.7190629922199875
P 8.13533520306605 2.756923675583366 2.810965482905267 -0.30796030890092124 0.140178601235836 -0.5041300807903963
Ni 0.25665093126556837 5.636657262998725 3.011023101585374 1.3780711852399234 0.5591270058515662 -0.19796465900636875
P 6.773261635474861 6.947637187300759 1.9585131112341359 -0.1805516057362439 -0.8973250305911062 1.616150452878991
Ni 5.001168161211477 1.8217348199994639 4.114466982494931 -0.9229008221776814 0.4154108237761168 -0.16230242971806888
P 6.233542480453271 4.8161091455107625 6.384099444722751 -0.4618755429965594 -0.40146978821499246 0.20537637808940756
P 4.413405187762191 5.136740137791125 12.006256424339984 0.36913199531423524 -0.7215487347563186 -0.7353786986608755
P 2.1391344502242324 6.581866971698853 2.040812998195014 0.3135511727251374 0.6128131825211124 0.39854438703808137
Ni 1.0070685076014596 5.20003308052612 0.6960090638818386 -0.6175265288363817 0.36402012800896666 -0.3187905667472058
Ni 8.086928310250086 1.1977007151621033 6.810000225137831 0.5114222435764354 0.5282061479029935 1.6212615488533109
Ni 0.09099824161783263 2.9825290235940223 0.11673295425834006 0.6120115125554233 0.39885600474122923 -0.5677941946082609
Ni 2.760336574833095 8.126930030977624 11.5839954646673 0.18360067697521282 0.8594781349466618 -0.6916002680233444
Ni 5.663315999957377 0.06757449745865746 7.632760373336322 -0.7171899435669906 0.6746482135500381 -0.30266152239582716
Ni 5.10301960398064 7.328157299926095 12.188843811142558 -0.5548193796151477 0.31070161909148425 -0.5048106517971888
Ni 3.988453846872434 7.001580964537828 9.479481065050487 -1.2417494958563324 -0.707549078043117 1.5639344329970677
Ni 6.2813049162300585 7.5288648217612035 9.36865896183317 -0.7897349048142529 0.3354891104488093 -1.0223035270477363
Ni 2.4091982570784287 5.269325827527261 4.190031839553418 -0.55855493539818 -0.11677436337928278 -1.6279713567733187
Ni 8.130234007910872 3.527267682033431 6.741901992874095 -0.4016698200409405 0.4205412030241467 1.8550000230251793
Ni 7.227858000166781 5.308501554021487 3.7283146784215715 -1.3069043352871106 -0.1081601393477105 -0.6961089545269754
Ni 5.671557788571083 0.9288350537891946 12.231913510450969 0.04539539741566375 -0.6507174137660534 0.6182310111025741
Ni 2.3592482981123197 3.9400469540564687 12.462354101627396 -0.012373691074004496 0.40989503616421014 -1.1262799673314023
Ni 0.6062334752665018 7.412435942303039 12.470045832542874 -1.0764766706560298 -0.0474489375105828 0.002021658415719099
Ni 6.976937290434068 2.9987039875914068 4.71388192074974 1.1714629916259438 0.07333377569714468 -1.309914325758028
Ni 8.508149061800378 6.730400703939704 9.85454053887626 1.231157836383415 0.2684673930126215 0.5045036620797311
Ni 6.841292698976766 4.237967643350604 12.505436508539397 -0.33099713611572673 -0.5268144097617895 0.2206435886611232
Ni 6.860308720062355 0.6180343005712153 5.196176322836734 -1.787895001846566 -1.5253578582754503 -2.1065205037708172
Ni 6.4924962110264355 5.814427560354939 10.765061212835194 -1.8187407835828289 0.1996621013134497 1.0829216549504255
Ni 7.3329680355706595 6.58971845534517 12.954785540634859 1.2049539242945377 -2.299365325052117 -0.12290027377136255
Ni 1.3166892690575644 3.397604741122861 2.3897946540833623 -0.3612677620748101 1.0712514177013488 -0.4020248893875141
Ni 2.4411397263863948 2.146849780974949 0.6605466806936339 0.4159157884369934 0.23153915252770446 0.8652487188818518
Ni 3.343179890321337 8.254959137140984 7.46107974115735 0.5254355271363919 -1.0234522959401986 -0.4756384011086067
Ni 0.22835654418776447 1.036187073540634 1.6784275435777443 -0.8852894395828109 1.1193927532932657 0.900225749177669
Ni 2.6847354103357803 0.782739366065569 9.402495679447897 -0.32032397267259677 -1.2332355448480503 1.3810120130358021
P 4.534662956584333 8.875671111325683 5.476687595213369 1.2300337500813008 -0.10830643511758767 1.1953757936877996
Ni 4.294779708254998 7.859580205175738 1.305109919129695 -0.7371545596143756 0.35132479192948524 -0.06293083519626581
P 1.5769046831299638 5.072702892560179 6.305639069417818 -0.554294103239297 -0.3794837708622045 -0.752775296870768
Ni 5.235832215209445 8.684929981448558 3.4304275735083505 0.641210759827199 -0.935764308403911 -0.7158704534246187
P 0.2567825457313159 8.987089564225736 5.497398266006205 -0.9249420209774265 1.0909653511905082 0.31532934767148274
P 6.977608978052366 2.11807613570463 8.962619258142373 -0.533373808146862 -0.38970287748705146 -0.8502108507121228
P 1.755065285453567 7.536117232666878 9.16949178309029 0.09412577274183144 0.3470297640985572 0.08352614284911422
Ni 5.229814257223886 6.3792079250267975 7.666145063337658 -0.8753906924118601 0.7523945164925816 -2.2850594499524064
Ni 1.2895222279553358 1.4520706315833716 11.996863689915465 0.5415779412242092 0.6466249888642348 0.4460146647049028
Ni 3.3967242857313087 4.595060381072883 1.4267452853156373 -0.6756866821168814 0.6723079954526356 0.3362295881592597
Ni 4.66289175366124 2.0449075696087173 8.877064409290666 0.6295814031183866 0.15860904002688167 0.2982945036763831
Ni 3.1626048433157443 4.162139557360622 10.077674257988773 0.05359104585257867 -0.2584642590533226 0.16516586730879296
Ni 5.089685697071462 1.1411881866280318 1.303729328768302 -1.2246323765600715 0.2171386608316583 0.7886555557071451
Ni 6.747129356379199 8.499417122762507 0.488225222219367 -0.4021963819683718 2.31070311866244 -0.01591307168583066
Ni 0.5255710537967173 9.025067145238674 10.642920265563587 -0.41996321903348965 -1.6138264327315044 -2.019341080439832
Ni 4.6847306781156215 9.022679931135805 10.314782710305762 1.01955578909927 0.6645931433068812 -0.14553266645889773
Ni 7.30613683827758 5.638835709328339 8.230049511047817 0.9818898991173799 -0.12431360917912138 -0.7995025257239778
Ni 4.970787911773068 4.362865232915144 4.683432687177559 -0.08430492999666772 0.12045695443719254 -0.36869747887997795
Ni 5.368399751226168 4.5048727030268605 8.92575359244351 -0.6423551578442873 -1.0552902663864019 0.6056377478185956
Ni 7.485495586082471 7.94447607401274 6.8321323321607395 0.5066667311693209 -1.3264426624303545 -0.8976919270122217
Ni 1.5371752681936275 6.0803250886037485 10.856594081489753 0.7936607222312202 -1.3403276479425628 -0.4653285345421664
Ni 0.24208710986612775 1.9271897760721979 8.898519382579451 0.026438139586870593 1.0179447358584082 0.13942089713420502
Ni 3.3274224618704613 1.4848471719843566 6.80246733926722 1.3325626592851634 1.1422452324114067 1.226201006598772
Ni 0.828301571049447 1.9068213028903065 3.997161278389096 -0.5544630247169935 -2.7503625305732764 0.45930495405590577
Ni 1.049865901118669 8.345700503629116 3.4651138851916303 0.6680859869514881 0.7357684779001264 -2.064683770240689
Ni 8.266214443177322 7.455669025086172 4.321990318283819 -1.379063888170496 0.40626155317668095 -0.10171361239141838
Ni 0.3987410008006161 6.634866755526421 7.573855184583558 0.3933800692283225 0.6375212267907536 1.3240381667539198
Ni 0.29684508141888916 3.9832255756813604 4.747094150416649 0.09460091260603706 0.6934558331748445 0.4125702690035282
Ni 7.55146620243095 4.0573744426255995 9.955373557986329 0.1951937811294509 -1.477795792225771 -0.7700042591545448
Ni 7.843505086635128 4.697011669298821 1.2834171321165924 -0.5197479898333113 -0.19065501271883292 1.299867483044987
Ni 5.561119636519358 3.7453301596277986 2.340759642575691 0.3324976319206532 -0.30547739457806744 -0.021615264276930515
Ni 1.2139301403177278 0.1883875001551705 7.7225532079851025 -1.1340110174270728 -1.469610171091185 -1.3194019535334889
P 8.620974427954973 5.246778908015755 11.760538570591166 1.1179387944555585 -0.02606275852532286 -0.3512286326712532
Ni 7.260561925690112 8.149948947193879 11.301598928529577 0.5244713634509097 2.144680045559674 0.38086136793602154
P 8.597138594365113 0.5307766328385243 12.934100285049205 -0.4122051723546256 -0.6155496076156688 -0.212013423789951
Ni 3.248571781598139 7.657011927100751 4.036829878365397 0.21689697713449743 -1.1314825945782643 -1.8108642090482296
P 2.4869506373262373 2.6544459294944382 8.575191655280221 -0.7082733578036512 1.4871846896398389 -1.0258655333673816
P 3.5102213395042012 0.4534908031796414 13.080207772690448 1.8343129269894733 0.019242393169379764 -0.30126052828324246
P 3.533848405320807 2.959718875151022 2.6838422473406385 0.21595672470841518 -1.1890794191561262 1.3022498672342346
Ni 7.926866966181692 8.939190975553347 8.781240001366767 0.5928043434993533 1.4071861003280088 1.468569902752129
