# total energy = -381163.826478736 ev
CRYSTAL
PRIMVEC
9.30416305787281 0.00000000000000 0.00000000000000

0.00000000000000 9.30416305787281 0.00000000000000

0.00000000000000 0.00000000000000 13.61758311441997

PRIMCOORD
 96 1
Ni 3.9066412704723636 2.044329305757414 10.43060593466911 1.0017511568176813 1.2359763408179811 0.18074366714239193
Ni 2.6315708585476894 8.713897608208818 8.23200616280952 -0.15756388659181897 1.42578751747928 1.3792559495766439
Ni 3.8265603394110492 2.604681827437291 5.678137160840471 -0.0124132860626883 0.7154148539444389 0.8544279741172639
Ni 4.258189765792532 5.279647302282177 9.64050013318725 0.23556704274017493 -0.44222023065947713 0.4280295409813919
Ni 4.024013286893704 9.196188202201414 5.825670482504226 1.6354380974640093 0.63533450355208 -0.46910368531388247
Ni 7.946760063543264 4.975698904941523 12.118518807017441 -0.7961912019625578 0.7146836322053691 -0.03135306038998471
Ni 0.3697055694419481 8.115184022422307 7.567263723361707 0.0453804850173283 0.33294217565723955 -0.11058263274627408
Ni 7.382239276833125 8.908010361169454 9.47439291089869 1.2569994800368673 -2.5524050706557593 4.678110117774827
Ni 3.11122837440733 0.8021872571555115 1.4406584619170548 -0.24977315903722788 0.49220144767361035 1.1949037391473873
Ni 0.8271931256718804 3.666705514667883 9.0997998646255 0.47551473104654884 -1.3688805198795908 -0.9313029301984476
Ni 6.7161077258473245 5.741543170948133 5.101377678101744 -0.2501408267892918 -0.3079541382533342 -1.0146722357547235
Ni 1.0673270601485592 2.4846767328829946 11.705143218053085 -0.3890194782667817 1.8647591592944723 0.6249019953648465
Ni 7.887427416003123 7.474685440540017 0.4025939248637598 0.39865365892243604 -0.45691459944685825 0.10380597614407283
Ni 4.004521065379419 6.331361976893279 11.950491205482798 0.598872146959988 0.248999514095997 -0.18132267957431353
Ni 2.500289118420451 8.291274611624866 3.7996871253777753 1.0599601610582454 3.0167527293418948 2.1864090498673443
Ni 3.9925466075804286 7.6822334048928385 2.1856083690431722 0.1392630314001021 1.3972379879763615 1.3912257203440104
Ni 4.3445044860732125 5.059780626098848 5.132113050202121 -0.6519119482947869 -1.7842396644821656 0.350636507613209
Ni 5.339621937070283 1.214593352333813 2.29021879547454 0.4493910373763034 -1.015001336959368 2.1201748613294584
Ni 4.5094579921480396 7.178403673522881 4.707748314301952 0.8358574102039282 1.486325684073653 -0.4570202717867871
Ni 1.7026618315580904 5.957818440208066 8.134721834335359 -0.5111540775167133 0.4537261744165476 0.9554625581637867
Ni 7.704582004452415 0.9479174320271574 3.2828315657882476 0.09211259896654458 -2.922650096528515 -0.38212249403663223
Ni 7.021870434975704 5.87251787369591 9.538013847171975 0.7997634926948485 -1.5704038427714955 -0.3786206515309608
Ni 6.28335249574115 1.4921830558558655 9.119300459886498 -0.7140166880453316 1.6668911737669678 1.1959123829175597
Ni 2.9965173486079877 1.2300847837520874 12.538198896840072 0.606080234672653 0.29471167142113114 -0.037658948003354495
P 6.662124972040221 2.573298885591141 0.5357458017568081 1.5039433971554161 0.21150563091559707 -0.023523537043236904
Ni 5.516066084467375 6.736455930358895 0.8812717123580284 1.3488035466240575 0.11062479883811915 -1.8651551091813106
P 3.444670968502296 5.479947323647109 2.1809106971374144 -0.06983501851526683 -1.287774042215563 0.7307964786068317
Ni 7.6594754221606465 5.134139496906566 7.102931094402391 -1.7862566949121947 1.6188976766068248 0.6255218883370323
P 6.16210064334298 6.3161124537133695 12.464146132995516 0.5354003516585877 0.17841064813384114 -0.378761033763567
P 8.844890919282623 1.4032631699312719 10.115099906032492 0.034702179367875716 0.838578408679517 -1.700514004027736
P 6.073357536515653 9.068190831618109 4.8945675338759305 -0.017396855320208748 0.8911968062061812 0.4984481999142706
Ni 3.3739965462481147 4.523497974136133 7.4242243124337035 -0.8316539136455419 -0.6520636433813028 -1.0672037299945363
Ni 6.121599621743132 2.230245091102735 4.278467258665198 -0.7999704664993319 -0.6970926585964833 0.8083640898796659
Ni 8.232100134855962 3.5539762755905175 10.272056483996806 -1.1720255489976332 -0.012163631945727438 -0.34220817434019773
Ni 1.1921889277961526 2.756507159499394 4.84709676376231 0.4391894142529533 -1.1095374577657409 0.4346655582406707
Ni 7.659912717822303 4.743653079372896 0.6858731240688603 -2.4949673973635806 -0.8929988924119265 -0.36208074489440867
Ni 9.22113266324189 5.3484888044226055 4.6348260062635935 0.18464814440312072 -0.28145814884533465 0.4712780672573819
Ni 4.1581048842511645 8.743549975734368 13.453014908112399 -0.04606054180348842 -1.1517835109191452 -0.25497655761503835
Ni 1.5206444905156262 4.38301441678807 3.016880439780381 -0.1396525535290369 -1.19470962085871 0.38602105776009005
Ni 8.862643262313293 0.26123670660868376 11.783948548365181 -0.26141254304836914 0.3247568116329697 2.3903885476092253
Ni 6.37085814888762 3.6912312883727303 2.5359752356605663 0.5154179949993898 -0.2858310811020497 -1.0810408929879447
Ni 8.04957106484773 0.5446368599329661 7.808567191129243 1.3561525307899611 1.5349161913878469 -3.0421086916081803
Ni 4.979150749419709 4.465086438734375 0.2908881437179323 0.2883119385423744 2.534162579505803 0.25145620316660566
Ni 5.224445703120242 5.935395407344377 7.346604332489586 2.7522623186991506 -0.38716956954223647 -2.0240616258439528
Ni 1.983759204536413 0.5298953440536183 6.27835988186785 -0.749376041381232 -0.22825379690821337 -1.0586861794418283
Ni 4.583044617425597 2.3935238478350462 0.6556755325906912 -0.5816264725056629 -1.5669287397387015 -2.341654829848948
Ni 1.502101293628767 8.512481087282207 1.667650266136489 -1.084412380563339 -0.48026998634334706 -1.0317811275208684
Ni 4.191292833722026 1.205456664254086 8.07243511503828 -2.112588307231452 0.9607047803993324 0.45365495485898
Ni 1.0706672546705776 1.2031957526416892 0.20888404216162879 0.1927491762437003 -0.48264440011279464 -0.4888615846671
Ni 1.8131766798381286 0.8686664323066902 10.342336409739195 0.5786249666751777 0.0033923135110006087 -1.2648313173764603
Ni 3.965694793122086 3.1563535650251264 2.9830542247267604 0.46953023132833976 0.46483308296298653 1.4595779836661638
Ni 5.748837634751092 8.679704809132446 8.020675125775215 -2.1071740781944164 -1.2248581194176322 0.2182735457670499
Ni 6.484983012417081 7.9869540477636525 3.1573184067296762 0.473135689291411 -0.41158965025781374 -0.2970683445787658
Ni 0.5155957759174346 8.310515620737773 10.055454638615082 -1.1605208907921434 -1.1197416519922523 -0.6621919900645563
Ni 5.619826110399264 0.9101443910230069 12.276319272567124 0.7472217140423906 -1.4318167543924953 0.5563790107927837
Ni 2.5603381865126686 7.311685808698125 10.109216883758755 1.2134277660935038 -1.8117214148422025 -0.31338096569586027
P 2.894478592833684 2.8968139377501925 8.744817202736872 -0.5602482639402029 -0.2860565668492944 -0.22161212322197962
Ni 4.366155273406741 9.028173626494988 10.800976751766559 -2.084006381828701 0.7672493221172271 0.12934680072765464
P 6.004730030124546 3.7700096366120874 9.852089825953344 0.5646309663889308 -0.17653399993641855 2.5880179347633625
Ni 7.876467111972656 6.003111105760113 2.408323979941382 0.487949871486108 1.16595697420605 2.5304211101855003
P 6.5053219127656385 3.5330791254611214 5.802139323825573 0.3639692201663732 1.1832589558196074 1.2180454673711734
P 8.897189619584196 6.38683339678262 8.542364198050505 -0.006837334636807579 -0.16081864608369079 -0.10007787656020829
P 2.297160631499269 8.467765279837026 11.795332191812784 1.0512865445436474 1.2122185762767508 1.009786625527648
Ni 0.8965863646790373 1.4957930711052894 2.6348114985254583 0.848635535805203 0.02559198953649141 -0.8670076105544874
Ni 0.11142851708801094 5.888204692537478 10.670315599312353 -0.5432139341657354 0.8372296079611066 -1.2678443931711714
Ni 3.347181948441828 3.9477005418530515 12.17157300535575 0.02490627632337646 -0.7534424981411217 0.13289209487675177
Ni 5.629949039758472 7.431737424067491 10.202538569205261 -0.021675685201220735 -0.8594722214093907 0.3570812347972882
Ni 3.018065790148362 6.598093722178019 0.4789811032085244 -1.6870956737393006 -0.406345628250055 -1.418441361526854
Ni 5.610931330557901 3.5800372361926716 7.891784555542569 -1.140511794660068 -0.40355366732721465 -2.2080279136887007
Ni 1.952869383330004 4.881522166914031 10.451209073247266 2.860577752677803 -0.12577630976757695 1.3620771238045124
Ni 6.291447117563312 8.977596196351 0.9819446170018801 -1.1050138588637743 0.3915949523034417 -0.6318853686612149
Ni 8.013033616691834 2.5532018934809475 12.268652642243604 0.2709119978983721 -1.2384726248772733 1.595310119094872
Ni 7.962539924014973 3.007049661139811 7.9474253111987645 -0.3916995962021061 -1.1555982566795453 -0.2379435133921515
Ni 0.7000963980683296 7.68558290357787 12.91306362467327 0.3865257653106504 0.06915033374341639 0.04659378859913911
Ni 0.03099961032997402 3.299423679691076 0.6037806329639239 0.8283083942120767 -0.7765155779105014 0.8005708190874922
Ni 1.3898093502130588 6.596558535280713 3.110718506274164 -1.2226022335039204 -0.26205120507363255 -0.863529679308216
Ni 2.728464412175263 7.360904831042072 6.4838218528729366 0.7074863431259816 -1.6460960913984874 -1.3854106563241302
Ni 5.7520568751539285 3.0191078564059275 12.07012134226763 -0.9176940811657615 2.4786383211862537 -1.107544595705428
Ni 0.7636447618701049 7.5807342905733455 5.362536229741109 -0.9371902422171602 -1.1342958956573432 -0.6146057556451608
Ni 5.526886826052631 5.794725766736034 2.947566286158843 -1.072381931761366 -0.74064226105266 0.7807452997211328
Ni 0.3140573704553419 4.355902085765336 6.937927345847288 3.0104131602771123 -0.41628268485810893 -1.6055994168360217
Ni 8.207592969477142 0.893454583408532 0.894675289595966 -0.052304465830671214 0.46477497603154144 -0.2824297687299846
Ni 8.477423001045537 1.7950893869389541 5.7063939039139235 -1.8726606735297362 1.1649089925575098 0.4442565443632155
Ni 8.585825804321402 2.921907265398893 3.4322843362817865 -0.1291989622958807 2.497120953371474 0.014537017273910447
Ni 7.014138675511088 7.841260159127761 6.3670508853823 1.0964343447248794 -0.379422835717282 -0.37302978770674466
Ni 0.40417005007832774 5.841497794207305 0.8443490718533556 1.2378439901543392 -0.25006035126034354 -0.2857575475516369
Ni 7.973714223794761 7.437403659343005 11.5264400198762 -1.921890614200142 -0.3376588644066185 0.29231154662007075
Ni 5.9080411680832805 1.2854724661743024 6.680023390430211 1.8139814145209725 0.5963126137629279 -1.8816104265238562
P 2.1217120295446743 4.573824191878743 5.261166443287511 0.36018404209232807 0.7267698739459418 0.7041889033216324
Ni 0.7502486279625784 1.8741747725577727 7.4495809478957 0.14653693935369602 0.47787166131449954 1.2062240492562128
P 3.596040396576715 1.2774522776562527 4.109064501837086 -0.5500630958770849 -1.066311300087254 -1.3741122005921753
Ni 2.6093990380853787 3.3784811528208527 1.2308132997160819 -1.5737357353582058 0.35935049044743916 -2.1937341227738476
P 8.928665603060486 8.10808494604264 2.6940483131865562 -0.6187524308236828 0.04515217105660611 0.16253074367879106
P 3.975445555960736 7.0613945194590855 8.322821306740062 -1.1743279718785649 1.5621061215390775 1.8190292613575254
P 1.4537475584451198 4.397240482036443 13.101831135982378 0.31521390513954106 0.4187072351392015 -0.39575242611524103
Ni 0.38523049584707286 0.33289271806084025 4.609429362900637 0.09029611458309611 -0.391203630402294 -1.2129852792394464
