# total energy = -381169.17912542843 ev
CRYSTAL
PRIMVEC
9.20296332774858 0.00000000000000 0.00000000000000

0.00000000000000 9.20296332774858 0.00000000000000

0.00000000000000 0.00000000000000 13.46946707994726

PRIMCOORD
 96 1
Ni 0.42421702914890014 7.5233395604354305 3.3104981922558627 2.341720135869244 1.8156240923307183 1.0634946565740653
Ni 8.210938953282488 5.051469669225431 11.425314035876182 1.4199860803061546 -2.2976288019769853 -1.264664195670977
Ni 4.4271590540616925 4.018685533998565 9.537783529916881 -0.42579602366518277 -0.32250401104305104 0.3668069467254844
Ni 2.3590231568850237 2.788415012221409 9.522361204245554 -2.215440404102688 0.24673540065216862 -2.932937594497452
Ni 0.06510452231570546 4.690115320565326 0.24628141754559818 -0.8601718185795767 -0.7794772316419867 -1.5667292221333855
Ni 8.870073581061272 5.701189665686774 2.385281051386412 -2.2544090720564016 -2.425318269606875 -0.6999280711627494
Ni 3.8208126229953585 2.269653181593078 7.774589657793625 1.0498559827447078 0.20236278807406438 -0.44231818968992215
Ni 2.9754836444693122 6.714767216789009 3.057447995302662 0.8005435653939825 0.6913858380196931 -0.5013376056469238
Ni 5.900673095243796 1.5190318969944767 6.247892612779309 -1.3097909128062861 1.173177403213889 -0.7371797564253562
Ni 7.961023285583168 0.923011190598883 6.86627651966501 0.023215518884514855 -1.2184815264673272 1.1561988663780216
Ni 3.5452206880666566 0.48927829753773167 6.44985440031657 -0.1970902268212154 -0.315367914218902 -1.486001210854699
Ni 4.835706197830138 6.287942988175562 1.110054974846242 -0.3447792775014836 -0.20547947932617516 -0.26920324273738155
Ni 2.699799679908964 4.251897823554039 7.5393324698229645 0.32099580192864074 1.1107798148132741 -0.5815179719522566
Ni 0.37490755251268876 2.994616604888626 4.083565504013053 -0.24185236152825443 1.5508254064189355 -0.8652055243487422
Ni 7.211221064706221 3.6441065272708544 4.010425874558289 0.17342399355252716 0.03922089317383568 1.153486352542865
Ni 4.114405553874122 1.273147127161275 9.882116998203959 0.5112008715942487 0.3562654237642122 -0.43428760607596173
Ni 5.0158726077045515 5.354219548453023 7.679832267865091 -1.2720612594659964 0.9208416256558076 -0.8703413029134107
Ni 8.895363323837739 8.10485639688353 7.738841667676846 0.9153214671685269 -0.5789332419442159 3.3019724021121903
Ni 8.576103328692758 0.8314094967395085 11.233723987825485 -3.1985294657344916 0.9746039069789278 0.7095743360032618
Ni 7.302348805962616 3.09187351961268 13.016461272525195 -0.13429977385755582 1.039338628153152 -0.41786134219913845
Ni 5.178498169787137 7.502200354046222 11.827700716102207 -0.3613523513688164 0.48968896566440173 -0.3320931973933829
Ni 1.5944777890183028 1.0761208887692166 10.835013891383737 -0.4001582684924205 -2.8417948156433446 -1.1965536160459844
Ni 1.9813335486076609 5.524732049967716 1.0447185378587875 0.7286598918798031 1.06046461149849 0.7952753750165078
Ni 5.692538880312 3.382346645978626 1.8149835473323408 -3.2745001648338508 0.3535161431538492 0.29728920234032025
P 1.4433191190388757 4.1074389107584794 5.73186406221088 1.3548762351806989 -1.327013961552792 -1.6696247706480472
Ni 7.811410713415403 8.618289711839529 1.879785292159929 -0.2520069334637531 0.6447917923102379 0.327388592828862
P 1.492656204564581 8.847535524271036 6.428451068884536 -0.6693964782327956 -0.31580577308726904 -0.11099118103860241
Ni 1.382156225846591 5.1282039760923075 3.720603397688084 1.5721989869987052 -0.806618825053785 -0.25823440243070367
P 1.2322951736733798 8.351366968211929 1.486881345178761 1.3999916394620986 1.2574993024914214 -0.5954502657626325
P 8.551825911864404 1.4399324285942832 2.8044235666463226 -1.0515369699915569 -0.5690028702043813 0.7172454793952744
P 5.491509352943318 3.6815809932773216 11.40348000576804 0.5287918452031344 -0.02318029477120524 0.5967419879908626
Ni 6.74233929443031 4.39089937919296 8.784152876363438 1.6617476818928156 -1.8447863157169715 -0.4188339905250529
Ni 7.712322409021582 7.178449312876891 10.93627777626968 0.13684233777375143 2.2047435865104736 1.200039517712056
Ni 3.50559272867966 5.94233490949018 12.666161523218472 0.023938770203784578 -0.854993873923063 -2.2179384879341932
Ni 4.865284521441334 0.8399268391483948 4.158469341506481 -1.1274855576037293 0.40226734441562334 -0.24376269117708987
Ni 0.21631380859253826 8.322285604611626 10.033648388191555 1.9481114955698837 -0.8578961351715225 -0.5351077601188332
Ni 6.441383993019824 1.4572800141596542 2.199564334427396 0.05207332365647161 -2.5802840564542144 0.5273242595186726
Ni 2.12792754885742 0.4693437590267766 8.490114522067504 -0.14909750099202063 -1.3256430493471942 -0.07226034012730782
Ni 8.668620717387016 5.427475135243662 4.9255952202445705 -1.2848530119140258 0.09419802074066358 -0.015108830616980429
Ni 8.11933265794153 3.3442739873664564 1.9059023813248979 1.8079156679428667 -0.3928828178769298 -0.14687632497098577
Ni 0.6289332635613426 2.6164116306740426 12.123705743626427 -1.2428208745436402 1.806234166475386 0.8003954698518926
Ni 6.570593595851553 5.784642135663849 12.732336350150229 -1.2157394449458159 -1.3892863372294526 0.5916393766569746
Ni 3.70841683386545 3.8651064847068337 0.3213453865980912 0.1970202928152284 -0.4848912871654424 0.3195433857528303
Ni 5.04007640082759 3.1457292600522297 4.127435109122637 -1.0826863990111677 0.549605439514376 0.8803994584803612
Ni 4.790252762759916 1.7778560330371806 13.023034949113708 -2.309541751364487 1.0123014215297017 0.23780390249049368
Ni 6.573520138137913 7.096717797011607 8.780974172886365 -0.36011076565223143 2.371954252163438 0.5761613356260334
Ni 1.6295318757124666 6.784047123492518 5.394427294519392 -0.5541012705022005 0.08656364412385738 0.8051957194540132
Ni 2.932809504274816 2.630372525794821 11.55420337558978 2.830754498668783 1.875877380694821 2.26658324552509
Ni 8.44553168731266 8.077744467400462 5.740524970845136 0.5743664485091398 -2.164348470522879 -3.007745897857594
Ni 1.526743980126456 3.2227488587772117 1.6925464050934793 -0.5862446880039645 -0.0830844273260053 0.49139900637697304
Ni 3.630440126971344 9.18405107534974 2.229358007376644 -0.6699047853277817 -1.6298572609421218 -0.4637246803901562
Ni 5.6255965262523135 8.13010932780734 2.860052718087701 -0.23540583457196232 -1.3453356426801153 0.27533686643894517
Ni 1.814428608653512 6.742900675183353 7.956481623261411 -0.6323078009106143 1.5996763664833675 0.17568502167256195
Ni 2.677316840897716 8.720175717035403 4.3709363114961945 0.012191399859869325 -0.09661485771227231 0.8902012750621313
Ni 8.095763869276853 3.0866186276456635 6.583093980718101 0.13142425208197367 1.8439707617942116 -0.05987019399307107
Ni 1.3661430699400947 0.8466634081849209 2.9833521779750907 0.5750513903913064 0.10038512338798194 -1.3764261934373325
P 3.462789747000859 6.61127069303932 9.31653417217914 1.313191968068035 0.2037208447638556 0.2599423862607459
Ni 2.590183185654781 2.233329085982192 4.727446220346425 0.6689218525892221 0.36565123585448633 0.08262471408076738
P 3.482603726694357 0.5132741036932482 11.667319756735482 2.3877487959935326 1.7935951375551367 3.7323221065863272
Ni 3.02369796848893 7.745950036425224 0.3142664673318401 -1.319511739638476 1.6293417547582842 0.3984870514375847
P 7.067673245263962 7.76142942046817 13.030146999047352 0.40589208565240414 2.318894396223981 0.7449336893391622
P 7.101310075630769 0.03270641079086067 8.670794457286506 -0.1663694006985909 0.5762415540446657 0.4542594212121983
P 8.453381814892108 6.037042603417626 9.132998557490145 1.1777110294181845 -0.7855866869738342 0.09190331116921592
Ni 3.4125875829376757 4.385515645741638 2.851970675836503 0.6980208268377076 -0.1911527782908579 -0.5395922782527481
Ni 6.146815548045607 0.2795179190147429 10.718799792836814 0.7478153817623315 -0.02090743957662851 -0.838104297256576
Ni 6.003322946382337 6.12565793573007 5.156556465009971 -0.24668603547147192 0.25562627538389526 1.4439145660972939
Ni 6.044322147280866 2.0458371174287144 8.586758519444793 0.6019451294583569 -0.47402451965426756 0.13542591704219903
Ni -0.07289391033826784 3.788703484513884 9.208441688625022 0.12129924783282982 0.4018410555114822 -0.31256386911120365
Ni 1.9766400373936877 5.020317638913079 9.532395194983975 -0.31693705847823483 1.047893973922331 2.105696465207625
Ni 5.812637549610724 5.616540810498296 3.031398087768795 0.5226204262850999 -0.9086407127142414 -0.9328540767356516
Ni 7.355615556759628 5.917993071919672 7.072587627593886 0.9200702947074219 -0.4368245135652025 -1.359137067339582
Ni 1.4563321089536951 2.3008052119054283 7.214097910991492 -1.3873785786837785 -0.09708177004636183 -1.114276772222939
Ni 3.6495454785011643 7.009989072147916 6.613117727746466 0.8134263348939216 0.7426415508708758 -0.08971864481307129
Ni 9.159175465915684 1.3289538957917315 9.101130536643584 -0.7318251769816622 0.6853733132770261 -1.3286959772409053
Ni 0.1340963762721604 1.061129261773997 5.086219137838844 0.7575197535342889 -1.34822093464771 0.3710945183572448
Ni 2.316330610764198 1.3352763314858482 0.32494650608441994 -0.2552884324285023 -0.9826517169840688 -1.1337685623989635
Ni 3.619148091168315 2.115678404885267 2.0139948648790145 1.0209698958379771 1.4699986647788554 1.4399890057906426
Ni 0.3746066156172046 5.222948481872411 7.017645937500908 -0.6491223013647918 0.2197640142696473 2.3998592061038218
Ni 4.391515977724992 8.709914413106814 8.34011910663209 -0.17011138423952638 -0.8325082912260372 1.9503388422385057
Ni 0.5967965161903739 8.79147107267197 12.487636921972634 1.5001422782417713 -1.2056697194146397 1.4130620994928116
Ni 6.670491761003863 0.9067661200206374 12.980808072929014 3.642527614229998 -1.7199798260618313 -0.22980417211446874
Ni 6.046806947335322 5.789317240951493 10.355730011842818 -2.8533598947731247 -2.2147917147750955 2.1606064869819437
Ni 8.963225974213891 1.3604464357411743 0.5457191503302327 -0.03143225036735232 -0.019017678753083377 0.5228821645869188
Ni 3.653742029704246 5.004497745233041 5.407330769172553 -0.336854109117136 -0.9217857347366318 -0.9805141018157758
Ni 8.981401826464081 7.128164322145226 0.5933932604120851 0.1261033540896925 -0.9169582314410014 -1.8137728980545924
Ni 0.988674332778683 6.4524459547437365 11.74168430058746 0.3695824525880925 -0.8209460403097346 0.3942146493144759
Ni 5.247281116479755 8.664341339515452 0.47158099937210374 -0.0821266913984263 -0.1769006392472179 1.1227241316593437
Ni 7.017130571563687 9.164126660098267 4.447078867831585 0.21287345779740116 1.1318662031699283 -0.52222061974352
P 6.116445769602252 3.9767844427098993 6.391113727029223 -0.04030975536264026 -0.45470885004479106 -0.805779102761309
Ni 5.938119952360769 8.058169764749247 6.852995723522098 1.7446971263028535 0.7234102134450896 -1.5492174385018673
P 4.781298279600708 8.064685462669821 5.085976179611297 -0.4110188653560083 0.4296632199300729 -1.4203321507916635
Ni 2.8272147049235863 8.00804122439138 11.120768658535166 -1.4015013912384056 -3.691584262547332 -1.3346280264546242
P 2.0505030197531937 4.285691104294646 12.454919467625976 -1.7255004987697447 1.989061455619684 0.6950239489929128
P 6.837525542442317 4.779181598072839 1.0930469786216468 1.3350268045549396 3.189714695656339 -0.659803949448354
P 7.659110876003558 7.004651353512417 3.7848934577637174 -2.161445437943471 0.34252956223535846 -0.30496574504897156
Ni 7.300002050355629 2.732120486543226 10.50984743447968 0.019926306610281812 -0.0952747987446101 0.6173784332942917
