# total energy = -340889.7346981361 ev
CRYSTAL
PRIMVEC
9.10200709087928 0.00000000000000 0.00000000000000

0.00000000000000 9.10200709087928 0.00000000000000

0.00000000000000 0.00000000000000 13.32170742248180

PRIMCOORD
 96 1
Ni 6.403070969492923 2.2614938273227505 11.509942378045654 0.11843658157305408 -0.5574904986894076 -1.3552580440001498
Ni 4.831645823043527 0.32740284216166826 5.572136893568454 -0.8066656191313204 0.12676001383708493 0.7479472793545054
Ni 2.758763790287255 1.8747222325677362 4.814904501079135 0.5625535150346118 -0.9808576011981236 -0.7130944333413783
Ni 3.7103968539642436 4.510590720749181 4.9852358242525385 2.3458331295963535 1.0445255716707302 -1.3175520448089437
Ni 3.6517617231565387 2.7954448795693185 2.3796296898291587 0.6180407494686389 0.43590225886124934 0.344746110270703
Ni 5.0420023129685285 4.612970098477381 2.858838539775699 0.6402154857934651 -0.08661815151087662 -0.4489776039879687
Ni 4.99206870110714 4.700403980274775 11.290520288883695 0.6186842965899088 -1.0742320975962274 0.3854327893567878
Ni 6.268197425825029 7.734294144192035 12.39491689150994 -2.304243736190341 1.6468111151876412 -0.30768005865634107
Ni 2.1670787059523184 6.664862902478209 0.3127194840401238 -1.1024743802713723 0.48415363766846936 -0.800580589279505
Ni 2.5480341180643458 1.7476582111340881 0.0191524436891606 0.11877802407287286 0.5391035115417876 2.0832481635064375
Ni 7.92897697760495 8.93113528361562 7.11642986655857 0.3414671824091151 0.18481680877050105 0.39160343694387395
Ni 8.82113752580576 2.518161330217266 1.4018301756638143 0.05959097218975543 0.1422671083337485 0.4008789487085289
Ni 7.163361636423625 0.7719821952639063 5.026266762807032 0.8447071472850743 0.1462482044686836 -1.2310490787196928
Ni 0.7893215191056756 7.79251968467277 2.4556969849527466 0.6565599885897596 -0.9608091671876806 -0.7011025510868247
Ni 7.7003618611043105 4.080675611553229 3.8354529725950073 0.9442834016185156 -0.5640624954799706 -0.6368527399688194
Ni 7.694336332294205 3.740078499658737 12.875124231653563 0.09212288337918974 0.9806547411586981 0.04947676657388898
Ni 8.311789199199247 6.982959852411097 9.040124539020404 0.8724233822534202 1.0869613722374376 0.6794538624687976
Ni 7.103179164380697 1.0858967728580586 0.2125282288586752 0.5051325539129816 -0.7549939017886417 0.26217641779758716
Ni 2.066346791539268 6.6111246515796225 9.09022744821694 1.198430264243407 0.6755462998842753 0.46767672305936875
Ni 0.3773382744245107 4.949990121516326 1.1531005333059954 -0.27959487038435077 0.23686287873346304 0.5176394281307408
Ni 6.651118871506517 2.152406270239493 7.210054933698312 -0.04098441283216167 0.014880516656258242 -0.6305388819356496
Ni 3.3716110415156897 4.262916001033494 0.13997248813831836 0.24818267462165644 0.9704114661641352 -0.2484500693504302
Ni 6.31458125485267 5.965710418353366 4.474815281190087 -1.1249231961931916 0.23842302413173136 1.058223895093429
Ni 5.609266711808733 2.8725388811125128 9.257427680890833 -0.9637469096597662 0.6061231720954463 0.12765707173005758
P 0.5100227853449263 5.732753644386834 12.455890327984285 -1.1536105368255554 -2.322409608466091 0.5026594097821407
P 3.999731460936507 6.358279991736835 12.57389330118461 0.7865266822896003 -0.8363551757759532 -0.21612436063453097
P 2.3643283054142517 8.7632669636084 1.2426570031978255 -0.17146378450236277 0.4275148061285024 0.4746544399287826
P 6.509318700309182 7.874556076161414 5.643834315003625 -0.036580113116878935 0.28345409622944084 -0.33759201572442504
P 5.112661195374646 0.7936613561701142 12.79142399323669 -0.7540330805372693 0.3328676136655622 -3.2710029503138704
P 4.2280826192264325 6.3788505281580425 8.109269537530286 -0.35499349903032407 -0.5422407716191887 0.635044483115487
P 4.669757521810084 1.379072426896583 3.652852143627008 -0.44955147421356767 -0.1911473789742192 0.4898697142166403
P 0.6098281154182956 5.690793390890479 3.2600486486568014 -1.7878438368936562 0.13054853434523966 -0.7586458967189321
Ni 0.42222937426052437 9.052137368210097 4.644333795114634 0.6275471462971772 1.4339983354248467 -0.5764855517346716
Ni 1.9725506066629257 6.503074723324692 4.57992344069664 1.6878302379124803 0.9832788090451064 0.7587991344673448
Ni 6.198740008378026 5.801464697238024 9.254390341066163 -0.6419098427767526 -0.4370307160387376 -1.1923915142484947
Ni 8.713287841710681 2.505937334459 10.15102179523604 0.3658373837233635 0.44343713378571364 -1.0634632891154974
Ni 2.4740074929698 5.720638872715761 6.898313005238559 -0.027720091623087743 -1.2520027981532245 -0.373198452074125
Ni 0.8665229243346093 8.902218206531472 9.039604814405514 -0.618005011134697 0.36157012380657727 -1.1179490788682038
Ni 1.253291788487444 0.9022401110472008 11.151255026709945 0.7764978372986885 1.6629805258586523 0.08888612160944692
Ni 4.19787305711051 7.429213064649556 1.3456389338070358 0.9495942723084679 -0.34417686803079434 0.1416166192339432
Ni 5.738578929037087 8.024420625796443 7.850202745520449 -0.16229703040143018 -0.30681076867751034 0.2588046731118768
Ni 5.840912796728957 2.7487515822946325 4.795134941297337 -0.6774699992695494 1.1407359948557323 1.3207468975971577
Ni 0.8348825266764685 7.738654005672459 6.61834436374303 0.40215447298684287 -1.1269826498253817 0.3321045102472926
Ni 5.237076532693883 4.574832688032754 7.106118202526896 0.4732022808632882 0.9748700161561209 0.22119174785510937
Ni 1.012325248126814 7.16429004116476 11.18431988850522 -0.20131814885963392 2.2725101525324862 -0.8732574481189411
Ni 4.546316099268312 0.5192312860959594 10.396566645251479 1.0203384329015655 -1.30661148663704 0.9055204219177051
Ni 8.303242414376452 7.1571722714827315 4.202146449521907 -0.3564739402305925 0.38465374509891825 -0.0033138948645813895
Ni 7.504195400507035 6.4074217289660815 6.918322858012178 -0.1371526699253186 -0.8666281157278818 -0.8857890049270487
Ni 2.70454313300357 5.647404122253359 2.349269944593347 -0.32490542139569206 -1.118095374638081 0.40261984265903566
Ni 2.489426293278439 5.11086809994324 11.116898590083624 0.5706846287821784 0.9470730485485107 1.2393264882371366
Ni 1.3980137040171718 3.643178530304681 3.7472363181727353 -1.0850494999267057 0.10548593494965702 -1.083749035947727
Ni 1.6200389672572129 1.3150216017655958 2.5789891345753553 -0.5111538204063971 -0.21486117765139123 -0.13374544401598254
Ni 1.361960653236464 3.4016931755298883 7.913374316749538 -0.3794423761013078 0.21083945808650786 -0.07298539121879044
Ni 4.053196651617112 2.6406834500251697 6.783347371862905 -0.6064867260824524 -0.6790635690089144 0.3519891649863615
Ni 4.262706654866375 6.916560709405476 5.916982822454725 0.7285459920097582 0.7820923006673305 -0.6844646854198276
Ni 0.5166799934592938 0.20933888551266155 0.01784175464285363 -0.01973707341761117 -0.1283705528573144 1.1756862856786718
P 0.5563474513253382 5.749847214032421 7.820534752836854 -1.1412407024062927 -0.2646847860417377 -0.03527116449746829
P 8.789708294716192 1.699572306747701 8.04227512324947 -0.7426155827289469 0.01666949023588097 -0.060331707010521894
P 2.0081303530658 3.1815338237793815 10.227048131326931 -0.9823984633226823 0.24174000432010623 -0.10633542743414591
P 4.286717750034137 6.498714861844268 3.6236911327481307 0.04192312259634715 -0.3013777705873971 0.058984706064324224
P 7.137730383962512 4.10164663629414 10.351766565488127 -0.518839619086429 0.09225478097136369 0.4481499658803508
P 6.63892218177005 7.801230305626351 10.211355360599585 -0.9138407688579422 0.5373482194135778 -0.6694363303317955
P 2.508422182442624 8.76505095703254 5.441304641126674 -0.7797029744995475 0.16110892363059995 2.817731089825921
P 6.790552520814687 3.996909838684041 1.6914569570693172 0.6454026864213595 0.9491181040029977 -1.8573430693360593
Ni 5.230768841658531 2.8361945660992927 0.19309180254281472 0.25749701004404685 0.9137518086885619 0.8735577529681794
Ni 1.301004510575924 1.0779325165002906 6.7083322687792695 0.7369221318885953 0.20750756549979746 0.892775720657527
Ni 6.881672715554819 0.7131632039094278 9.273920518056864 0.2017819758699299 -0.2396458407952389 -0.02723646711844987
Ni 3.029694138567625 1.656319568219571 9.08773622882823 -1.187461166826413 -0.02032945558597144 -0.7340833768882197
Ni 6.426617862290118 2.1303430046266594 2.5474570508036796 0.6235341684830422 -0.7965750676645378 -0.23988932426461268
Ni 4.463223874936809 6.850534748697763 10.44836161759877 -0.8575513502375941 1.690352490113702 -0.0016902432182293473
Ni 8.30375212678335 7.261854457049235 0.15543497808183418 0.6311670024379518 -0.37564279984955956 0.4237072594569541
Ni 7.9390073896121045 4.266274641714656 8.2436989032436 0.07311523192843537 -0.6384879615793972 -0.7588130184244157
Ni 3.03094111356307 8.818752799902063 12.481147487946767 1.557854288241259 -1.3425310833517845 -0.7941708290984194
Ni 0.2884526224681862 5.031798962823319 10.120754890474343 -0.24890412616871327 -0.7280099170006301 0.20316137271595977
Ni 8.773342885651886 2.676763806827675 5.912014036688204 -0.0618165190861645 0.5610165095647952 -0.6189236662942245
Ni 3.6939677308490766 2.480524530172271 11.42602824245803 0.45704778259061285 0.6876885916737641 0.0244416779821321
Ni 1.2234098986330981 3.4499884260833933 12.385165000925127 -1.2698657944765743 0.35202798864409696 -0.12991141498187303
Ni 3.1786211814542544 8.656555030421575 7.652601808578047 -0.3913147020588616 -0.872683320783026 -0.19853570101849033
Ni 5.680671958810664 8.58257391536336 3.319849746595284 0.4259767722174212 -1.2893663264033473 -0.08569795368945242
Ni 3.042919355125153 8.327599385820324 3.560332970370088 1.3819057284946652 0.8823383273742869 -2.414615795587706
Ni 3.4581074165646837 4.389597738161968 9.051527533723274 1.0239258931425075 -0.12855824338808827 -0.7861330463956073
Ni 7.373618004268702 6.0526163837293305 11.386556477748204 1.1772304902373403 -1.4819000442021317 0.205629117530162
Ni 8.018467913044464 0.06488365879582803 2.27774546129623 -0.325249177888356 0.24928027856120938 0.39272186681903337
Ni 4.534073899495514 0.7686117219732989 1.4420082561374825 -0.7057045686352105 -0.7623076618412356 0.8815595402267333
Ni 5.903880482995287 5.6236478832890455 0.24700026097727507 -0.7747471731561689 -0.6526079459205472 -0.14112399586824081
Ni 8.255556998309771 8.767126214689194 11.30365539556929 -0.1347569159996324 0.41165624182969107 -0.08133196341127283
Ni 0.21884229129911367 5.352790351066803 5.490235211787348 -0.617709077160833 -1.6058758104258601 1.1668630309600871
Ni 7.260753114170046 6.103469298324589 2.111583767651391 0.8276627902082777 0.43562535105077876 1.1818839298489514
P 8.701700986461038 1.8668398942753621 3.613126432914461 -0.2366276227942054 -0.43061529943069704 0.3593535757712327
P 1.9031204952377203 3.395076016247491 1.4599392104515432 -1.2951397385520147 -0.5394171861274646 -0.7356034130771718
P 4.801572791036595 0.9177644946401257 8.027261362264168 1.4644502241568005 1.4823890680234084 0.028142780982803144
P 8.665174631302497 1.84287430914393 12.156364203476258 -0.7717844909834193 -0.5508961333013416 1.6921571474226083
P 6.389390652572095 8.055795244842416 1.1642504922068706 0.6273023772762228 -0.2616274872726526 1.6231988750853399
P 2.076586549713541 3.7181517641548933 5.760732304521855 -2.112232209443614 -1.096243825980628 2.7029403325355705
P 7.084902333790528 4.332755702785669 5.997792263363908 0.3592970115016844 -0.31520053540310233 0.005545355298261417
P 2.552157327355853 8.564825001194619 10.3260151665311 1.4611371006231675 -0.9638006457158369 -1.2864152141948233
