# total energy = -340896.5229494128 ev
CRYSTAL
PRIMVEC
9.00802950147958 0.00000000000000 0.00000000000000
0.00000000000000 9.00802950147958 0.00000000000000
0.00000000000000 0.00000000000000 13.18416172099815
PRIMCOORD
 96 1
Ni 6.3491475382230895 2.0841337666755293 11.305233921895065 0.7955342851048492 0.3401996285506012 0.5035392412839328
Ni 4.454596763082342 0.24375728171297104 6.098874748680739 1.071318266383542 -0.13124427486068366 -0.2941773961842159
Ni 2.8006504592850323 1.4371860868771604 4.892325748364483 -0.28683046890084146 0.2003961512659968 -1.0193945809310572
Ni 3.553100182077574 4.237052847584623 4.885272461166358 -0.1582773677190758 0.6839201257702674 -1.078960356309832
Ni 5.1417202550181775 4.231368780889839 2.788344590011267 -0.011688492081521805 0.960017781634637 -0.14893063639685317
Ni 7.35513726290378 6.2238548541378815 2.64611410781797 -0.7871702294108701 -1.2928424578774056 -0.09867893933015262
Ni 5.143044435373381 4.576979853597952 11.543419737283592 -0.2738664525410057 -0.43632880487570663 -0.42221473407182764
Ni 5.454181778698068 7.713846010689893 12.260914701910611 0.13348164883163463 0.07519216906212212 0.6905332602114107
Ni 1.7399459626485188 6.572816913867327 0.498101700646831 1.1292902149126356 -1.1597091935241255 -0.8430819529768254
Ni 2.7038952130589045 1.7403783480706263 0.21865010153594247 0.19778339623349808 0.12762107628579955 0.43235156539551345
Ni 0.6161023847487921 9.131079311942727 4.545490484430028 -0.43242381339434566 -0.5266768557426608 0.4270466082428323
Ni 8.50729127631598 2.2698523135002278 1.3404074197740017 0.7606426154339867 0.4321209374419461 -0.3499898751681456
Ni 6.810926161004022 0.8972438902177498 4.6781760584303065 -0.36652772492216873 -0.8659362318671796 0.01593878271744352
Ni 0.8234591195410704 7.302251120962284 2.6140239030739094 0.1634234306963895 -0.09932557177521603 0.6027208312821167
Ni 7.609785252436077 3.7645276454584 3.786886475796159 0.5241810859040005 -0.17346641675468835 -0.2754350825797063
Ni 7.709459100261429 3.986611607888244 12.786897155056696 -0.18417274742859893 -0.5340978307970802 -0.660417671772953
Ni 7.865225948575572 8.981609076338023 6.735814507563251 0.5075887287629581 0.3222831532814966 0.4736110862659327
Ni 6.776740688568666 0.5575132592502948 0.3058343162831335 -0.09634977697634374 -0.030820070704650145 0.04785465758943372
Ni 1.7834457377184352 6.518849808370564 9.078337298475269 0.2373105077938429 0.08923116365369148 -0.568258278728873
Ni 0.18940643415408775 4.842788791838394 1.7856626138096976 -0.5943030395320669 -1.0090183799030557 -1.162183880316863
Ni 6.410978653584428 1.8689319388808925 7.182771318395531 0.011329308969890166 0.2543196407573297 -0.869590026569683
Ni 3.46623575238215 4.3009017615824625 0.3787993562637346 -0.40253653891660995 0.44481627352142744 -0.14540873928652376
Ni 6.061584208432876 5.404520511363122 4.749211578464754 -0.40890593277806353 0.8223889434038482 0.4701470389767322
Ni 5.313755604839106 3.0284094803800343 9.214226127810992 -0.2002331433255713 -0.7857358109571887 -0.018810447838283735
P 0.2991953984478616 5.548045447413853 12.350329304793505 -0.30547508058522227 -0.4216246658963126 0.38857673430240824
P 3.9166012016253764 6.1273248086524355 12.451188609317802 -0.5324854920046377 0.25357504928182134 0.7273866815943344
P 2.4172326862314146 8.345993497810715 1.4032825657691375 -0.3614066016455195 0.7421075327442768 0.005573637433035562
P 6.301116724250674 7.801917516355366 5.887137409080737 -0.421669403091319 -0.21881116343807477 -0.6234418658795521
P 4.826898627575951 1.082260711534486 12.496607995501282 -0.6356368652838471 -0.08834927526937042 0.1344326998909943
P 3.947120406002447 6.080149757494606 8.116249106985869 0.28447842372889715 0.693111048240916 0.27675842937682016
P 4.647116372275601 0.9416183449644706 3.5625451011417297 0.5992277305271939 -0.1114228692593823 1.2037799585910947
P 0.2895604099585713 5.498195011456736 3.8162742716520497 0.1519509112804157 0.34474379627785784 0.09465824820653376
Ni 1.5757025584551485 1.0401031328790276 2.452148709869539 -0.518307657842359 0.08550512095235596 -0.27046385461736
Ni 2.0430571515753395 6.429319001905479 4.871323527288585 -0.7971846762240786 -0.45761188262419905 -0.33875826811838433
Ni 6.031839694603747 5.682517313689213 9.159077168827135 -1.2547261106216583 1.0793275098412638 1.2013104140046793
Ni 8.653698781847424 2.359536256468976 10.263646265733469 0.04358379812822171 1.0502190225110817 0.02733288348699809
Ni 2.4509947812742903 5.031056611047599 6.792967753139167 -0.5658599537000254 0.6097638541718273 1.5386160088369374
Ni 0.6497239545294828 0.11535952981525577 9.111231920265043 -0.49965764684133945 -0.8297140163103517 0.04534500379370255
Ni 1.4231065365697928 1.0063140137472704 11.29818063469694 -0.4281542394847142 1.1993391492109216 0.6623040901623883
Ni 4.167736059603052 6.8192766044684685 1.6291796271401902 -0.5399252361121347 0.5453258383024157 -0.052670848031154446
Ni 5.57379039608849 7.928705533358695 8.050499498736684 -0.8760072429499365 0.2765350005121044 0.07941983399022451
Ni 5.08604162389224 2.5661444239992313 5.013554009481882 0.8459937273069817 -0.033908222711670634 -0.1869891338314715
Ni 0.6786262175884654 7.50348149480508 6.794510828614312 0.34123809711744457 -0.3775343604453176 0.10227745531468836
Ni 5.080204420693792 4.3395552167129265 7.004257393666696 -0.0026528642418147856 0.9969624771797863 0.31010460893743363
Ni 7.981789851951988 7.413788543806704 8.750987303427486 0.785490527715602 -0.09068383693981802 0.671564946639024
Ni 4.73637693785187 0.24134312977287214 10.392271019977791 -0.9793787026597519 0.49294218249437677 -0.6577915470040155
Ni 8.052583956792427 7.172310293589423 4.659651946304861 0.24608002645635685 0.4823615787650532 1.030203241510787
Ni 7.026001876383877 6.051414142983728 7.077443130373164 0.4118750427087165 0.45292527578180714 -2.1799738357649616
Ni 2.4526252346368196 5.206632116512031 2.55698866268611 0.2982016868522606 -0.04095124560138109 0.764104091620026
Ni 2.241359915789284 5.256041159017413 11.190518466198156 0.25467779542769686 -0.979506743597184 1.1860925686136603
Ni 1.371148221679903 3.1410999310167407 3.718566876694323 -2.0449112155994524 0.7768421080119847 -0.26189153956731676
Ni 3.5074745120156305 2.612472720372099 2.7625699148388607 0.781551597672512 -0.03568459788580306 -0.353425640322572
Ni 0.9952251292761444 3.442706778995813 8.105635846479062 -0.2997456343006128 0.2771358673208969 0.27598812686969887
Ni 3.514302598473074 2.701580149444705 6.960630605379036 -0.49634349486644197 -0.8064133939111984 0.6993313181190149
Ni 4.193499024336944 6.736835117320017 6.079058885106749 0.63757393440556 0.5216758029836435 -0.4498695196746188
Ni 1.1136266706965172 7.327815909044376 11.359658635296892 -1.2390341538076983 1.0380975566571993 -0.001824969023880728
P 0.16463435267919233 5.674274966580293 7.901690452506618 -0.28050375535186534 -0.36045349370363083 0.2455776328986416
P 8.545647466468745 1.7433780219364954 8.140640148807535 -1.1234273283739558 -0.36358612579534155 -0.611207014376257
P 1.7436662788845667 3.2149027177526746 10.368947429666955 0.011324166763567595 0.44290697231385656 -0.06050937023896676
P 4.093347750941348 6.134360079791306 3.8246202111016823 0.25493284886129647 -0.6141694394386907 -0.3332373383001551
P 6.945145802449819 4.108084887411504 10.432838681404043 0.05975012347543904 -0.6633137623738254 0.005325268867655345
P 6.422752148307224 7.794729108712833 10.221667946867592 -1.0325051501710865 -1.4068773108383383 -0.4410166972696791
P 2.36102258135747 8.464998577216113 5.698959670167804 0.026706819867224976 -0.2033143533540563 1.2674276173487269
P 6.899087746965767 3.977729690675791 1.5962859061533798 0.5873512908045819 0.08618209241472254 0.6447182587598251
Ni 5.338924039617599 2.930870535576337 0.4476954692617138 -0.1271485075247552 -0.34254833128843587 -0.5788327118106096
Ni 1.2558634585105533 1.1548203901818617 6.915290489856275 0.8656390123417349 -0.11580865703190377 -0.18735268781847733
Ni 6.90074522441718 0.7410572677229782 9.329178494687099 0.3630857891201554 0.13274888443066815 -0.46430035038796813
Ni 2.6071129427438944 1.648604542228359 9.153341756363474 0.88056092375889 -0.1815484224318744 -0.3507298386579637
Ni 6.3047379521608224 1.8139649420955064 2.3574734176843393 0.1757647258705618 0.36635109013498846 1.1631788972402808
Ni 3.94013918304134 6.8109802091817855 10.294338424279383 0.856593357199699 0.3829344484149663 -0.0866880855168636
Ni 8.242239012564225 6.949136359574684 0.5631504841910183 -0.22805607907511047 0.13987598239375268 -0.7207735471531909
Ni 7.294044805971874 4.04174074920692 8.165795071541586 2.3232573011783666 -1.6048229436813137 0.48629973747719485
Ni 3.0642434222371744 8.619972718923059 12.378900072362205 0.7710825798203882 -0.9509497578950978 0.3496353200422043
Ni 0.005626415305170795 5.014103499289143 10.096615777173431 0.02416836971608741 -0.5955160860035614 -0.47898494898333643
Ni 8.511173737085317 2.3022722121286447 5.746540983461821 0.47999050742971533 0.16032627982830452 -0.2261388074477396
Ni 3.7308556307117966 2.5942404684065767 11.221461948770669 -0.10613822382167527 0.12521015285146178 0.2671029085649271
Ni 1.1054473797949882 3.366706033030834 12.59037347669413 -0.45121009286291325 0.14994390815271597 -0.3506498773496477
Ni 2.920961702986379 8.447532007768904 7.9825618400910425 0.6972703218249282 -0.3293724560281102 -0.2123823770935955
Ni 5.691687487849737 7.9319664400837535 3.5790514146306744 -0.464987863373296 -0.3184565804465548 0.2039805261831455
Ni 3.0785751973741045 8.1702918799315 3.6187227771090162 0.9308185343628613 0.8208619652363605 -0.7068376537983891
Ni 3.383641128730035 4.403863540221756 9.253329984422818 -0.18253701159738886 -0.8038808572973317 -0.17169569800751075
Ni 7.297089519985879 6.036019420350784 11.543129678729594 -0.4716277372873168 0.6926901586534135 -0.46611837743331336
Ni 0.5088735024750783 8.935199707698509 0.23130007754146817 0.45674979173421987 0.3683323822310753 0.49821860040196775
Ni 4.348365069688363 0.4176248647600789 1.4285960298246294 0.5539850566393105 -0.7236714375262763 0.03794716866773465
Ni 5.849652295392925 5.6158939265661845 0.5240232067021616 0.7091899560806495 -0.27243923317617597 -0.3169979936231573
Ni 7.872882773758721 8.547692289194128 11.503207893027616 1.148225361254242 0.4495728143698064 0.16298042962169995
Ni 0.0885714513097852 4.70930780882203 5.907269454494644 -0.47192675658497435 0.5109851560390167 -0.3373097085973159
Ni 8.03236993830891 8.772559732778786 2.5370286706380836 -0.8547259649736569 0.4386965337769348 -0.3863033648871992
P 8.50777770991585 1.7055082653836007 3.4986943855379646 -0.019915250866688283 -0.5801948822654589 -0.13656105908790675
P 1.8637433138156054 3.286912906592789 1.5498242909420288 -0.5614808507957233 -0.18828548404539186 -0.8670574899558163
P 4.591635917801463 1.1373898528531623 8.139374520644907 0.1199221649796451 -0.23496103372505986 0.8521031826388292
P 8.456287812566575 1.5526870427575639 12.317342801101535 -0.16847667684958081 0.3518266712665683 0.5556591019076237
P 6.26093190408358 7.686155327615773 1.348713723893275 0.3295735162953227 0.07679730876571289 0.15536739316113243
P 1.7274518255555442 3.184212360812686 5.784696294553899 0.24373209504947055 -0.44602443489691573 1.6930616615147487
P 6.900826296683824 3.7389988894948165 6.011041955800387 -0.5961112963853992 0.6854869560367549 -0.9941059815675977
P 2.5137266995983527 8.534774774708673 10.20375007513606 0.05914437157064008 -0.21512008773973273 -0.8590626446757978
