# total energy = -381168.10467944667 ev
CRYSTAL
PRIMVEC
9.27073485732165 0.00000000000000 0.00000000000000
0.00000000000000 9.27073485732165 0.00000000000000
0.00000000000000 0.00000000000000 13.56865756392706
PRIMCOORD
 96 1
Ni 4.425913731499871 0.4385094685780403 12.377844864856153 2.0288713885277705 0.9950945707331119 0.8576467381648779
Ni 2.9757390263743337 3.687295741365546 4.722001535334481 -0.12495998451386864 -0.16033450735842064 -0.3372006938232773
Ni 8.142746034224087 5.529223890726274 11.8173918578326 1.5027820298574637 0.05313338948986978 1.296718138782728
Ni 1.4919949902130953 8.644051752651182 3.5015547137028884 -0.9174652529844071 0.25141969350171534 -0.45907792564676414
Ni 7.746023476088002 7.756879506643871 1.3017715622312551 0.8540345953335873 -0.12029240383487025 0.4061759354414101
Ni 5.51884993838467 4.320301519636102 5.014270723468013 1.458448498047411 0.8682029164141694 -0.515918588784892
Ni 0.23551467621211225 2.287433314486557 13.00314295413939 1.825530809921469 0.28892257554317985 -0.21383145083529626
Ni 4.923937609776003 2.182015788055472 4.323896710626338 0.38467020015915043 -0.12971318292813788 1.0895548439962268
Ni 1.2017375515506346 3.98560017791229 9.576338175852369 -0.1548598573970946 1.5953016344544395 0.09669996122691088
Ni 1.6538527506528382 1.4352024682786282 1.5027286470684214 -0.8597910382013902 0.7137163831960934 1.0041330267862967
Ni 4.01852055750571 7.722800285189236 11.674839475727225 -1.237267805935895 -2.724342966581063 0.10344396481896379
Ni 4.9834371862982705 6.2062007645788055 9.819338970487937 -0.3779189974782459 -0.3822029695655805 -0.15108059286032047
Ni 2.736720939447394 5.413997926781858 11.344767939007344 -0.49190037149342386 0.8658297881963023 0.06807329862915373
Ni 1.6529627601034245 2.164197435597417 6.163264283010523 0.7363793720112479 -1.167314516675209 -0.6335025925496638
Ni 3.0171421283918547 5.3168220836677405 8.514631366517104 -0.9199905905094219 0.011875925501979547 -0.013805538424524613
Ni 0.08954880952033946 6.468738705920983 3.3782298357588068 1.0017642694438038 -0.4589010337492677 -0.7357671923485458
Ni 5.0174422418737885 0.19692616930711282 7.389612854472917 0.9609323230291064 -0.10334754845041556 -1.144972658644899
Ni 1.568126265127533 5.588677113574093 5.277516021882277 -1.3101876340240726 1.149583160833717 -0.030457288048592705
Ni 3.8491164188657296 7.35629105205877 7.658394635763325 1.7020738923156882 0.010771379583891127 1.181882901407687
Ni 8.15756066857787 6.155934840006705 5.3038254404258325 -1.7766240569184368 0.34115325071312214 -0.8564822855431313
Ni 8.003369805891932 0.5870461100547344 0.3127157939328244 -1.6432935889526858 -1.0464626407924429 -1.3749156703300773
Ni 3.3384101752604516 1.6167605403590406 0.2745917508458003 0.15946393182800922 1.42417569290747 -0.25190871732299197
Ni 8.679206379353026 2.6029349642537443 10.079586113238863 -0.9141156197858837 -0.09199201422828028 -0.3314799892894162
Ni 6.643612578145902 7.252736943340521 8.241480287873168 -1.2836008846744795 0.1745925599393316 -0.20980716016725157
P 8.388225823369167 3.7301358072909743 8.153420358376119 0.7204881547022882 -0.18602985524199575 -0.017313294467466957
Ni 9.138793790776349 6.011710017327223 7.3451216706636275 -0.4974470123432659 -0.33391945196884426 0.15914485792569366
P 5.482805321133411 3.880470044262786 0.3522230306653958 0.08037371326306159 1.8275434694761237 1.0084221410799536
Ni 1.432523225895497 2.173125153296224 3.6816786030958606 -0.4427177391211859 0.2798067292848407 0.1414196727317887
P 4.805930425364668 0.0923522797509929 1.2330383337588195 -0.3077865023272183 -0.7019844394711459 0.25738208173273736
P 2.6371903296712853 0.40778625315348527 11.559451273922239 -2.9948009076611517 -0.8842466001405933 -1.6196091008515527
P 3.6962512712690225 0.8255496711952947 5.650152283701361 0.06979722329879594 -0.25309888097635125 -0.2957326564864778
Ni 3.167726675205689 4.395181245340426 0.26479907358178173 -0.18350451771698073 -0.7541647210191269 -0.385099317276769
Ni 8.215131932243075 7.752995068725077 12.465403247595669 -0.13626229690056532 0.4966702820782414 -0.1588970035809457
Ni 0.9065629151026625 3.917135800751656 1.0733109881967362 0.8719945222461176 -0.6515165126285812 1.0853716591528146
Ni 7.645834644134723 8.433726590207947 6.541856991996259 0.16091917621729707 0.8077902196540669 -0.3264380559901346
Ni 3.6429630871228715 2.778457787920945 2.5233494135193943 -0.6177833820421941 0.8098319326744441 -1.5904908433293576
Ni 4.0909991628735956 6.374325541804004 0.790667604099208 0.08834053351862206 0.059613597897574755 0.17156868551134324
Ni 5.328762790205709 7.237236274604897 5.738416169365985 0.9665928637489933 -0.6158473413617458 -0.22402150399442064
Ni 5.6798547912145585 7.451121399245788 13.407787355238748 1.6995457265771956 2.772667878938696 -0.5512334620361022
Ni 3.744069721830234 5.4520357520344085 5.958432030989451 0.06608172212042168 0.6961264380284721 1.1203245210789157
Ni 5.9492438056402435 0.005067383690724747 4.858108902544518 -0.0904300690577991 0.6587045457365882 0.4989619063258956
Ni 4.683742139518067 3.303116487535261 12.11473491917128 -0.027750687750707048 -2.412318772023413 0.003848941432444984
Ni 8.413312431980769 3.7493447699824887 5.6495274361697945 0.4962218816869132 -0.028344098360331832 0.5780122727918432
Ni 2.823865847410827 7.960928381566762 5.750885307792667 0.2152681832818228 1.108874370260445 -0.02091232467263495
Ni 6.502938446929185 0.18137173030912895 11.846537194178925 2.043438744818984 -0.7721950961582765 -1.261359556777776
Ni 5.933131268401898 2.985213717431635 8.323136920781883 0.1074919096360923 0.4810721705296683 2.141401889029035
Ni 7.992282006963819 4.445771645633666 2.8437599174106922 5.195905868977774 1.8077274631914608 1.8558945098149908
Ni 5.77824510059923 1.7575366496595441 0.3947135898854813 0.8103574661606108 0.23725497196555914 -0.05415566010679706
Ni 2.640972789506294 8.075449769659558 9.651358816727019 1.541906506662751 0.7223200657047043 0.1691852728808312
Ni 6.9249422991095555 5.037912024510306 7.2521352726461785 2.031897319838288 -0.4336260612325629 -1.530163764304526
Ni 0.7830414975789187 0.6005443000541768 9.20166698772499 0.7300387745052008 0.6223002960759412 -0.8809977541859925
Ni 2.121060706155517 7.027699124627289 13.193524911687845 -0.40274094161793217 -0.8379461744121569 -0.9334960811950246
Ni 1.9776424374114414 2.4447576855652233 11.187344371065358 -0.16547619946036016 -0.2619612164629876 0.30156571822848705
Ni 6.791638402130173 4.1773745998411815 10.804206220763188 -1.8289452349196564 -1.6913061122762225 -1.1944723080369233
Ni 7.396572395154634 2.4127272965212163 12.388726853469715 -0.9900757773622818 0.17420098092786773 -1.0306722107274056
Ni 9.338596669119745 5.9318240947824465 0.48646512601561986 0.11996124574769661 2.1653548003002063 -0.3787090974797091
P 9.276668160056369 0.399644693773327 2.177661323877767 -1.9718808300753397 -0.8920889790031474 1.0329404379362919
Ni 6.1582896066686965 3.8104481836406787 2.443674863730103 -5.240504224413439 -3.139993160061495 -0.31689874904113163
P 0.44207128492267345 0.5995782894786673 7.121347453115867 -0.027946091590964776 -1.3570547308892562 -0.47182339823789066
Ni 1.2858231170004577 4.105350260482893 7.137642623831539 -0.46912656813201786 0.6144183222247032 0.41873757415650464
P 1.517739821001867 4.6925122547237486 3.27265192561413 -0.013207499829209513 -0.6684040324125392 -0.31953567244334646
P 5.98160794114028 2.0042865294845167 10.687692551742588 0.6213639003046009 0.2269772441886349 -0.9268364097866618
P 0.8448633931910627 6.323994722087676 9.760098047469093 0.8338532352897058 -1.0173099304878868 -1.6822823115110574
Ni 8.052894071672853 8.343754108103147 3.7058446277329113 -0.043377081434054325 0.9945975764920355 0.15492927718244928
Ni 5.247968335641739 5.550333354070182 12.114613472544224 0.13118539659829018 0.45613426963740805 0.5038248908451516
Ni 8.784596093579442 1.2446888662947393 5.273512918556892 -0.3658934337722795 -0.5610496767955757 -0.8011223207155881
Ni 8.108054944266728 2.4152396656763324 1.4365272562943703 0.3037087327134189 -0.04452250789240719 2.2101403320460133
Ni 0.5350261624414986 7.915891151472469 5.602783463782302 -0.6240447895708737 0.5018366567705292 0.3647775750002814
Ni 0.6999664422320755 8.866428870451063 0.27214613098189033 0.9912605416990026 -1.2969842479599212 -1.003533702639401
Ni 3.9657886174529433 1.536383268865108 9.989503309388875 0.10847201416117448 -0.7746654120756401 0.21344424269920662
Ni 3.9150684268712475 5.071935621555603 2.717489726992144 0.5440757679453985 -0.3131490521907123 0.7157503829069867
Ni 4.965924768091576 8.642976347403973 9.813762623451765 1.1574774759801294 0.06388394313815449 -0.7979778615493354
Ni 6.857201039270321 0.5359810481351405 8.67604413168214 0.5780845207906753 0.6580136903171506 0.795861586537281
Ni 4.2852025173435955 2.737026873698755 6.6802301268133455 0.3072805092250772 0.006046206194079909 -1.4040611815457817
Ni 3.9009490976341934 3.8798025513507257 10.126600791085135 0.8331176426752619 0.09058176414431496 -1.305151357151746
Ni 7.871243292243544 4.2636295172552 0.2619473955297017 -1.1033894358864738 0.1943139496276589 -0.8249443628358503
Ni 9.21418340689961 0.5646563582225549 11.239678596591355 -0.7559380108694659 0.5677175757340546 2.6156593506297146
Ni 2.86754955021122 8.336671266647395 1.3024993149200987 0.9521916007219988 2.3559357652479944 0.644890008450999
Ni 3.3386326728978055 7.115678398730798 3.789047619221233 0.925369081212516 -0.1026464086183329 -0.6163962718866803
Ni 2.819221209231074 0.5249878107029022 7.817433165723101 -1.2334972831498692 -1.3349879808972043 -0.6101317790342072
Ni 2.0794258357657536 6.378738411611513 1.923235275564101 -1.5467838893597103 -1.5119824654098089 0.21932769806317712
Ni 5.729916759619083 7.893372536425322 2.739742271947956 -1.208049789611042 1.5078748709993384 -0.6552384415648586
Ni 8.078666714666294 5.681199047773568 9.472062803959698 -0.0370807069023813 -0.41927004962120695 -0.37063866176674876
Ni 8.418809977770376 8.226173377496739 9.565129857370689 -0.020648529488287017 -0.9975659150917401 0.38695282554574
Ni 2.865389468981914 2.6904970552872154 8.315986402961437 -1.12856670648305 1.3727785693824164 1.3666562585347626
Ni 6.72788355829352 1.9117367830803726 6.5221010559462504 0.0551542765746405 -0.3742248364561104 -1.2429237186700917
Ni 1.5307003083777055 7.395293033739852 7.824352842244794 -0.23013841552543593 0.5469191509314646 -0.5920034448646128
Ni 6.428948711774274 5.802525155275426 1.371479144940601 -0.4057223928437593 0.5750315928969645 -0.2641026882860226
P 5.059577731947597 5.263181611595781 7.76492186916071 -2.9006036582514367 0.49390763173143976 0.6200539232439256
Ni 1.0517741439744115 7.810761017822965 11.123870430495863 -0.3139669201063173 0.6092383206856605 2.511016994627276
P 6.360790268865002 6.1694608422108175 3.580686925501131 1.0655463968967713 -1.9812098207857491 1.738633950827909
Ni 3.514517055225705 0.6542923126508577 3.1716194567858853 0.36943615681821534 -1.8117530394110861 0.4341140566125749
P 1.0789744801408703 4.282291506588221 12.202592746647733 -0.5185094894405199 -0.09743246851756124 1.1991095496986188
P 6.7342896361023215 7.097646819370278 10.80571271518277 0.06791517578473465 0.5808003770599417 0.29080256617471206
P 7.1966304557878935 2.691730063027549 4.2143305303320995 -0.28179959134515337 -0.5008113008298085 0.11889063839133718
Ni 6.279634255640333 1.1655909562155893 2.72275457733602 0.6613059879151773 -0.4881249636113916 -0.2337626425415845
