# total energy = -340855.41076479584 ev
CRYSTAL
PRIMVEC
9.34656247877351 0.00000000000000 0.00000000000000
0.00000000000000 9.34656247877351 0.00000000000000
0.00000000000000 0.00000000000000 13.67963895269297
PRIMCOORD
 96 1
Ni 0.9498537382107299 6.962721570071471 10.091592647893869 0.7026022755608029 3.509414147371059 -1.6347241021161203
Ni 3.2448647196789753 7.871244809882501 10.887597297703818 -0.5591203209833467 -1.019997761732695 -1.2890667928850574
Ni 2.186899295581922 2.7050166289805953 3.840230455661022 1.3294266847593426 -1.4844809175554305 0.8969923298420358
Ni 4.20991596815608 8.892908186086196 6.305766661949031 -1.710497597603009 0.4654923138135402 0.07910101719822506
Ni 8.26132358661508 0.07870833561142207 8.876498426692178 0.16762795569604033 2.3214199908593116 0.878945499642654
Ni 4.039584217175501 1.4634940682775501 5.031179702526226 -0.65784836838388 1.3351648727947008 0.3050773309261714
Ni 8.220105246962731 4.423868125294823 12.804087461354246 0.6110460633183606 1.2355569938923754 -2.022067992452692
Ni 2.1784032704699077 3.9345382037168353 12.492930121853062 1.8570769601588661 -2.6608248914227595 2.653387718418424
Ni 3.3184408579427553 3.9017598098028268 1.8163277289827722 1.5296608565261784 0.4758006377180838 1.4416255129528008
Ni 1.7894180415240262 0.7691332832565493 12.836480776902341 -0.5030892982307078 -0.3077289096164055 0.10170898440572808
Ni 1.2061271293507925 0.7932464792812857 9.34587437245978 1.2199951348983764 0.23485124762007295 -2.026158103361665
Ni 9.276266784539853 3.0477737608923494 9.131063266247557 1.2484863003595337 -0.8840712509049936 -0.4393339102506176
Ni 0.5927589797623098 8.658954385669444 7.357497929005696 -0.20882242765647907 -0.788849416885506 0.8221179491306486
Ni 2.620439586913911 7.21872391090543 7.752757505209767 0.04370489708711828 0.41612327646210917 0.7520733857077371
Ni 8.89907691719063 6.536181853886785 13.457440204374189 -0.36103944811408784 -0.8775617319212499 1.97260999493188
Ni 3.465107113231783 4.992008260013079 10.659187878031233 1.6102659690737557 0.1326871779547973 -0.05804342519697746
Ni 2.1919277460882625 4.569160435928773 5.784968734488612 0.27087266002000443 -1.180017308953858 3.140160795987611
Ni 5.75255672581596 5.0355725867975645 12.733418103959375 -1.18525978829972 -0.4589151748166548 0.1543240394982826
Ni 9.093840581969673 2.3182558818572216 0.44934906677143976 0.3766948952631577 -0.8177920680617852 3.438214644408098
Ni 5.898970623923442 8.204664726077091 10.812660299972151 -3.326106319045917 0.8180782318436364 -1.313709531134402
Ni 5.042423616948397 0.18457684655067913 3.4575560255662205 0.43153318325927614 -1.1595978647572416 0.8902735230609634
Ni 4.8507536642838485 1.1280272549437624 11.29083136084471 -0.745001052241988 0.6806342559301439 1.3653159424567842
Ni 6.915820520553224 8.031491620163562 0.6757929043966584 -0.48736571684786384 1.102619647599985 1.065319625597946
Ni 1.168497869613753 5.099951707778372 11.12162867458749 -1.272554654162647 -1.3204257668123132 -1.1281039079140183
P 2.9606824935724947 8.40155940705585 4.153493575643764 2.1129932559793545 0.7224661043642654 -0.7096663814964358
P 3.2032912106600104 5.922430495244845 12.726564269839857 0.11657484577396696 0.13901877659977993 0.30020251933237335
P 5.7273490473483 1.1422807624199138 0.9844771435187007 2.7206511195517726 -1.8487887520081452 -1.338299304658624
P 8.947847279164765 3.6870505811194496 6.9973674071289125 -0.35267410686852807 1.2985179109956282 0.33828929890176573
P 4.3350944767646675 6.756564445873785 9.323453838863852 0.19006597298458233 2.0464250811408173 1.8876496907394005
P 5.519444116004356 5.92369228115257 5.883339433167301 0.8846610619701927 1.7074320713038078 -2.050022825794405
P 8.806041236261049 6.206930504468827 11.359449147819246 -0.9697504355413686 0.44853871667833717 0.3085830300865847
P 3.6180636049348767 6.042982455525108 2.6137138006976235 -0.30251522662595 -1.0534544987292438 -0.49878912819345717
Ni 0.969303934314252 2.3647269895106144 5.962379571739643 0.4932296318278086 -0.6884663503800531 -0.4278868447559406
Ni 6.528667217814112 0.6846478375002032 6.314371107183487 -1.5108120992507914 0.7276702742730242 0.3074386320694963
Ni 0.27031660096492655 1.2549629172608852 3.0796829245143695 1.6143203416487875 0.7620099280951586 1.0830214137530834
Ni 3.7982466325579893 1.5999632241197055 13.71835229437354 0.27409810893583764 1.4352244945224637 -0.24147698046670668
Ni 1.9698627728909632 4.895383499168191 3.7476331285023465 -0.1675045427442986 2.8407607179518752 -3.0088800114620375
Ni -0.1167909036190148 8.548375207341348 0.8982607144282015 0.3521789123996645 1.0000238897139293 -0.41665909436092113
Ni 3.4210754583333247 2.3373882948432425 7.9817136987757005 -0.6333362421751286 -0.24196369029513815 0.6039698731978695
Ni 4.621800274686599 6.747292656092577 0.696592744093332 -0.21507766453757152 -2.4319455451154055 0.3351921480336808
Ni 7.870768135206251 9.438438986650478 2.7788544709881995 -2.0386541789461474 -1.0842023214350618 0.37756161413882716
Ni 4.300764553512272 8.840015990146826 1.4439681650195646 0.5691105994268392 -0.2158816484961056 0.31034346442111715
Ni 2.8347469134192718 0.9066632739174213 2.3353058807673825 -2.2132431393410528 0.18518036275750688 0.6457857807923909
Ni 4.072222412655319 8.52920540810621 12.93479633086358 -0.5539886561837363 0.6589184615196072 -1.0784970435201684
Ni 6.684904352877291 4.132825522475231 6.28085526950563 -3.482398280903848 0.387264700359204 2.4603726901078464
Ni 3.244677788433387 6.759695544237398 5.565505844229911 2.409844856561624 -0.38203507652914853 -0.9017704679569696
Ni 1.0277479882476126 6.612132018969543 5.553577761448886 -0.9820963587012312 0.0011212580886367784 0.6483026336769738
Ni 1.940168744529171 2.81059539648919 10.256828653119694 1.4702503757783452 0.5217465083205788 0.49179367071223046
Ni 6.18822803334766 8.317645970911006 5.040481401306728 0.7671752743461819 -1.9122047543709455 -0.5230819393025508
Ni 1.551314367455202 7.271774998403552 12.703323108075795 0.3629729176913749 0.7687914697933662 -0.22579299407254663
Ni 8.73092291522116 7.908182424010863 4.712963839191608 -0.7533607370605928 0.38887832470322703 -1.173053218931199
Ni 7.743131480718169 7.919463724682151 11.99808292456152 1.4275867754715477 2.2376683622629527 1.190270354140434
Ni 5.721862615290266 4.580656707532489 1.855888923142973 -3.317740206469409 -0.14890363981365967 -2.140983313434377
Ni -0.07880086657798854 6.160702407434699 2.228330736854239 -1.7617584526605143 0.0637975540719353 1.2506033467025366
Ni 7.391027786526972 2.4743341253616493 2.3768644352867003 -0.192746605140539 -0.14588490759199393 -0.11994144825335473
Ni 6.956936048020495 2.887919506227026 8.799427608792113 1.6203572918714866 -0.26883814608847895 -1.7512968910075581
P 1.9246441045830154 2.87105830787491 0.7533291810982381 -1.8205971200652775 -1.2705522790206376 -0.3980139684559081
P 5.900877322628448 7.212237396683497 12.684622506267083 -1.0083285529248829 -0.778354173781137 -0.3478165216659107
P 8.539056684748743 0.5544689180721134 12.776481455005683 -0.5989618784603168 0.44201762773036773 1.5977462393401902
P 2.29845986294936 0.7792182239560689 7.300672699659135 -0.06989981031493123 -1.2640676997375586 0.23754139285772638
P 2.6791640377156547 4.3642931373256495 8.632440057795119 -0.9147748506364375 0.2064773244630702 0.35110444838856303
P 8.067485231501697 7.736504768062043 7.722498009830069 -0.7520474175658081 -2.429432291775248 -1.8680180325514022
P 2.9220718447961134 0.6553809470345816 10.739350538733337 -2.218682050968437 0.15283974164327227 0.5588161594793666
P 8.61721263852945 0.6195892214416805 5.1785366687677055 0.08558276826782679 0.9438540273905809 -0.541857420137841
Ni 8.288727707218406 1.6491261417095784 7.190346813168811 1.5589326089071023 -0.02932034623067209 0.5169953667888387
Ni 1.266552654487395 8.076261653482096 2.8566365622777288 0.14358197049043014 0.3219208848460714 0.4267478460554909
Ni 4.287127919146564 0.1852610149095344 9.044170146048026 -1.1131848247103409 -1.1690914060699735 -0.4956251286431786
Ni 4.550925292921578 5.597291633229842 7.671992925896868 -1.2342506163761258 -3.138036807666073 -0.3890194782667817
Ni 0.5297556727490367 3.5093443925003895 2.501992472458979 -1.730206388885846 0.6939137466478695 -0.7909916600394893
Ni 4.790842200072615 2.164822715477876 2.3443888699905457 -0.6926305090600717 2.3171946399240544 1.844247669604682
Ni 7.2497731907977405 5.580234157069858 8.279738183618038 0.02992686946641943 -0.5670835416944814 0.9904645281602684
Ni 9.228010483491087 2.5245064716777024 12.076248224904507 0.5956433556100452 -0.34527318641876664 -4.634200303765754
Ni 5.524687537443125 6.570595896199696 3.615610132336523 -2.082585076001142 -1.2381471232170547 0.6982666242999264
Ni 7.2035264006390545 4.75901715551111 3.264563534339131 3.272438911429448 0.4837859699164056 3.307256019108633
Ni 6.936943751304765 1.237148369556266 10.607547186781078 3.5465701875960662 -4.886385928899217 -0.4946645645021222
Ni 6.743582070867638 3.016976838181583 -0.01080649530749263 -2.1984901494015943 -2.3968849539668464 -0.13560126627779873
Ni 7.706081707842454 7.500662962064845 9.766851949431969 1.061828581725552 -2.435098746032406 0.3892591050814135
Ni 4.751352974441966 3.7109403943057075 4.149786729043736 0.03617362170707964 0.7874965024020374 0.6790118898353725
Ni 1.5668296608390782 5.212979685423683 1.0060321854475534 0.7199315108678698 0.5244775340984967 -1.4958860740685787
Ni 0.26811174692320583 0.0053331484366504886 11.1450754607217 0.053183011780882604 -1.5361379796100898 -0.6274383886334549
Ni 7.744084830070672 2.822269252776215 5.181218197485677 2.3771764197943255 -2.293899931062172 -3.425206405073888
Ni 1.649920599503331 9.280799867245383 5.510473285528548 -0.42903432809682235 0.48963625804959543 -2.0685471098508375
Ni 0.6412629647114821 5.756650520094355 8.112148714010248 -0.09589186350331873 -1.1049503526156905 -0.9567954180425973
Ni 5.601058297828459 7.660937812032742 7.567233851900181 1.898211525415647 0.44757635276506785 0.4745536526848601
Ni 4.984727287997392 3.5566286510720944 9.000053437432825 -1.7565761371286264 1.7600206440338013 1.051279859675428
Ni 7.798584634722108 6.021391896659594 6.120243008639444 1.6415493525680696 1.8789971572707251 -1.0422532306967858
Ni 6.052955237477274 5.619471025518963 10.390930324736466 -0.2480361217414632 0.1716872133670785 -0.08558353959877518
Ni 6.395375893146968 3.101609959621944 11.012464565788498 -1.3386633728662625 5.076332859807432 2.2413884914270175
P 7.805145921442277 4.466628647723277 1.1580091574237614 1.0357339415210294 0.2491344970119645 1.2479425120409218
P 3.998674314078377 3.533337017871721 6.358925234913366 0.9942044548186748 -0.05357844744708836 -1.6062468206120337
P 4.405333892294686 3.1499784194180642 12.139748769031046 0.7364423640386994 0.2683907741384152 -0.12710042789563916
P 8.132425146219273 4.431700544484997 10.080498278468168 -1.6461541983299328 0.4025442522260938 0.7422592278307927
P 7.198554029506391 7.376465842495598 2.769032168688732 1.7976361403937298 0.25921682094863097 -0.17627149030365127
P 2.0697681770959355 8.498548683829634 0.8590388004787447 1.023630987609908 0.5339201675686353 -0.5819584019237848
P 9.144414830463743 5.141599989295572 4.389111998802484 0.2873806849773567 0.47431891096623474 -0.3430414688747705
P 6.180031098228589 0.862643769549926 8.549308928913065 0.7325324874613319 0.36407617805788267 -0.7020664576619908
