# total energy = -381169.17803588463 ev
CRYSTAL
PRIMVEC
9.26337346860003 0.00000000000000 0.00000000000000

0.00000000000000 9.26337346860003 0.00000000000000

0.00000000000000 0.00000000000000 13.55788342743365

PRIMCOORD
 96 1
Ni 9.630295730137622 1.7170311228740769 5.323380999777841 -1.7558587993466275 0.7706956287946147 -0.6128139538520607
Ni 5.551271104063353 2.679727214441638 5.293417691836687 0.2832738618978347 -1.542724374578356 0.3866633193297792
Ni 2.6814965187812043 1.6101966362342053 4.737395739549712 0.4090203468687408 -0.18514462442356502 -0.6730243047933698
Ni 5.1699443337060895 7.433866501602689 11.510900428710608 -0.8142917682180104 0.23163094091056236 -1.2865831072312552
Ni 1.5383313845779034 1.9552295091966008 7.487923844031861 0.0305804438900183 -0.05113050012722807 0.9587348011571553
Ni 0.27020426812165843 6.972115122469967 5.2171551167772865 0.7818868695247437 -0.3138972432106465 1.4866789536480138
Ni 6.1642285289276835 6.557801479059327 7.812689382101394 -0.40971043095722987 -1.3022035873773314 0.2769186091037682
Ni 8.084451749646691 5.439434395730467 13.577135721636644 -1.1498582688719745 -0.27247471439980175 -1.8040132475646673
Ni -0.09549055944493673 2.5155524458022165 0.6619245435521848 0.6688503759213384 -0.22704512131209287 0.24008807053898001
Ni 0.16129849116593853 9.244772651582329 9.020615686819566 -0.5600281775095968 -2.35794636792012 -2.054232235890062
Ni 2.771768093593096 4.16673950979862 8.712797490578494 1.3526234345907802 1.6524647139289927 -1.1916906315267282
Ni 4.964612396581368 8.523832081763436 7.554493225055022 0.10080292765169091 -1.2709153187870113 -0.5535855072080466
Ni 7.346049720769776 3.642349199021155 3.627791807557134 -0.03275945381920809 -1.3864648086202573 1.064687905551218
Ni 3.613039885249495 2.1457400487123905 8.452039084420477 1.5718390325561251 -1.267811997271339 0.5511316463509153
Ni 7.790515644941084 3.4699485547087767 6.093766678357477 -0.3506941003240218 -0.22034816890789147 -1.3521503516091036
Ni 6.733490620966187 6.050048187097886 10.368607904291533 0.3695279452010733 -0.6520692998082577 -0.27000439848243823
Ni 9.10984235310003 8.604590171985095 11.202730224276324 -1.564846917509008 -0.7416290504459615 -0.3301178188345669
Ni 4.690286853587078 6.5229897214253505 2.620060899354837 -0.4434278778143331 -0.3154836138611599 0.048446268426845594
Ni 7.083720246465212 3.8141569874291754 8.328120158024262 -0.8457767262001691 0.3626160485725884 0.12329005301061349
Ni 5.452662493096438 4.815814827961213 6.092452205657035 0.7323501962471968 0.5520125062939718 0.4994709847518301
Ni 8.41375541439661 0.7971123638179407 2.215547905113102 -0.3640424966064698 -1.0315754392679655 -0.171284321501705
Ni 1.802967438885357 0.6658086760630753 10.277675850948693 2.4238992777721613 -0.4211657239820231 1.4464866976998443
Ni 6.271915245930068 4.52012794566305 1.7422423202068678 0.44556909252705196 1.3692620715887258 0.04456107443982648
Ni 3.3780929430274305 3.36972811675189 6.2842957446202785 0.8579596414196063 0.52623128356481 0.5882120961429804
P 7.407725261569938 1.2610230353148146 4.188884530501063 0.08504489348648579 0.5737797227677344 -0.07030295929062085
Ni 4.924585359663751 7.211351006625114 4.817278440975095 1.1598212936219574 -0.5979396078433896 -0.07736732233656998
P 1.612188261537905 0.6237992772152628 2.1869268599929073 0.09618651192560208 0.5257044645270623 0.7001977798843683
Ni 2.914711210157725 9.063099370390864 8.47594136707693 -0.6480630068623421 -0.429911331385137 -1.0420457426716698
P 6.948085931596487 5.779502100493872 3.5632964958618722 -0.615509755516669 1.526884579332622 0.5767094948200198
P 1.9250401749419104 7.054540619922631 7.148556450305478 -3.2859243475103925 1.41948162986591 0.6658306152584081
P 4.950189324033179 4.567500837770594 8.65536642751859 0.6181687904060709 0.13570256774235337 -1.145597950933724
Ni 2.8976202860399276 2.8093959167727687 2.2640713082100397 -0.6671390496571865 -0.043701297542692474 1.9583905088983884
Ni 0.5313396935813525 1.729406989877534 11.824630509922942 -0.5714266491545256 0.3344652971699853 0.40374495740241434
Ni 1.7635981014866353 7.0765318686248815 9.415001034807648 -3.8016984402976197 0.6362737275368977 -1.2968274106670827
Ni 3.473718747725549 6.604396247792401 13.283851758425829 -0.1388421418125996 0.460279145043717 -0.634496838142133
Ni 9.540718908338649 4.741198354373753 4.3420608957773075 -1.0326277917918796 0.7888129072206157 0.29376370568556504
Ni 5.8036887687169445 2.64223834186455 10.138585371425036 0.05027123745072632 0.6483892798535091 0.1074191474166279
Ni 3.8765921248567956 6.5997923511601275 9.180165253067651 2.335796828406274 -0.2899764707289909 -0.011798278186508714
Ni 0.9793516371305968 7.241095698951537 2.871722672730373 -0.8430063625438837 -0.7634122077593241 0.33072511340126265
Ni 5.91567369102592 -0.31988188755739105 3.0217948815448974 -0.3845416450010861 0.4390724290591148 0.42919887869914464
Ni 3.0420825958594713 4.2818647157259875 12.70179787391347 0.668721563652958 -1.0513965877589506 0.24359968323666434
Ni 4.1850161457251325 4.5612110071603045 1.1074427869537267 -0.47742866023981 -0.9234942327873062 0.02084136222538346
Ni 4.688878820814229 4.685256841773547 10.778571467503951 -0.415925044408374 0.47581375034420625 1.0832893227024891
Ni 5.930791516587028 1.2722317172565683 7.622051934368578 -0.21990105406814384 2.2094713310034466 0.07940106493714713
Ni 3.7025240733134126 6.378796049437469 6.688876361488604 2.995483535550473 -2.484165164541754 0.9945443546565969
Ni 5.616948422217927 5.773314166992143 13.16965381618637 0.9802713896773505 -1.1266003267852984 -0.32586598553674845
Ni 2.6248417264210677 6.1795130952118935 4.660631089646309 -1.1621651112637856 0.4461072244187092 -0.7298446562165237
Ni 8.539366759132296 5.028381459793792 2.1493444273434124 1.1453781216134338 0.8485087804193516 0.43492832498375417
Ni 6.461944090023568 2.326348041950714 1.1759630344371628 0.33671424110516207 -0.5233889290200083 -1.7069111658033311
Ni 8.247931765273194 1.7210051101079715 7.49119196220463 1.3457261932503146 0.20465878319709271 0.1368971022710868
Ni 7.11315924746595 7.621968564007028 12.746715045704684 1.5760857236476211 0.006808538281401177 -1.4000368908777372
Ni 3.2449041587641787 8.533604940811824 3.1644369384705944 0.3111672458739932 -0.3850039293494853 1.6322748692446793
Ni 6.1155031842883245 9.315433664682905 5.49600025970495 -0.6367352405543485 0.4345411168476645 -1.2497623388584798
Ni 6.670972113177016 7.075392473683695 1.4448500508463273 2.013180717265391 -1.8152811071690027 1.51475180062483
Ni 7.854080913936384 2.7352333484870828 12.517289074091947 -2.402614657361772 -0.1807889185580306 -0.39810884216255954
Ni 3.175502964460362 8.333599443452814 5.764011887317838 -0.8043619106988082 2.6041320667164056 -0.22100791397907743
P 1.1043608625884198 4.228155676140625 1.22944882672104 -0.2268216924473771 -0.7563766410687811 -1.4955202060887276
Ni 7.966871749740346 7.9797385755395975 3.6725459439746495 0.4212767956385906 -0.3101390617197949 -0.7009431426908251
P 3.9877526069237734 1.0849448317207209 6.424524692747772 0.5811366773534379 0.4685025613947738 0.5180343495763142
Ni 7.288255533468453 7.024342022294435 5.674706482362578 -1.1235386571408392 -1.1717093033087949 -0.2630642197191792
P 2.9822041495193923 7.776537214321162 10.974794729460633 0.7174470538831192 0.6291849390109164 1.187449339751871
P 0.2947512815740989 1.9702547010226539 9.305507959971676 -0.20325598931229513 2.1745482938740164 0.39611032367529203
P 2.1010257448009484 3.861918941223954 4.6179639912796 0.9202227611248861 -0.7545714695392424 -0.9379662011512362
Ni 7.509715003866391 8.772562923761805 7.16498874856703 1.0509746697301836 -0.3251396488936852 1.0562405461148132
Ni 6.3120441799562474 0.6548519578806733 11.665677504928617 0.0648265095570819 -0.149418117556233 1.513652139802748
Ni 8.167433049509691 7.201559620829715 8.803485917198138 0.8786523938822673 -0.1046626677174133 0.6228389421882304
Ni 0.877152542592918 -0.11842852491945773 6.792703030751214 -0.13406708902145945 -1.8098388531075087 -0.6589112624307555
Ni 1.2014965971679479 9.012595458038433 12.859272444496304 0.9265193927668752 0.033997697101683384 1.0216558661614084
Ni 5.270692783952794 2.546093788250119 3.0035590044618092 -0.9326244772233486 -0.35529534654145906 0.5430848647870389
Ni 8.539598343469935 5.333850464513849 7.078367869253688 -0.0894057415583428 1.5252660698925924 0.3257747113745228
Ni 8.448511591789552 3.5027223701715244 10.385732176553951 -0.6092671170410668 0.1747159728910733 -0.27211321729532495
Ni 1.06438014253833 6.164793594711525 13.449176111717295 1.076858993696113 0.1349777737611869 0.2423591259613439
Ni 1.7899801892305314 3.2265626792231275 10.518829253419497 0.7943096686691288 -1.3216287859814788 0.19486802235891598
Ni 9.132333823971582 6.121876385260165 10.75511660578782 -0.3167169720476288 0.37861396666274144 1.7346507978104448
Ni 8.895524943674895 7.647998643557712 0.9267616130647094 -0.0307935883420889 1.134695187978291 0.11303417961056018
Ni 4.0796915889666705 4.53247602254599 3.9156390968575225 0.7758419488822444 -0.9329227251900578 -0.07804223691640752
Ni 2.2435427461843203 8.030075747168928 1.1474550024737356 0.11814578980551264 0.3231262180080822 -0.6571292308296682
Ni 4.983759789617406 0.4257427936418264 9.722032770638098 -1.9639242942324238 0.10457113644487152 -0.24642429716965303
Ni 2.392182837454882 5.470003528298887 2.1963226997396186 0.3430990615855833 0.8782333040669779 0.7335858684265109
Ni 0.7083303394657461 4.808904351326049 9.179988322633694 -1.042357360374818 0.6719341570529848 -1.8498063946393821
Ni 7.344882535708073 0.8823631901898076 9.616511830361317 0.8766366490038192 0.4890307632551126 -0.4659222022621073
Ni 2.3052923939725267 5.524240580174067 11.083461511379909 -0.15061728007065672 1.5257466090734368 -0.5687264766145432
Ni 3.8270423399754394 1.6180519769669381 11.514927217173485 -0.6275425183114869 2.103854269792564 -2.8810002821982126
Ni 2.4535619503028654 2.262903196810986 13.69861467545149 -2.8445476957981337 -1.59923722206342 -0.48587062035957607
Ni 3.9645756464128086 9.105025398877126 12.66306307759988 -0.6182163558145547 -1.7332112371504407 1.55543282328396
Ni 0.6272461784966897 4.235140259763834 12.281802077194506 -0.3286134663748986 -0.7485226922420012 0.7372316927092142
Ni 1.078655001110431 8.932300536492052 4.374790247047229 0.22052686057760088 1.1322174158617597 -0.6259710600593091
Ni 4.250387772554022 0.7138614997859289 1.5875198978925416 -0.8313952606675166 1.514338110126179 -0.8141423871243398
P 4.412413438540148 2.380205295512165 -0.2726396090162758 2.7994268922000947 0.735189979688837 2.162679053240256
Ni 0.2797687012661713 2.7741395172105254 2.899326599439655 1.1580981402832635 0.03836008783543716 1.1524224300547248
P 6.401926693080906 8.222068426445611 9.762720286086662 0.9096347011963947 -1.868851841306607 -0.2283000767651165
Ni 1.0100226668075774 3.8967955424724687 6.498469571756077 -0.33703897143443245 0.6759664181408295 0.32863120698671144
P 4.878991035269278 7.961786157685781 0.9921156394839377 -3.4794420264890014 -0.8384107727534011 -0.39323788722350345
P 6.742031451338332 4.352507202079552 11.788498721564421 -0.5655380515842325 0.7888324476046416 -0.4498126982947543
P 8.184440603265939 0.5699540660393692 13.113279704043451 1.0124767707653015 -0.670874862550535 -0.434436215838684
Ni 6.363474429659236 0.03642636363599828 0.6406289742002035 1.462615999161539 1.8061971425898635 -0.3448013889886707
