# total energy = -340894.31534766394 ev
CRYSTAL
PRIMVEC
9.04381603204209 0.00000000000000 0.00000000000000
0.00000000000000 9.04381603204209 0.00000000000000
0.00000000000000 0.00000000000000 13.23653892583142
PRIMCOORD
 96 1
Ni 6.271126552591179 1.9417795952988492 11.347433002898933 0.6866393244736433 -0.4768175090183724 1.2662346254818901
Ni 4.825590172140603 0.5641251915997391 6.106835691020308 -0.5703992363312758 -0.9693881671059434 -0.0803621432988358
Ni 2.899582991536135 1.4332548786415333 4.847961859198798 -0.9757501047682293 0.5529573867057445 0.48261534664707206
Ni 3.4793096697122943 4.467373673499695 5.0480454304233096 -1.3192394598136958 -0.049528959968063085 -0.3302749132377215
Ni 5.314308932272291 4.533339265690531 2.835531070761201 -0.44254598943001205 -0.39150804901659025 -0.8160714858262526
Ni 7.383913819595443 5.921203233006891 2.6914513286622364 -0.4704553142457704 0.4257572000074474 -0.9344939263319196
Ni 4.879093386207093 4.334691852409519 11.612574167211461 1.1447631137372543 1.1251067729589073 -0.5110185803801135
Ni 5.591529016920724 7.846667784665452 12.47239324592306 -1.213886193787161 0.31882681930178 0.5503965679571037
Ni 1.8636138956408579 6.409352232745377 0.27631298992719017 0.8476721434506691 0.3651398434357066 0.3563854942818443
Ni 2.9348176977570692 1.729331319160255 0.44618479020672025 -0.5387299302524529 -1.1604679260670208 -0.5688935983200267
Ni 0.6227924244681168 0.006015946246962361 4.546499826391943 0.9031935735567413 -1.6440584921431687 1.4130299607032955
Ni 9.055753601936786 2.0945296435718412 1.1992723727845955 -1.0283309641887386 0.16042989528570437 0.21505041084406187
Ni 7.015450677692646 0.6336495252941515 4.824201946420656 -0.189799349586757 -0.11060500134377726 0.2784409592855656
Ni 1.023135921324562 7.390163096289145 2.3707304901835435 0.9463865640044474 -0.2986392886103115 0.6694067626454407
Ni 7.7628768316015515 3.8676692062983706 3.9234161910561887 0.20960172902466484 -0.5688627450820913 -0.4493229031425294
Ni 7.36159368228711 3.7447275747872366 12.814557875962443 0.8837712031660715 -0.09755073926298038 -0.23461187791575724
Ni 8.030655172591192 8.87842246241418 6.829074818023336 -0.5773725823253153 0.2252407211135024 0.46121014149841866
Ni 6.697343501970075 0.6771095819534685 0.6123178770489468 1.8770621450315415 0.021166606775286124 -1.4026452750348617
Ni 1.8723954407487962 6.619078320338668 9.17416518613117 -0.3928360237993944 0.07576963883214692 -0.58139687299336
Ni 0.09554158288752926 4.775008110566248 1.2635775204009532 0.20644518567355413 -1.6068358603462842 1.293326853712992
Ni 6.377662702304373 2.149217597503563 7.003637645540237 0.4681397787387163 -0.23358960729882997 -0.396066357811234
Ni 3.6440699053213748 4.318051231401686 0.3317832339225955 -0.9880343214522208 0.022204046900864985 0.9362109090230263
Ni 5.971595374450178 5.673131366569463 4.804294699158459 0.2904670372121642 0.005662083381783797 0.7926443651515639
Ni 5.113988413074732 2.8597902021695774 9.494317168598235 -0.42561398956136376 0.7942142807418451 -0.6258090805601481
P 0.17802660895494493 5.419624166857193 12.324884993267535 -0.9207004720922531 1.0573258087591921 1.0822030316168458
P 4.085715604395578 6.196605510686534 12.471003211439958 -1.1109520787250804 -0.16545897306917956 0.6707339660972964
P 2.6562139092965724 8.572054159554744 1.3244876195790825 -1.270553050351586 -0.6879019932361508 -0.49505897172706353
P 6.250045418042667 7.8408616549442405 5.974616008915731 0.7041043140276261 0.27033452812834735 -1.1028680161653652
P 4.786285748825361 1.0715926861941116 12.731617945962043 -0.2499896459234082 -0.6980727631215655 -1.6110352431396127
P 3.836359516119501 6.276136826525058 8.170808994266515 0.6582607733309502 0.0936020390278775 0.5136830145861541
P 4.740659698290297 1.068906672911869 3.7774435783175826 0.4169815106973464 -0.38816124403154445 0.716526856061695
P 0.36565051519984243 5.571388439211787 3.5197807452612366 0.041125052175084005 -0.2833234841888475 -0.16666276356929363
Ni 1.6708720940544752 1.0721443589557844 2.6127203905189242 0.037255541917348735 -0.24850354829618493 -0.8056222654684706
Ni 2.017874261146626 6.539709793183915 4.652404717764731 -0.13742983484610524 -0.6702963643392456 0.09280371149629824
Ni 5.817814331179962 5.471264354876067 9.218944735510618 -0.31375223299235 0.8126989698095939 0.41851260262989204
Ni 8.404662173558012 2.458091037329939 10.233485414332003 1.3394303329392736 0.04041954146762717 0.009024057875481233
Ni 2.246646624741274 5.369340551203088 7.012136119214727 -0.6614905931221575 -0.5127263070998395 -0.3224986117264123
Ni 0.5487371390753758 -0.11308477670872226 8.790040868467901 0.43982653361631996 0.531314354514672 0.8208712212077411
Ni 1.4576370059443151 1.1234408819755837 11.396805001923914 -0.6731376904427826 0.5654028115579489 0.12535721995228732
Ni 4.170555640088232 6.658437006548499 1.6106484204929192 -0.15331642416937466 1.2999055353717741 0.2208796159313293
Ni 5.521294743688748 7.817519566454448 8.104071060209339 -0.10776058991644666 0.3447936756791868 0.5981339832423828
Ni 5.125103262650073 2.989840272872101 4.959068753399687 1.4588038245043005 -1.137884127229234 -0.2908467891490862
Ni 0.7775330165910131 7.469133695550233 6.682651823259627 -0.4706262926059959 -0.7937843922932781 0.6717240979247076
Ni 4.87702235239688 4.655837750229172 7.027198594371545 1.033390380989517 0.005172031119242706 0.19697632695117043
Ni 8.085659660074693 7.215454663338425 9.178347950922541 -0.7257326909306792 -0.11991727988363864 0.3071532396185936
Ni 4.546561324339145 0.3912472269598809 10.336532459923012 -0.3789091293056571 -0.06337306494000698 0.13221640896596584
Ni 8.11118130816388 7.1505110223290504 4.608856936092492 -0.09111681071217856 0.6302141516063792 0.7213260772225513
Ni 7.146377998524387 6.131770395466339 6.938924621832872 -0.027938121171164787 -0.5446614652455395 0.5633510712352426
Ni 2.4627033833701537 5.1783894251382 2.494981666217468 -0.4654380635368371 0.0664380770185759 0.46709102575922784
Ni 2.083821765705931 5.3502761875702 11.380974706808635 1.874513924688391 -0.7538731579206371 -0.9229321896362492
Ni 1.2480556194032664 3.2091075860976006 3.6146467551111114 -0.8128758617070904 0.6928806773976648 1.1613937803153997
Ni 3.702981321215411 2.7587979115204058 2.762306912037275 0.6053862939294219 -0.05565924123551705 0.39578713600791837
Ni 0.7049744827074007 3.4880098204783465 7.913266443959846 0.17384385469876512 0.27409090984698603 0.5895776090319395
Ni 3.605687951214177 2.684720016588252 7.163402981702238 -0.20015832422357788 0.03165439368048742 -0.3001063600741412
Ni 4.188371957145533 6.989603452235913 6.05872078238668 -0.16491647030214823 0.040412085268459436 -0.3193716360616564
Ni 0.817198288155283 7.36801479148035 11.27050178409288 -1.1626741896897201 0.3037015336245673 0.06531424782677785
P 9.066244428224334 5.726923982740437 7.896138361282272 1.1210351739926951 -0.3881782133124089 0.4867198557337488
P 8.363512811826684 1.6905785686066865 7.974736355333836 1.1250406956076624 0.35089310370870536 -0.12066135713851478
P 1.4743499774782693 3.575409256032532 10.209659481698777 0.6057585896671761 -1.3687283105724428 0.2725644459001306
P 4.072167968379418 6.112733163280748 3.8111435490031744 -0.23444578465153817 1.0218638684071562 -0.6372772291007477
P 6.728761717938125 3.9728578274625606 10.586993702485588 0.5859988905417457 0.3063700815956659 -0.2522133930476043
P 6.257289514470535 7.805165714119285 10.393607981216727 0.2514320347968896 -0.3620951430721119 -1.4161281400126449
P 2.4409349188234937 8.332646268620307 5.778781222337674 0.7194823391455932 2.313589696181616 0.225325824628141
P 7.046118256952192 3.700919331220962 1.819508110535911 0.4695590276837461 0.831674225360516 -1.2019789008266137
Ni 5.384452767346614 2.6856877048751207 0.7449020249288592 -0.4522128230958148 1.2381802904478354 0.37354426544931796
Ni 1.5197137573561454 1.2174965659329027 7.03821124882874 -0.5426511196837299 0.08544675691059478 -1.01578886585767
Ni 7.010666499152894 0.622489456639985 9.23380915110218 -1.0155356121962833 -0.5984900810302208 0.3413663951651928
Ni 2.4771011380682357 1.8383364305773287 9.255662627517031 0.10374298411662133 -0.10920452145182484 0.06219987056751223
Ni 6.555681171825128 1.78460712111671 2.835107820183393 0.3217583911262781 0.553810221624343 -0.9765016382222731
Ni 4.172472929030439 6.912776237311161 10.389160232623437 -0.36998534445346604 0.33681322857687157 -0.2714200478830422
Ni 8.43059079335663 6.866616601645953 0.6657134697078322 -1.2603210882109326 0.9591430923391676 -1.5957258664760519
Ni 7.278734242247018 3.7874957795405213 8.436783998392588 0.6046689561474232 0.3124443128142039 -0.9641500586354556
Ni 2.96163261150067 8.365384881690066 12.256386228280887 1.1250262974299592 -0.09392419825398662 0.798970821590224
Ni -0.25821993210747746 4.971792497799644 10.107632578526076 1.4996542828617592 -0.5379598848556477 -1.382657261948709
Ni 8.799053935259428 2.270024888494127 5.659705822066132 -0.3540180224909322 0.5401270677102956 0.2767969959242394
Ni 3.486535678508631 2.6311534958114065 11.409300842166589 -1.027315892660663 -0.653601677292384 0.021180233622040943
Ni 1.0325324459045289 3.4654997630389457 12.650186524431263 0.6259062682596446 -1.1802397093773094 -0.7628069700751572
Ni 3.1046424701946207 8.77293539532974 8.004981588397149 0.2595052987233273 -0.8818883843210618 0.20840693738561528
Ni 5.670581010523697 7.939882393756614 3.6902015051577104 -0.11541296425538188 -0.24683695922703944 -0.30840125309308175
Ni 3.148468801392425 8.431015852697591 3.530304129285539 0.7780795799635116 -0.7976040231496844 0.1350209682942965
Ni 3.245246673895047 4.420345831521035 9.227111301146527 0.339655326011357 -0.35247304660131556 0.017623112398401905
Ni 7.321773761473256 6.023895761019906 11.39418410411518 -1.5305717983762221 0.7219140885155374 1.3967129687108268
Ni 0.7141711389589581 -0.24060167461543389 0.10402920398310078 0.14620449571494173 0.8027827391371464 0.7993981389356297
Ni 4.67453131741569 0.26791218946296386 1.6737869158755756 -0.39019061575674735 -0.2501436550027692 0.3666123142161751
Ni 5.932788361002019 5.6463526280889225 0.4120959354432277 0.889658515184784 -0.36165548443153195 0.07125786700472245
Ni 7.766865154353973 8.543303869237405 11.773318948620828 0.7458939963699025 0.7366691353375249 -0.1524147382907117
Ni 0.0353857379442117 5.091451224188036 5.686298257941911 0.29833512710633137 -0.7742488933635117 0.3742531185908845
Ni 8.148143383195954 8.578330567695742 2.3731388583217967 -0.9090425761383506 1.0736839384022412 0.6919679357754083
P 8.672612347047188 1.459626645412643 3.531892223333895 -0.6667027334507163 1.5492372359962092 -1.0554836133441308
P 2.0205240991658084 3.2548059871587864 1.5766174461503237 -1.5031579251396434 0.48473162165912653 -1.004680157539018
P 4.81002576520882 1.203551002023077 8.272677630663328 -0.24448465694477897 -1.2293840323124439 -0.377745190904543
P 8.486345917548638 1.5364900356004558 12.269993553481097 -0.3634226036342838 -0.21810590984093403 1.0296699947151362
P 6.346045522389489 7.702572668079686 1.423192729221253 0.36404198238583757 -1.0080156496701542 0.32869059946973717
P 1.7814508294146807 3.2506006128280025 5.957064675660349 0.3629994000539361 0.03534469804788107 -0.42593717722873736
P 7.00079969615314 4.008409067235274 5.946686897069865 -0.8483218612195261 0.2523090380852042 0.8056592893539931
P 2.286159055819113 8.563525841288229 10.193405031624113 0.4697528888621071 0.484362668355482 -1.149593445246362
