# total energy = -381170.39828454296 ev
CRYSTAL
PRIMVEC
9.26030247732072 0.00000000000000 0.00000000000000
0.00000000000000 9.26030247732072 0.00000000000000
0.00000000000000 0.00000000000000 13.55338872127727
PRIMCOORD
 96 1
Ni 5.50608337659067 8.573836451813861 6.619596807851176 -1.7291167553660929 0.8396713846333798 2.3129577190245714
Ni 6.612948836549853 3.6599864734748935 9.614449076175712 1.936115242439956 -0.10438421724504603 1.4413838292556402
Ni 1.1298958327498119 1.7576054506078294 3.548737827105678 -0.7557973715265436 0.2483549385334626 -0.19795848835878166
Ni 8.20327617936116 6.8062483949059525 6.621603515444152 0.18964662605897661 0.4135843120903393 0.8852680994265723
Ni 5.481617656883053 4.1001564412501414 11.691465517326694 -0.04156573925692841 -0.28923573590822443 0.773651626099145
Ni 8.713555898804225 1.0785381940297327 0.7009456477140611 -0.6639480535237147 0.6527280164381791 0.2761704180838341
Ni 2.446192298351494 2.49280866209417 1.1256722086927928 -1.2709965656469078 0.45214288908982775 2.7298338144923053
Ni 9.223705974009627 3.289268775876457 7.654574538026013 0.2682560483327638 1.3270021344782499 0.0007317359597019656
Ni 6.853105526518575 4.301132790536451 7.193312378813203 0.8702047773355465 0.31933795461024356 0.30919263864612556
Ni 5.921565377393735 9.069809003600504 10.803121902161024 0.3625162897699305 -0.45528940513860944 0.8395680262862961
Ni 7.5516935011676996 3.0276744851798267 4.96619198723502 -0.8100625606280114 -0.14676859574852788 -1.4638285314124013
Ni 5.773159766479925 6.560572564533847 11.251237209644497 0.5820280788194557 0.431404885211528 -0.7301318484396393
Ni 1.9952525985474958 1.2875339654457922 9.96571180385222 -0.7683996336715864 -0.008021070532263606 -0.3796879164532106
Ni 4.460873011943117 3.320216707467244 0.5504712851792515 0.8765127218314452 0.6607938241654491 -0.6941184064595077
Ni 8.9465451144907 4.9396306610286 3.0803461608516507 0.07757840990611155 -1.6298374634477801 1.2844220950241945
Ni 6.582686167358143 6.034068794777478 9.098525202242943 1.517360699002587 -0.2494440578325833 -1.4577522433113346
Ni 9.054927697177286 5.008453230622475 0.7841439112042665 -0.5308212169283374 0.1691832159983022 1.3182727250250523
Ni 5.235997388327089 3.6471702145515996 5.529647142816259 -0.3594512776913616 -0.03029350877721879 0.2018213137482976
Ni 1.662946636508181 1.0006868293128728 7.377773904281737 1.4409737383014152 1.0933757604042138 -0.5839072981200395
Ni 4.933259572777714 5.778623345067167 6.864967974264774 -0.16305602005464176 0.15716356582960675 0.5473570097998316
Ni 0.7748252686070766 8.279386607172254 8.252875286600363 -0.567994483544525 -0.6054150902848283 1.0991751406948103
Ni 6.995991997029 6.468191784895998 13.23179463385285 1.3163983908204748 -1.0090674879734363 0.5675450547119323
Ni 2.269829833615846 0.0016983395133902842 2.381181269344923 -1.3812997194795502 -0.23845156337682158 0.8077714506009894
Ni 2.6635316024914615 6.694698788699304 8.747127274147157 -0.6841160438311572 -2.2565505438794364 -0.9503105816492021
P 7.572668086761097 7.8792952294403715 8.372063716496191 0.021995016213852442 0.04983106458951418 -0.11002984556659759
Ni 4.438981656383386 8.599617134503495 3.0373144602803674 -0.2189669722896487 -0.8301567602747251 1.5080216809898481
P 2.728788955549593 8.478946130146957 9.900168307440959 0.42651104745433643 1.0356627219634618 -0.0585635593665056
Ni 8.517024494809231 4.9531692235617335 5.528766488030416 -0.3665431515411364 0.2595058129439595 -0.1458643387667036
P 1.2173408710537619 6.460394610030814 7.084952946883342 -0.18369529357154815 -0.3639391382593861 -1.0945726089257923
P 7.819723702234049 5.275122167193358 10.797483303852935 0.17495122883033096 -0.31081937561627115 0.43790463400325874
P 5.407970469587562 2.994744848813328 8.1533529615278 -2.0281494227600816 -0.49072306335587096 -0.6388111492467708
Ni 8.461638624418896 7.075047201095591 4.069188136993436 0.7323530244606742 0.20169712946560744 1.7918593858109528
Ni 0.6468164003987927 0.919350812693675 11.991970673897452 -1.97728477469973 -1.0553928534025372 -0.9743390833533156
Ni 2.573975215174136 3.984560082767857 3.3201333647430324 -0.7601309659048908 -0.230816415429067 0.3040044095769667
Ni 5.491035384719028 7.266809549205111 5.005836269082213 -0.22926861132597293 -0.9166389004283698 -1.3189448113914124
Ni 1.0722226675949882 7.648046950659662 11.093367569381261 0.020182388485145884 -0.03639396524800184 0.2633141309464562
Ni 5.320942144904674 3.7158538796051204 2.93600304472805 -1.040426461900692 -0.07672300388435173 0.105169946371135
Ni 2.7711548403574473 0.45290195794406035 4.94504886413266 0.27517205872630673 -0.13304481840453214 0.6540287375274736
Ni 3.5772827101483475 1.890435232396653 3.0570889106451093 0.3511772106080274 0.09997374688217621 0.8856974736545068
Ni 7.569519583846414 9.123907691916894 6.30462983656907 2.0682401201333795 -0.8621795930382248 -0.9101190970319809
Ni 0.31127951875085264 5.013518616194037 12.23888645879978 -0.013101056158332276 1.64904000451816 -2.587703488846737
Ni 2.8063069493696045 3.3085024245640886 8.504507343662832 0.05138606778145989 -0.0712763789474837 0.5939130031824997
Ni 3.2469862337928146 7.543488872984146 0.8954638619041971 -0.9711313750492951 -0.29235962624918677 0.5298889349220551
Ni 0.10225411436618427 7.580678248588156 13.501018487935971 1.1392329279476443 -1.0622003632426738 0.5916928556027293
Ni 4.601268461029868 1.6580294157796631 12.280888413711908 1.0596719403938653 0.950808090110911 -1.984132907969815
Ni 9.136946198104754 5.66598102314307 8.921355239112705 -0.9609127826450806 0.4316658521823985 -1.1042569260930917
Ni 4.023370011342659 1.7216476952616218 7.086023437874334 0.3291868223798653 -0.47141690682809134 -0.6564838839361855
Ni 3.067169676153706 9.038740688074745 12.14714371401729 0.6525914908603149 -0.7307501987499286 -1.0250780044690797
Ni 0.2814650482093512 2.9243758086701828 13.084564155350431 0.21478918676287526 0.10586157312152089 0.5060319257987995
Ni 9.181923488271257 3.0720035541580124 10.439104959589246 0.02625456282115478 0.15647836683712407 -0.20312434883043728
Ni 4.845814534473765 7.453636155980733 9.095028511947108 0.7758429773235089 0.8413251181867188 0.7261373825682655
Ni 0.7636804943193709 6.8072670282018795 2.181824546999136 1.18349652575171 0.6250598610989493 0.14794538966544843
Ni 4.9026264914783955 6.217533911676541 2.228434428529928 -0.25173028276359877 -0.5491292712089059 -0.08400102560300372
Ni 7.315676166501516 6.508270374939363 2.2060170877773917 -0.5061396550212574 -1.0117375786064318 -1.2269111452919192
Ni 3.044611578800278 4.706659965947505 12.272255033513796 -0.7995642321998488 -2.111862999029653 -0.24281883920658182
Ni 6.478229953012219 0.4335303307463443 8.701872174899949 1.4914707186097023 -0.0322046097570026 -0.8988090713358005
P 0.5109733161145646 3.0687161467029767 1.791107373680585 -1.428684893631733 0.5609995402839307 0.30692209744439397
Ni 2.5750308896808236 4.756221105945678 6.412854068079652 0.7685065915630958 -0.26334729817723673 0.6585675059380915
P 2.9053181057336657 3.1206664447952313 10.780609180290776 0.31306754822049954 0.5193638670210152 -0.8756619437953758
Ni 0.9051334699733472 3.5984517620982395 5.068534074476762 1.376516953378926 -0.3914329728042807 -0.08818061090199007
P 5.40254393221108 1.1405359205408994 2.4518355268109273 2.5335239174805397 0.7899123109323815 0.407121330073815
P 2.0473881026935556 6.499343443145969 12.922356989307085 -0.7966084920056344 0.4330542478894929 0.38443391577862823
P 8.620452815556536 0.74175117151861 10.431894887914623 -1.5111980218353007 0.08796772356023559 -1.1063469758529012
Ni 8.2646349449867 8.581309516084886 2.1272721038509235 1.4382594246940454 0.5701493251039986 -0.9647938628670415
Ni 4.601175858002965 6.0942885431721185 13.133478000190557 0.46577564938191396 0.21060805880199213 1.4787944086936144
Ni 4.021925404122982 0.565753562708957 0.810930262766059 -0.7514972014892928 0.9392047015440277 -0.24759646310088324
Ni 7.192152988916385 2.1423525067819815 11.644774145132228 -0.13844979147018738 -1.9576533736220478 -1.0183514843785237
Ni 5.516297490458007 1.1629273324459033 4.89884550988997 -0.7979747762255418 0.08417406084575826 -1.1211048508883659
Ni 2.3834167064143474 2.033488388355503 12.648063119501057 1.7623870873834484 1.2856665089542567 -2.7326525148880227
Ni 6.762419382273039 8.595829670703186 3.7986900652601374 -0.5698983854354572 1.2203144659110081 -0.09809169936811493
Ni 5.719922286313726 8.193802889709042 1.1232071161166506 1.7703721624714546 -0.722203337621182 0.48502087076477113
Ni 4.531130928453979 5.034650626933168 9.672741755580512 -1.323866931283378 -0.5604804345556671 -0.47891192965355595
Ni 1.38447081400724 5.888126424379273 4.7522928855444775 0.0690433758519069 1.637986832027792 -0.9777689349704709
Ni 7.380563107452038 3.0084223158868144 2.1986171798976195 1.2898260396485852 -0.07121467247161284 0.005644856990603182
Ni 1.6009396496943245 5.029418555913182 10.119339299453056 1.5753732709616286 -1.1199388556047227 1.092254245205261
Ni 6.218969258593529 1.65446419924392 0.49703933865655825 0.5550921736605601 -1.5245001382608454 0.224810061333987
Ni 7.63799026193806 8.637778841889979 12.630443541572337 -0.9347178694172678 2.1892326353590685 0.1702293978746294
Ni 8.059241431317144 7.653510529246905 10.58115800285755 -0.5352998215249813 -0.3229320997194051 -1.2001562457955783
Ni 3.2847404878609296 7.298026029573915 5.857110892578847 -1.1848183298869273 0.16748243125711154 -0.13721823305593145
Ni 2.8791392300283536 5.010008961474435 1.241570453042779 -0.5207409498741999 0.6182562079135545 -0.5361775961442443
Ni 4.462771373994617 0.9393002827792621 9.41323566314053 -1.9200651309556287 1.1087229322842456 0.47202060185036127
Ni 7.294423771827411 3.5678094204962303 13.318156216742043 0.5110167806079006 1.1748861583748798 0.023290080876192148
Ni 6.377903833666143 5.414943477513314 4.165687899267904 1.7946400338798834 -0.8141704121487978 0.23101619014469887
Ni 8.846302337868837 1.1369892246105369 8.272270064554803 -1.1871266663051296 -0.5939968211455576 0.9405419322982124
Ni -0.036575417535646707 1.7374642922565542 5.8775900519783155 -0.32038645047941594 -1.668904604652571 -0.09460194104730159
Ni 6.680104551659483 1.78523819383551 6.805332550969887 0.08241491206280645 2.2105751055905865 0.5076866877934031
Ni 3.3303845198211293 6.789589110366208 11.116395164081084 0.7620058143301006 -0.25185266727407596 -0.14552623870099454
Ni 1.5837617882039265 0.23295402653625225 0.2696702006727906 0.10375558252211163 -1.2898478940254559 1.7428839843535144
P 8.590755024828933 0.5288132892473147 4.019976110406685 0.36606492635313725 -0.5173810322630314 0.8479791331681267
Ni 3.464288496722021 8.644992617685677 7.817635503977399 -1.196420690012546 1.8450434260331 -1.2564456644159265
P 6.072239762466653 4.800716860372288 0.8870369864560774 -0.6537587716955386 0.8290450152677851 1.380391348732668
Ni 0.6727443219011997 8.602784158023557 5.825260081475761 0.3462787448651456 -0.4927902302975449 -0.748714239427517
P 2.6340931002391836 7.3920273621825565 3.3789140620996085 -0.17857622717742794 -1.2872284541247379 0.8518429869989071
P 3.3961604498299147 2.6082290748253394 5.1904876307558965 -1.0577510692220686 0.1787556901780857 -0.779052228289426
P 5.4373256291156284 8.974585311036751 12.819025901738028 -0.36666347916908465 0.37890758664376034 -0.665434408261254
Ni 4.0341304830687195 5.5082780683282575 4.339415807888179 -0.9078431565136106 0.3004393179335277 0.3428638056463256
