# total energy = -340893.1378256404 ev
CRYSTAL
PRIMVEC
9.04657763817534 0.00000000000000 0.00000000000000

0.00000000000000 9.04657763817534 0.00000000000000

0.00000000000000 0.00000000000000 13.24058081555412

PRIMCOORD
 96 1
Ni 6.500011196079834 1.866164201462944 11.313572976837008 -0.4172638178244556 1.2375159173909591 1.0764938970472104
Ni 4.51451359027386 0.2501821972379708 5.957003044391234 1.157409084636039 -0.051936026747658945 -0.03717738038124565
Ni 2.6857660335203977 1.3361523630697119 5.013373538904737 -0.053905748879520064 1.2584560099777358 -0.8219459423291586
Ni 3.4114282043923443 4.364973663521506 5.008395207283938 -0.07091771005648431 -0.23671169786757942 -0.35110804793298883
Ni 4.881913197368027 4.5532058024166195 2.5678520371935467 1.290337946287997 0.6253051443405359 -0.12762647560243828
Ni 7.220634423261457 5.93839966233597 2.6347433361892865 0.33141442615880345 -0.5296557358653265 -0.6886735812948527
Ni 5.29852618628511 4.481755932997982 11.25159396944602 0.08077146292211251 0.9579552426786534 0.4286034112069909
Ni 5.535754589142155 8.04864957243202 12.349820438530276 -0.441438101077814 -0.3266789683563471 0.9993674870768531
Ni 1.836048144829031 6.529901088275223 0.5932284175918269 0.19037990468057536 0.16202603612823063 -1.2440354636770317
Ni 2.624140747311261 1.482571220570428 0.2488713481522832 0.2717913151795319 0.5083739436684148 0.7932899691553629
Ni 0.632490564119668 8.995030142148728 4.675407876497894 -0.32596394456719346 -0.5807353281499612 0.22447658925396827
Ni 8.48939883022843 2.187371983632881 1.513888662701783 0.4018204866861918 1.8098319111289733 0.3982672221172947
Ni 6.77917048583931 0.8190888911108805 4.527060288665442 -1.1978975316683886 -0.36603201623267284 0.4069544654786475
Ni 0.713086523432234 7.265523541019785 2.63768256923235 -0.11914697737651737 1.040768418621143 0.1431312561062567
Ni 7.608687366881675 3.7130682393411476 3.844084393920596 0.4316571104316502 -0.5065199211788115 -0.703692166190872
Ni 7.789962687647776 4.045738035255503 12.476439956424809 -0.723908750348063 -0.5055665561266066 0.5353347885279748
Ni 7.839682677812987 8.858942476199807 6.6194296382517495 0.6474875939748461 0.5429141435371295 0.7026133313043964
Ni 7.062943530144683 0.5954620175866941 0.4225837300941277 -2.37954106337176 0.06757707571902556 0.07904882380405095
Ni 1.7964331817770918 6.6106598859835275 9.470007126071426 0.0013176903701590209 0.12477409375530768 -0.980042561495996
Ni 0.2499162278582661 4.9383186083360195 1.3904598727059523 -0.9713092953880562 -1.6580041556899834 0.36624336091253057
Ni 6.387906007192045 1.9912874154322 7.001473845069251 -0.22794886407328482 -0.24215292348780873 -0.017352118125202376
Ni 3.168889460518745 4.331238975871202 0.4491879053266335 0.36266721352549797 0.1524774732078471 -0.20315468784774046
Ni 5.934183957201873 5.443949920256318 4.818737327768367 0.0058322904110609235 0.6598887958526763 -0.228463084705542
Ni 5.489246134003991 2.831424978507672 9.223374805860535 -0.28464477410343236 0.24368298697909002 -0.14859922119936342
P 0.2045159784688719 5.74372636023168 12.600173616083772 0.7932349475477113 -0.6786573347094312 -1.7476844910659515
P 4.15180915692346 6.221485166748228 12.460034892712002 -0.4611515203463413 -0.8595077026330165 1.8068139502382559
P 2.181455521921082 8.463127569049432 1.4792511266128894 1.2066043154137673 0.17650494647069603 -0.458523595805191
P 6.29593849991047 7.803487321071536 5.65662772098266 -0.390989714619275 -0.7650302029787213 -0.838252392798666
P 4.699452774944057 1.1381227806977205 12.877934304955412 0.46237690811301013 -0.25321483772892517 -1.9416562268628428
P 4.195630778531954 6.113080028074697 8.26240029725472 -0.5466715536970327 -0.34872309264058005 -0.9066051703414515
P 4.440802076469978 1.0940026220303747 3.5885411948318424 0.9237744830318865 -0.40104169953863833 1.146330201114058
P 0.20049748872516984 5.455547632663851 3.6232321057282273 -0.200490510752016 -0.8318693720904576 -0.20582606403231646
Ni 1.7440444512372928 1.0910896240621801 2.788294515423309 -1.1296139168006418 0.9999922651450455 -1.1324806968254755
Ni 1.8076147516177394 6.356550569435018 4.863569452088187 0.198657057087703 1.2058219287217877 -0.0009219975936371218
Ni 6.195630048136115 5.649958584019451 9.183825882824644 -0.003753296394845149 0.023465944332424105 -0.05479252235984757
Ni 8.591860367457537 2.058331601588382 10.031315599467668 0.2327030909288186 0.8732685038625347 -0.2510697663614644
Ni 2.37093608851685 5.255156893553664 7.019110147985386 -0.5501888228216718 0.20101501579691833 1.1442041559099907
Ni 0.8501457918090551 9.185352040455806 9.01487561930037 -1.4293976034280413 -0.5656894895604322 0.49669239356542844
Ni 1.4681600225476512 1.2057549943940664 11.204378071944152 0.22504865970735435 -0.3346182778080818 0.857593259219123
Ni 3.928982905511651 6.600961954859599 1.673450388054031 1.6078568454116309 1.8220400231593912 -1.1597333618938412
Ni 5.721082776646615 7.781467951336799 7.748957265627788 -0.6516347833740003 0.23161988516696885 0.8257216073215069
Ni 5.338114009604426 2.8853516272294373 4.8267480721809015 -0.3952901417668418 -0.35063187962751874 0.06021729291984467
Ni 0.662800217512958 7.458206596065059 7.09798363893415 0.5066299643941146 -0.5630805911826754 -0.583590281100253
Ni 5.076830757065922 4.42379451069294 6.903956262466287 1.1218946937795131 1.2774279230945482 0.8815536266894625
Ni 8.202359971430763 7.285444104765017 8.956232989706493 0.6109033670929093 0.3774615982258532 0.5799431712659688
Ni 4.725606430615023 0.43364407579572645 10.603824640517395 -1.2212896853400836 -0.7129589362047787 -1.14975696740742
Ni 8.230304849454841 7.078512690092705 4.64622542666621 -0.95892377723951 0.31459581193956787 0.6197988698103261
Ni 7.344943445252025 6.146163362142051 6.974568418804631 0.08451807444873831 -0.9471375832378591 -0.807896406214628
Ni 2.3842074177694634 5.2659494605600505 2.630717609183552 -1.4839957503888959 -1.492146147410172 0.7586762357362352
Ni 2.2939678067982157 5.412341178328144 11.550075844175266 -0.5196155780205052 -0.4229858079098973 0.1843511819879922
Ni 1.213299840063241 3.3555565414992694 3.944156730021132 -0.7233014557813673 -0.040692078402723465 -0.7144661168779244
Ni 3.472384043863449 2.884781692844356 3.0107625223644963 -0.8570006199404465 -0.34415912741898147 -0.6685284738055454
Ni 1.3604152840346129 3.563103123444368 8.425604174724967 -1.7094370175489786 0.4976154196003301 -0.09842182901402403
Ni 3.524962752531608 2.871284199153217 7.116838515845055 0.03822536202978578 -1.3037817304977286 -0.25434483756831033
Ni 3.9885093857312808 6.742586126263597 6.00139912367358 0.8932624304859585 0.8028652715486237 0.3594319944176519
Ni 0.7224017843261782 7.747452819782724 11.634987925632633 0.1512392299253718 -0.9368467428348123 -0.6263523546581278
P 0.20173958382154603 5.531837421066912 8.085347014226993 1.0839094727849914 0.430055313162169 0.034588279497830755
P 8.41246673481996 1.585123223574946 7.904851508444924 0.30682259575205223 -0.5036269159017327 0.34726424870686645
P 1.9333983657474867 3.360070783692217 10.632967285407897 -0.37979590278598463 0.2786060241085202 -0.7855900294079439
P 3.8779692547580806 6.201211786478898 3.8755845769182784 0.8853724862149205 -0.6361235751122787 -0.30293328799997504
P 7.1366188576384015 3.8418553172144994 10.332631766940505 -0.13859171636469034 0.08429747379749998 0.030612325569218248
P 6.550816775549963 7.637934952071654 10.207150308500626 -2.4085605905325616 0.5530008383491701 -0.5320514897910126
P 2.2742191280262625 8.372372303158349 6.012957935797687 0.596486677446947 0.09023415099690912 -1.588486411304819
P 6.926674932644943 3.9783681723078455 1.445288465208553 -0.09001535011788368 -0.07505332949141268 0.4403358691525707
Ni 5.241623213552363 3.1298263386968053 0.09458377750642498 0.7752945610192067 0.3600310614542316 0.4461735588802703
Ni 1.5525374512723458 1.1579800184001656 7.096302784827037 -0.7905095781967483 0.6100808711916138 -0.44767302624393224
Ni 6.816433338730595 0.45855473171256134 9.178979631235944 -0.09690230704570407 0.7768922445236298 -0.7070292009839049
Ni 2.746948037430027 1.9005411961186573 9.131127759332943 1.0514644648824085 -2.0385461926133734 0.9351960946052668
Ni 5.953787890733171 2.209644657538767 2.3731488813833725 0.6094200976791633 -0.17804040927861595 0.2955884175991296
Ni 4.160982386550011 6.6863706934239655 10.420337431542524 0.35496084602017575 1.4511712476597072 -1.1479188857574165
Ni 8.34248241096296 7.242355255937343 0.4828086060999212 -1.0303582790314125 0.3094032119950349 0.9155029870517135
Ni 7.852275513750026 3.8612692726174362 8.20553170151663 -0.3078042429390312 -0.6137305521290591 -0.33045411912806316
Ni 2.8593789031092913 8.34221101363673 12.452699927641778 1.6121318186379012 -0.28655844618637744 -0.08431984239500318
Ni 9.014796914075763 5.124225776803102 10.444964024924573 0.2538067056766532 -0.8949243915694136 -0.723102966617316
Ni 8.615254816978505 2.116293023893423 5.736851865958292 0.23393079268833258 0.8414554731169959 0.22908657722215384
Ni 3.8789734248651286 2.660182312234514 11.289938793011205 -0.4898080077407693 -0.6160450591948486 0.8324969783721275
Ni 0.9856427162445496 3.144282769607287 12.54400703476286 0.3033801457294065 1.1582014986303473 1.0562068646634002
Ni 3.2232051120747722 8.37100626994966 7.903925138904728 0.14460989753431222 -0.4019693535592303 1.8148525042720163
Ni 5.672014140064354 7.601495337736597 3.496956357780251 -0.5512275484988314 0.6535790515845648 0.32390423382468736
Ni 3.1645109169889123 8.297674712402499 3.568627868348643 -0.13772499748902087 -0.2672977981845525 0.33451029147530775
Ni 3.4833756355757357 4.283708257470908 9.353517061049523 0.6798451843699452 0.9512076395421748 -0.12136172563964906
Ni 7.2711957451379785 6.376389713982381 11.662436146549712 0.5284881979197866 -0.9893453269541607 -0.2147084541236109
Ni 0.38789734248651286 9.305761987526214 0.4979191045666155 1.3339081175694638 -0.5151002066486549 -0.07606377303379802
Ni 4.703505641682415 0.20041064158077648 1.5452024862021214 -0.4752290814853299 -1.0904922682088314 0.19928312070747614
Ni 6.0422091396186834 5.627468792252582 0.3046534499277028 -0.773255676212307 0.5880683714762647 0.44223771416097385
Ni 7.724311674432904 8.881260382993398 11.524098596766352 0.9182579240890314 -0.5882077252676063 -0.6355332498264474
Ni 0.12716593117800853 4.8162259978429915 5.724512334192399 -0.6815873638720326 -0.6280210006098023 1.1737795555742623
Ni 7.774936322352213 8.797470981808868 2.4966835163364327 0.5307787937261762 -0.09803359243666987 0.9307894808971389
P 8.590820011040325 1.545309235817105 3.6040994988868147 0.39045055428635334 0.11419940356325495 -0.47901194556652993
P 1.6708938252409509 3.135453309927293 1.5332854296073923 0.5665017010490825 -0.2963024129470187 0.6793039671544947
P 4.661837105528674 1.0650626204767886 8.225300282759173 0.5628587049798565 -0.3003855818774569 -0.5181456783431979
P 8.481130258355977 1.6582648029937466 12.392931903801802 -0.09884811791816524 0.816576193376813 -0.5972361540184616
P 6.300335136595385 7.612414556828557 1.3137530370782522 -0.15447522036416625 -0.04679639152824844 0.09598236633459599
P 1.6699258414440663 3.1818079732472606 6.075824412445446 0.4893601215700733 -0.12499212330338474 0.06989441099829252
P 7.039585266933879 3.87889200566726 5.997334496384418 -0.30846887310622356 0.5631952623836688 -0.09014621926879314
P 2.4852667354797195 8.599622330987696 10.175928760091207 0.9179388501867158 -0.47913844384206505 1.031798611022365
