# total energy = -340897.3945235073 ev
CRYSTAL
PRIMVEC
8.99735958694783 0.00000000000000 0.00000000000000
0.00000000000000 8.99735958694783 0.00000000000000
0.00000000000000 0.00000000000000 13.16854522254909
PRIMCOORD
 96 1
Ni 6.324720710610835 1.999204238657516 11.535684406063536 0.1319893805568243 0.5304473785286865 -0.43894644500421176
Ni 4.6730304774794815 0.30603617916235787 5.966246121987841 -0.24496468190499102 -0.28454578663172286 0.11255929685667067
Ni 2.645403580799566 1.2721906153007805 4.835278957964484 0.6320452912778469 0.40830326619705815 -0.07494791426179995
Ni 3.376052137312696 4.3682269365409505 4.790308356721193 -0.48046539018360485 0.3054501408845578 -0.022648590637451314
Ni 5.032187065937264 4.6157172987511865 2.4763315030229562 -0.19231723091260428 -0.07939129474513425 0.7648965056143343
Ni 7.013711493574198 6.143549883786196 2.5601365064682984 1.2261385287919528 -1.4871085849862646 -0.0019825776476675534
Ni 4.965633599209918 4.555120083879119 11.105284027476358 0.4496772011581546 0.3821155520580968 0.553554139749479
Ni 5.509146079683831 7.8545507094100016 12.348605715733559 0.06427397948772157 0.3215305913861882 1.0975013525368131
Ni 1.774045322224929 6.5115238843560235 0.3979648983178691 0.09248772291777621 -0.49944707349243017 -0.4657085435894044
Ni 2.6010465994603993 1.4045417705744407 0.33987254827436697 0.1663190070766297 0.8344350759351049 0.44222305887295454
Ni 0.6082178896014501 8.827156252165095 4.671857221827022 -0.0029238585150143195 0.40915250157123084 0.48181316246075084
Ni 8.596149052188805 2.2659219576875897 1.4876107900292062 0.3639507082236119 0.8039209665066477 -0.3438235984564336
Ni 6.953627128182118 0.7349241016515419 4.8830153474559825 -0.6075604187626052 -0.10174883650472799 -0.4211011892926748
Ni 0.8981460964125888 7.420527094233515 2.5780718424929425 -0.25053394846265237 -0.4475465279683969 -0.01765576540855024
Ni 7.60117607421887 3.882513492197423 3.707840558257805 0.43754956465668515 -0.048127965855478405 0.37890321576838615
Ni 7.694181777282353 3.964299488216293 12.681624975430635 -0.44880276897300125 -0.6890916426688777 -1.144402645074042
Ni 7.807647475389499 8.921016704361888 7.226620505322551 0.3869566822004819 -0.4203496558386309 -1.3003395375853992
Ni 6.82000734524744 0.738027290873424 0.5558604563744968 -0.41017554351910646 -0.5535173729742725 -0.45420182850138546
Ni 1.7496894706052284 6.586192969170171 9.059326810698616 0.7470903306708488 -0.2538493859891306 0.07543051032517332
Ni 9.129530506093165 4.754411592329941 1.3854493741440734 -0.238322493998125 0.2586205821255288 0.29640422863220567
Ni 6.37973056535884 2.093406590507633 6.854583297293744 -0.4353728687203405 -0.6587078881706978 0.4612726193052378
Ni 3.3145191970736367 4.415535051729863 0.42103682676574444 0.28620980459770706 -0.19493332837921268 -0.44048345047402854
Ni 5.750887129302642 5.581295903894538 4.810179924466768 1.069167024368494 -0.3734689321266923 -0.6927660061966714
Ni 5.492842864635845 2.951151844464388 9.077249550420243 0.23186079753318134 -0.31053269761378777 0.473043900908553
P 0.15609068778144777 5.613569431696483 12.309929667055153 0.3832607214061335 -0.8253763081669462 -0.2464286680450272
P 3.922938627523362 6.12490735532073 12.396934131466866 0.21616961205016968 0.3038174903771413 0.2867127123760546
P 2.3687257850266 8.422958883061495 1.2437733556939599 0.08218171300607782 0.05846071524005416 1.3401458709490595
P 6.317918706981542 7.832660134237954 5.808723954342081 0.27853763276443 -0.7620451522084682 0.3383108961683206
P 4.619343234548283 1.0826612416882953 12.681440529565027 0.7292021375365183 -0.6596969915568445 -0.6269588778938752
P 3.9103333271468568 5.989416121652065 8.326642151776348 0.7912922219990437 1.2019655310901751 -0.5783406026655394
P 4.765046471020184 1.0142363242269639 3.836233775176273 -0.2314530205718014 0.13210816552287571 -0.039963427766815045
P 0.07304416172492754 5.5254762868097105 3.443310997009006 1.0235116884232245 0.14434893056344172 0.7050193696427277
Ni 1.5262040630020708 1.0233866386330355 2.6617445847566037 0.007639004602496521 0.017365744971957187 -0.9353786429297182
Ni 1.6691271154508875 6.366369486801302 4.827865133902928 0.7238131053104631 0.32047438220753194 -0.40951425578602374
Ni 6.0915271523251295 5.522192250665939 9.069216708038983 -0.9816924383945933 0.1691078826756765 0.10925080130872798
Ni 8.700806335543204 2.4257870376945507 10.393023374160562 -0.10930350892353434 0.4564669703864784 -0.8045668276207627
Ni 2.501661768654631 5.167588326012948 6.944800718710774 -1.9467120441191959 -0.025159015764130863 -0.06508079165973309
Ni 0.5974624462966144 -0.15392142445469864 9.112369842704078 0.10829435093272961 1.2657152626433104 0.3972292677710836
Ni 1.3822643089525792 0.9762584706300829 11.402037631050964 0.03957621963072539 0.9181463382118317 -0.1024728591549461
Ni 4.0159803200240365 6.662193663160424 1.537625310894959 0.17332063520544344 1.3820707933176197 -0.2904251282306353
Ni 5.706782074023819 7.74611453515044 8.006593485243275 -1.0230087806448769 0.28753700804956284 0.35987268149949636
Ni 5.19699169619883 3.0094727274340594 4.744073626496533 0.951284515526697 -0.7817657705658472 0.31408287685889136
Ni 0.7257467951675763 7.473566527295258 7.039113738080258 -0.10607446046327537 0.060615813909844 -0.991723340268034
Ni 4.829944423636697 4.553779477343717 6.921347302228664 1.1877203340250708 -0.2757433578487445 0.26464827637684746
Ni 8.041524832981853 7.127393128304498 9.074615123617788 -0.11190572243307179 -0.40157391789302455 0.03401543771349626
Ni 4.57808134480763 0.49860306127384957 10.401201074026519 -0.26122536673822755 -0.20553450093382666 -0.017249531109067066
Ni 8.079574665453118 7.04447346501408 4.694296635916247 -0.3287451068567564 -0.05671005109753459 0.19832075679420685
Ni 7.114868804161674 6.0724707453319535 6.871820438236863 0.7506353677096298 -0.20914510110322043 -0.04713911957964785
Ni 2.3480948401562736 4.994029265154422 2.6089390830366095 -0.5178250617789856 0.8095092592277027 0.08636926872486415
Ni 2.3789917719856244 5.333076755581162 11.095276264729186 0.1930026870154031 -0.054423054835570785 0.979410327228636
Ni 1.2453964793113204 3.1231993489608483 3.830097576135033 -0.9031827749234639 0.5339451072692998 -0.2910126253029891
Ni 3.709980130298871 2.693764387026346 2.7422835467767697 -0.783133083227019 -0.630973655480223 -0.0008299521004630868
Ni 1.2582896951853622 3.2484515877483826 8.132932605034009 -1.2436636821599096 1.3034981378190391 -0.042869802780332616
Ni 3.677526655310965 2.4029067529997232 6.8908489534162145 -0.13881128857466415 1.0790053506151547 -0.2948947339662147
Ni 4.141313535045253 6.8421408491205336 5.930941383838397 -0.4061821060889973 0.5148865479759519 0.5600176359866356
Ni 0.8416723713067978 7.389144305002073 11.32338181633187 -0.47358331835179085 0.019977214452875272 -0.23770337235688738
P 0.219690321451259 5.518656288461823 7.746330471773592 -0.006847361939136595 -0.25140966619938643 1.187923194064496
P 8.607422743389204 1.7217706647035176 8.174189996095013 -0.4596304557161245 -0.199030895487354 -0.05931920658560751
P 1.9637096562268843 3.283487304854816 10.421876105957406 -1.977122538090253 -0.6604906911027334 -0.6693615112298021
P 3.9386300221390833 6.227315298850628 3.721022589365313 -0.381350134646982 -0.6533517660651071 0.03805386944892802
P 6.998083080473563 3.9386750089355735 10.411591224543857 -0.22009465813618867 0.4999661792206938 -0.1258585850687381
P 6.227999098157276 7.877215057481678 10.30027769478079 0.44654225507359874 0.16306579024665466 -1.2610559094944283
P 2.4289361134488527 8.24570190753149 5.864611051621641 -0.3779940736905555 0.9299785549600693 -0.2361432269586191
P 6.898212392265703 3.9896630440773704 1.5445784701604575 -0.09738464599876132 -0.2850921460534961 0.2655057392811363
Ni 5.106172351444762 2.855653872875358 0.6415666018395073 0.5344508432611247 0.00987406458060235 -0.3335067899114578
Ni 1.4743342866490694 1.0657462062080452 7.055601398993853 -0.01149617356505762 -0.76705520382855 -0.6538569878362998
Ni 6.7725732670283545 0.7454222204804547 9.17939747026643 -0.08564370341274928 0.5817023200489209 0.3973297979046899
Ni 2.6255374114695704 1.584102070084736 9.072100361693995 0.8344067938003306 -0.6472052868477369 1.4710229922783118
Ni 6.398256128153434 2.0611240653463896 2.6866465760856935 -0.11862247233161508 -0.41744996569333265 -0.1506386202268954
Ni 4.114771325116137 6.983849258064119 10.281933878644018 0.5237046604882143 -0.04349638062073799 -0.22725852287447956
Ni 8.151328605854712 7.133016477865751 0.19787982277696398 -1.022189112957059 0.5088609106071623 0.8699885475596822
Ni 7.526848889058047 3.8937781860385265 7.992398351478813 1.9393625457326602 -0.37444055201134224 1.1934708633556026
Ni 3.0510675194687384 8.323043208057147 12.292481088168529 0.9276450217308863 -0.5353854392602521 0.5818987523304431
Ni 0.27850246023860153 4.876289821380723 10.088658904355775 -1.3721486491079014 -0.1400821848672878 -0.2520737821459465
Ni 8.704117363764869 2.157395809835048 5.868259480816983 -0.012666025503442703 0.7148417550497882 -0.4008113286953871
Ni 3.584871849260105 2.717148523841862 11.573254679284219 0.584634148983735 -0.37643187140975815 0.41389053047684843
Ni 1.1260105187860858 3.561514704522483 12.570218772866802 0.2603421928023258 -0.7407458765100597 -0.5491711801904349
Ni 3.1412300569940514 8.404901182950399 7.983324514626775 0.7885323998657193 -0.5818928387931721 0.37953750691827537
Ni 5.662452084762546 7.832165279476564 3.6128563358846915 -0.7557014693786275 0.669475411099847 0.49784656177452963
Ni 3.141922853659998 8.260781481714949 3.447169064675991 0.041434612995702835 -0.24624277728646626 0.37696331843319597
Ni 3.4937106048527133 4.06770613862827 9.15083535317491 -0.4145045099117635 0.1206947814796115 -0.4795284801916322
Ni 7.0839358828951315 6.175445522497626 11.253614492863276 0.8555746861271974 -1.2382214280984158 0.5834990069380274
Ni 0.41901961881113164 0.12849938575818423 0.419897761078617 0.05141357858528565 -0.41535040285182656 0.32509156926456917
Ni 4.613081072476872 0.3599654510586728 1.6924473710153878 -0.15214528667940894 -0.4145654450566861 -0.44169778249710384
Ni 5.795999888822841 5.4634664865278575 0.2460894733675368 0.29174461837300725 0.5861279599204422 -0.10871498340991599
Ni 7.974143609199089 8.909868976191659 11.21750629052852 -0.2195871223721509 -0.4085506063211738 0.20206376877640683
Ni 0.10896521898628456 4.632965236525463 5.697884585414021 -0.3872377037760105 0.3381548302064305 0.20479248056147956
Ni 7.881029937824032 8.743525797490133 2.6853428587234123 -0.034343767587192466 -0.4027139450347387 -0.6113831349428052
P 8.539618643719436 1.5713438146001641 3.600267230754922 0.017457533354815095 0.4972567507093307 0.7696692444126293
P 1.8654584926926647 3.130307262806273 1.5099314389756981 -0.506398822219915 -0.32738987838044264 0.515710329428828
P 4.753187951465412 1.0916675983455988 8.159652062941296 0.3367710624850265 -0.9351670411395443 0.4463144553335087
P 8.399592740964577 1.6620731857612512 12.420795128325175 0.04289217137783581 0.4591609722788737 0.671004960370496
P 6.25748344457684 7.697321855677355 1.4205966585058016 -0.2736728484729609 0.8622181595856441 -1.1914659171104318
P 1.8553814502788988 3.1644702360607995 5.909358518354342 0.045107690971915866 -0.4580145173792563 0.40860331393598015
P 6.866982558142325 3.9986244139381837 5.9667067867839 -0.3398463589762405 0.16021212284794342 -1.506765954205876
P 2.45136653017878 8.47423483370083 10.255781254372506 -0.3426051526683003 0.4757013931360581 -1.8110161612450617
