# total energy = -340858.113804891 ev
CRYSTAL
PRIMVEC
9.33966186078134 0.00000000000000 0.00000000000000
0.00000000000000 9.33966186078134 0.00000000000000
0.00000000000000 0.00000000000000 13.66953920073968
PRIMCOORD
 96 1
Ni 6.652398275091961 7.776454592748007 2.430088473924125 1.4418229736755879 -0.9310648460457126 -0.8238369887042843
Ni 0.6484517854081538 8.268692128710919 7.214783209001075 0.17343787750959808 -0.05827893824655124 -0.5262279411307003
Ni 3.066332387382197 2.1687255099385965 4.6144130870155236 -2.306816382013524 -2.21900061065012 -0.9158871098640098
Ni 1.978710090441681 8.519648841509254 2.048845346827532 0.5681515779476796 1.6260934230243156 2.2094877860636783
Ni 2.05097105385518 7.61992186083509 11.887154501336337 -1.0853140664420018 -0.2807986608844648 0.3795745308037979
Ni 1.8884609383847286 0.6556564005273438 11.50492697388511 -1.9861059725357857 0.1506926133932824 -0.49568503534683667
Ni 5.11065360202962 6.661252274486558 4.08763000995479 0.30257230511613054 -0.3905798807753661 0.3483405124901807
Ni 4.088147427218989 7.549958454226518 10.073507055937409 -1.284971025549129 0.6619243382254664 -0.255993686025643
Ni 2.5285826794257504 9.123971658837734 5.688045504532867 -1.0203173498556428 0.30386634133720575 -1.0216399253218085
Ni 4.573062668323921 1.4631700982661964 5.893703923593084 -2.051436675422796 -2.3756049615421473 0.4540953848305083
Ni 0.8166488209538898 2.8246779777452744 5.979521406121834 0.5154619608634479 -0.1052985015291993 -1.1562307480572216
Ni 8.132417123260955 2.8893364564465354 7.3596385617546405 -0.300813670553811 -0.48951927285575697 -0.5307525684739312
Ni 2.9341107951571868 4.12375021803355 4.071225827954083 0.7920291001650682 4.035435886028225 0.9699463536022586
Ni 7.658139756956072 7.314328126456173 5.145555918208533 0.39668727922468455 0.6411238565403474 -0.7270827772006703
Ni 8.85017013325545 9.108196970042929 11.63059025558809 -0.05692525243213422 0.37249885490393914 -0.658154329660073
Ni 5.621393008035461 7.403830105568433 6.43578349876402 -0.5202089886301299 0.6797639375100486 -1.001326924796069
Ni 6.8902794613581895 5.364244099457993 6.086156994822057 0.22794372186696224 -0.12657695129200136 -0.7592051116565118
Ni 3.810077676190153 1.878672972809267 8.299788532702808 -2.260910106399713 0.24694057468443922 1.9413343247470503
Ni 1.5288466001045995 3.4014394530764376 2.4998716250597903 -1.1363779749973526 -1.88107820816947 -1.082349327386723
Ni 7.506697140728868 8.843903220181845 7.203067537228309 -0.5884782053201737 -0.21073429996721127 -1.015535355085967
Ni 0.11787960755165242 2.0652046984515575 12.850118464184483 0.664850510733326 -1.9291562946236196 -2.7753130298710267
Ni 3.082714154194563 1.7703609148143924 1.7925136586583212 -0.8162722889831491 -0.8741326516350428 0.9344121652513908
Ni 3.8693284907042074 5.6218693307877015 6.260566773402905 3.3213027270096864 -1.5763490046113369 1.0435151281283448
Ni 5.7531102585228036 3.841356203587311 7.169659566938779 -1.669378716075512 -0.7862428325005942 -0.11211603867166497
P 4.766356309115672 1.9394181332127047 3.0271469022978392 0.6267624456123528 0.932819109732658 0.01577783165954702
P 5.901741636545607 3.261624715800998 9.102163548514543 0.22607041610364936 -1.2357737378888718 2.411140692554912
P 7.351724132337994 3.277586197831975 5.214846869166883 -0.07399197810643386 0.8645838316043432 0.6065813426787876
P 3.8677687671821634 8.806385798696514 7.127940231605736 2.646225910562662 1.7054834322178691 0.3483086308109808
P 5.814985518005089 8.811886859501806 4.024189423153377 0.5478691735495597 0.21378259987523185 1.8386863734668204
P 0.7065687649786382 4.466338352836517 4.046580328373426 -0.15498378456946857 1.4019446494234113 2.5188609161517266
P 6.37837259762627 1.4648885960389875 12.954621808093792 -0.7272537555608959 -0.8043955921502212 -0.6847611336143239
P 2.342032274459843 3.351612357327308 9.848889123405637 0.14991922556236761 -0.04600423464425626 0.1210904742561334
Ni 4.200120632642853 3.296349578405546 11.204142231371465 -0.03784972385792191 -0.7776239804833317 -0.6476382606200974
Ni 0.3816671477427057 4.178779505410096 9.055686589456174 1.2402883379297736 -0.3198015245102234 -0.9566447513973461
Ni 5.571042891225048 8.484036711032884 8.490055189102375 -0.014803126451103536 1.5907764928905763 0.8547030821555216
Ni 6.899320253988961 6.273348100588038 12.342335995107259 0.8106030065125136 -0.2107795513828499 -0.3271114279080754
Ni 2.8931750574498887 5.334926901040652 11.239245350279264 -0.07065237221023961 0.58662752526468 -0.6547563597221175
Ni 5.810240969806295 1.4307334528047666 7.593210428062361 3.201837961282434 -0.6505253523599055 4.351508025403002
Ni 6.412863968685601 3.5369112476108566 12.202892976371805 0.540547700187482 -0.3120581331193787 0.2347491748245699
Ni 4.521236884947741 2.6439275027625366 0.16673444450650202 1.36779937100027 1.343345865943596 0.07233644478088187
Ni 0.909569116288115 4.319210660364906 0.24498866890260942 0.33373870341660583 0.5239332315592525 0.6296364247260382
Ni 2.023633863741271 6.045787240620363 5.455964248249807 -2.6476333324331502 0.2766483861615171 -1.017148208099042
Ni 4.751973229930356 5.242286795560687 12.815138628812559 1.8317207407822649 1.175298306211634 -1.652942939116992
Ni 8.094329982405295 1.917208417431743 0.6412779911729323 -3.385979084142149 -0.48498590376177764 2.4836486299166514
Ni 4.005827648037577 6.991558754011154 1.6394291298851562 0.6132970641360663 0.5599124778673389 -0.1285142775240303
Ni 6.964483074427888 1.665364436761587 10.354512262672701 -0.14554989285007838 0.5367159851462177 0.16221475510026903
Ni 7.331120838388119 5.425577658555376 3.436631298771418 -0.7737660401898222 0.2669144467032048 1.0098311056123384
Ni 7.498552955631728 8.47309062739315 0.05792738443576892 2.095686389269791 1.688661475564524 -0.3006064396390113
Ni 5.3845205052445655 6.187628684508279 8.43267043901769 0.20735767018549447 -1.4818092842605384 0.28116015798894156
Ni 7.433175322971201 4.802201931137257 8.56719238994617 0.24265454571457565 0.9171821745263495 0.5528064629501769
Ni 8.068954121271203 7.203485020111155 10.321759936642138 -2.3829143507193673 1.0056366079150165 -0.6872566463426679
Ni 0.9949448328133155 1.955827919010497 8.235008638398035 0.19374959248375662 -0.4379282881523426 0.9891432382456836
Ni 6.271087902430345 8.770512157689502 11.048104501534405 0.1773708940154171 0.1671435598604541 0.43264081450115816
Ni 0.489562656820915 6.09128073329028 10.363355988439308 3.329673724682201 -0.07242797605342365 0.2444615170163274
Ni 5.99578269129687 5.015052823756314 1.0292615521968258 0.0344844069301148 2.040686635995143 -0.09819582904614702
Ni 8.698045721716213 9.35311092165107 9.051312825831186 0.25790504411574294 0.8420694525519111 1.7012989618228767
P 5.853941247408953 7.379621702160422 0.24348498335141733 -1.9013181893654287 -1.970154334302536 1.157525041388613
P 7.7180630271203485 6.7891122446469305 7.680886503291031 -0.33867727836880385 -0.20328247167485639 -0.5340860037225382
P 1.2069644955314025 6.242966180724511 7.822735418908394 -0.5817380583828626 -1.6057701380859313 0.8229949524189633
P 7.911394026559334 4.4299603700918375 13.565254500940194 0.22437785889257483 -0.2193490382194158 -0.153938888244722
P 0.5500061461479332 1.7054222462588724 1.7478831507395225 1.1020920572312891 -1.4950640923879155 0.058344501377164036
P 5.450570593555313 6.0817822972308875 10.632495154846717 0.43178386581750156 -0.5870990655844599 0.9333572416243151
P 9.108337064970058 2.1867323779056673 10.330016197680983 0.17792882340141614 -0.23271106134861858 -0.04098724104563908
P 3.620286408576645 3.2996744980094244 6.664898478456654 -1.2117416366403324 1.2828987164011325 -0.6580586846224731
Ni 8.217454744028684 4.555009102047807 10.78262835048835 -0.713271582349191 -1.0338436664768518 1.3486994169460256
Ni 2.4460667673463576 1.8524098438033527 13.282185228945188 -0.9548177254909364 0.7174647944949321 1.0080241343105865
Ni 4.262957877291428 0.6927301880767665 12.478307461548441 0.9796766935161451 0.7545393307497263 -0.5141357858528565
Ni 8.664441618528702 2.8482045858412555 3.5562947817285218 0.49323194582065377 -1.0585141726403384 0.3999991172067369
Ni 3.026022407016078 7.1985816976616155 8.039480016535476 0.9027896532501033 -0.35893294329404635 -1.36935077464779
Ni 4.381067240523572 7.7761650632319395 12.27915598487031 1.109108083537806 -1.8309717784313821 1.4141656169696355
Ni 1.3741631212297942 3.5185214535096314 11.997973324560652 2.288934873747413 0.7572796124990249 -4.444870694726564
Ni 3.2349880003227374 4.960611935073713 8.622457970766474 -0.39868451216037143 -1.0257737449845237 0.022478897828806448
Ni 6.785367040261663 1.1737059598308117 2.99554242070356 -0.22704460709146063 -0.8207048708332059 0.26398904552629376
Ni 6.695995816414723 1.1801316471551606 5.640557994066804 1.8724413584300783 0.2374879139119716 -2.1102480891340494
Ni 3.750313180276623 0.05496577767624707 3.5273156790686535 -0.13949571623619844 -0.7460922284236376 0.1247578958053916
Ni 1.7553427386260885 8.189781326089664 9.569579999254794 -1.300595105239631 0.9528729430597397 0.8515496241282043
Ni 0.9668231111074805 7.787157845180716 4.311030984552894 -1.0934719196624458 0.363181177047439 -0.8183929348705775
Ni 0.7911263271294013 9.047461149301299 0.07908919016180041 -0.3142798233610458 0.7386033762457602 -0.2659837073588193
Ni 9.315369348282328 5.14019495233037 6.443205728003351 -0.6151474870812439 0.09487756330619145 -0.1116100455695239
Ni 8.698727517028242 9.342837293661557 2.460284534517661 0.8897171363368612 -0.8736644537493727 -1.155074008744959
Ni 6.856413847640038 3.3360524807541028 2.1568342525238275 -0.8931678138896231 -0.6181993865336902 0.5098047625776704
Ni 5.029865527384827 9.207944558159275 1.2196075957217674 -0.2949227589906728 1.239469184462588 -0.40190276198735303
Ni 8.542521673278628 0.16784306236318838 4.794754484811043 0.0012302728626753005 -0.6122999903301196 -0.028751875321711775
Ni 1.1733230336966571 0.8901697047453752 3.977425736477483 0.5622562955091671 1.0201502281501593 -1.0636579216248068
Ni 8.829221271818655 4.723141693927064 1.8408081159046519 -0.558251031004516 1.3972778400753614 1.214070027663193
Ni 2.88819701770588 4.9984655843841574 1.9236733313356882 1.4627928910590358 0.1598557679497892 -1.0724888896528757
Ni 5.099464687182862 3.527973191259982 4.95196807806981 0.8110688904053386 0.22588632511730128 -0.6368648241536773
Ni 1.521748457130028 6.703962547937499 0.9575058644871747 -0.40361845912687905 -1.980790216749827 -2.686922616951076
P 5.166672893557884 4.587604521759984 3.1084804131922574 -0.15171128446578386 1.2428753819306595 -1.3011959720484236
P 3.040265391274264 8.582355330892508 0.11049567092573641 -0.866180743777818 0.22576008395208216 0.44515848735219454
P 9.01964763643515 0.9345359002349892 6.703050062978794 1.1354539205211864 0.978830800576082 0.4488775880749947
P 3.012470557731732 4.6102251826605265 13.409639857783066 -2.798027697859723 -1.4806764562076757 0.5293258633297336
P 9.207290781832668 7.222379155950047 2.103577632958563 -1.138154350171485 0.054495302834402924 1.1464430725428385
P 3.045271450003699 7.236930349047918 3.7260973051391644 -0.8453987740354602 -0.1253929582862292 -0.07347030127500895
P 3.586355417225832 0.4583382994622475 10.380142162607989 1.3485204681660001 -0.7418010572474515 -1.7981992119860513
P 9.097615133213731 7.031429770272267 12.491839697542991 0.3661929672905694 0.8873064700128397 -0.587753154228691
