# total energy = -340870.4571754204 ev
CRYSTAL
PRIMVEC
9.22716638971471 0.00000000000000 0.00000000000000
0.00000000000000 9.22716638971471 0.00000000000000
0.00000000000000 0.00000000000000 13.50489070762263
PRIMCOORD
 96 1
Ni 6.878132640372712 0.018977512605550355 0.22726048850994432 -0.1078786035515497 0.5093620186132969 -0.39781445085059225
Ni 5.832058041948713 6.280590588142035 8.976282263363263 2.5053654527684532 0.897852363849486 -1.8149535486262547
Ni 2.632049142185656 0.16977985702442094 8.253702882733785 -0.23165588061122688 -0.8331919475566231 -3.5452882355598487
Ni 3.415454002027362 2.118834161332488 12.318175451468337 -1.1895113644872224 1.6494048440567464 0.851408984785282
Ni 2.0400341624744147 7.7409003562071925 9.690109676906456 2.0634354996558852 -1.4554035405735 0.17989468887853535
Ni 6.189989043787535 2.431764273893695 0.10275187673111666 -1.301233253044262 0.6539138092161642 -1.452258824296931
Ni 0.19044686375068715 6.336534896464809 10.827141065581444 1.3580021824041901 0.3658199002218668 1.5897526796117525
Ni 1.0313019054296457 3.1695407971600877 12.213822661411474 0.9128076996077376 -1.5940402512435128 -1.215103868244346
Ni 3.383103557531296 4.699109674291838 2.7812376552461804 0.5923811399190057 0.7267374780461098 1.0217486829855307
Ni 8.014550422499216 4.4756923004803 6.20422748386223 -0.48363478905052193 1.5731526091612262 1.4663158166106296
Ni 4.6389393238757375 5.392318985089321 0.9238247969168873 1.11279504547109 -0.32929095205789743 -0.39021658389867636
Ni 2.8315220198570654 0.9709470116906925 10.190196245771887 0.022778688457412384 1.6797384620432811 2.213557071037046
Ni 1.9967126174347591 2.0138566921277685 6.858971507160924 0.11846897747288629 -0.03414039332713475 -2.08376341257996
Ni 4.076829589632766 5.4726137848625 4.970866326091395 0.38961648842083224 1.6549993074253886 -0.009078051041868236
Ni 2.62704801813635 5.555732097475326 7.613854273739141 0.6789170161287211 0.7376147870802457 -2.367419597517878
Ni 8.814933268043363 5.053165266350755 3.7135071546168046 0.3369294424397617 0.8782433313693068 0.06073999819253411
Ni 8.04464943845648 1.2319558603673118 10.56787338315594 0.2944123950131575 -0.37056307133380695 -0.22355484877064727
Ni 1.678845970987244 1.606449625432157 0.8915398653004337 -0.8417089838886987 0.15699798678601995 -0.7688624322406177
Ni 7.235251651590982 4.810463115301117 1.3915978299508236 -0.5461655605948916 -0.5948028619866207 0.3046559271180366
Ni 4.376869351092716 0.8501883202322303 6.490882318115679 -1.161075734854349 0.37861782331748345 -1.438198746659439
Ni 6.246606935238723 8.842873127123253 5.568363165207974 1.0552624984722598 0.4063016623859971 0.09685911251259448
Ni 0.05495792426212791 9.101362959442934 6.001100648398339 -0.18215314589540885 -1.1508455724859081 0.3010571540231848
Ni 0.6493046088576125 1.7710438150844188 8.757678702128336 0.3486050790054771 -0.9558551656165151 1.1608636188435428
Ni 2.1073740209833396 5.281334630725748 12.304332856821162 1.2562754573866493 -0.7935982444244011 -1.5547046868686838
P 6.287160330435587 0.23893285368037326 11.505396830928179 0.4898743422023305 -0.2761868731440663 0.5028170184059276
P 4.418004057756567 1.5748927172243568 8.44687637407962 -0.3757019352222691 0.9929358725188964 1.4485754619080728
P 1.4979104700963817 7.579969351513554 7.409526061243479 -0.7002142349446006 0.3984366578156235 1.8246795176647672
P 3.2064494617306143 8.489583389854175 0.5388056034331424 0.4130189265051725 -0.33321342704075513 0.05419242688200344
P 1.0191312732875146 0.648559053833288 11.185195711446577 -0.48373429074286367 1.012031969918399 -0.40794639707827157
P 7.927003070137928 6.029048811927756 9.508037389146821 -2.956023529782638 0.8762327286971812 -0.24379894373166394
P 2.8358126521133893 3.5928370439533115 10.829139669767939 0.18189603557928027 -0.26859954771511163 0.32693247912804985
P 5.928122068659651 0.8019662272542234 2.285784046500964 -0.3813560481842529 -1.7039639102495494 -0.1362155028230299
Ni 7.581584105588516 6.944383693276807 2.6410299429922794 0.8560128021058806 1.3223440668809483 0.5055881533931615
Ni 3.4032187797222324 7.070703597769433 2.783344217276543 0.012376262177165781 0.06335146767345219 0.5294341067728237
Ni 2.262464229508691 8.158374261164415 11.902980656548344 -0.787285671942812 -0.6963431820249685 1.4289162929162489
Ni 2.197827930679557 7.712978951459588 5.456772586028831 2.0919971133436617 1.0497425970952954 -0.39005948949552177
Ni 0.10626189073177372 8.83192048091195 1.1063123071529404 -0.04959992241531458 -0.38789102108929324 0.016888548225222528
Ni 0.4430414596218407 6.251432743131318 1.8389336126954448 0.05460020384338339 -1.1219551147038034 -1.6629805258586523
Ni 6.167096444587666 2.31554811632725 5.5688632776129054 -1.1991745986085993 -0.5638462657041063 2.296199011508994
Ni 8.498792101664522 2.032680111058737 6.483698046557026 -0.9880433203132856 -1.8683119096427374 -1.7346808797174318
Ni 2.555860431345947 0.0203412877614313 2.475797233442947 -0.47409419654993834 0.04421911771937546 -0.5924485028218313
Ni 2.9875995351596782 2.5066704086395784 2.726340630280594 1.236570008537922 -1.4311492960118255 0.45568149837070554
Ni 4.225497690522845 1.2738195131564314 0.9794747586397126 0.23384003274673917 -1.443966759491468 0.3302114069896377
Ni 5.27657341299615 2.050968354353433 10.63234636114435 0.8351318448918132 -0.5170447319695353 -0.15338430129283262
Ni 0.8211218241663266 7.703161246683829 3.542062716820252 -1.088551599542693 1.6255192956884004 0.17740174725335253
Ni 2.123918329877078 5.30181893956239 9.710651194173181 0.18129362610859098 0.4110720871914469 2.484899471604617
Ni 6.252540003068434 6.402564497381481 5.378106381079825 0.9580118069482016 0.560676352616557 0.3297833183132836
Ni 4.229474599130319 0.09374616257590826 12.183139565837381 1.4398213698645266 -1.1479646513936876 0.7536877813827084
Ni 0.22829669926776186 5.890807408778849 8.297998816518101 2.1542892865146643 0.010438421724504604 -2.3351607374841716
Ni 5.940071248814358 9.117418228531113 7.903453496708704 2.693407453344471 0.1761655608534063 -0.8004420068191117
Ni 2.5715650681207065 3.277083418552459 8.677134768869305 0.03310578141503331 -0.5083796000953696 0.48131539688872593
Ni 4.800590047528501 4.025692634870301 11.911826740729285 -1.1882119289495083 0.6868910354731331 1.5209836404671546
Ni 7.784203446914562 6.921269642089515 0.29661740553764876 0.005764156177286847 0.017295296745337956 -1.4702804576853323
Ni 4.529495906257985 7.365077879217808 6.906684260567857 -0.7245109027084361 -0.01722690540124775 0.32005169284781654
Ni 0.011354950655122414 8.447572102406774 9.276373696953613 -1.5325116957114122 0.1576603029603672 -0.3135601715862019
Ni 4.3818151121451665 0.8963213827955454 3.9779595816978537 1.0353912134696297 -0.2944501902296284 -0.42900784573426115
P 9.12831551174556 3.681325567261148 1.392097942355754 -1.9471409041264984 -0.5296310532749782 0.11313213864100517
P 7.910467988410333 3.290093722813569 11.0399241304136 -0.4461601891438316 -0.1791552396093495 1.9169762076176597
P 4.133161438933531 8.113484097880512 4.859059831224514 -0.1257822233048479 0.18085319613706272 1.62309063164225
P 3.934269872729107 6.467126978881474 9.352298510841644 -2.8333816518789847 0.6175949201804718 -0.07416887000393033
P 1.8690916825160218 5.836902304173595 3.9266823740100216 -0.4311752856992252 -0.15421296784171507 -0.1096925168318369
P 3.2864582193533725 2.3912385601952573 5.029896198772266 -0.31448911115837447 0.33539475096279014 0.05331953735874689
P 8.16912390972058 3.2604376108311515 4.531822997559156 -0.35239694194774146 -2.0056977786247847 -0.5812559765401215
P 0.7521007759862138 6.73005507811576 12.98593808347767 -1.5725201177835497 1.3786319428394 0.7760805472556117
Ni 7.285382845243899 2.9978416895779993 8.327763809061002 -0.0016349645002617006 -0.4892976437632541 1.3488305432072514
Ni 7.306946732519229 1.3282321118995295 3.962146064362612 1.1613192183237226 -1.3745564872184457 0.48459226786778475
Ni 8.60268076526441 1.7542688270371147 13.115517023051874 -0.06389268488890287 0.07215389645643058 -0.2736453376691352
Ni 7.0500808814406515 7.361709963575748 11.212962099802983 -0.5588544689164697 0.3338011812234251 -0.10746491305289879
Ni 4.086942563725089 3.7318812105566264 6.698479715575676 -0.9592911878812576 -1.3173795237868213 -0.2715077225008421
Ni 1.8118924795978488 0.7846772860527746 4.589772369084725 -0.4358413237163268 0.26054788105522875 -0.1884999140490431
Ni 0.5950442583558676 6.285942344504761 5.860001591895059 -2.097688250191168 -1.3133302934181124 -0.2967554413240373
Ni 4.8944026457006355 9.045326379458732 9.761699568140678 -0.8264772545406089 -1.843715965470928 1.9636815820939986
Ni 2.215359546350557 4.2567131935833675 5.3733802265815696 -2.0537231574641277 -0.5694623263393032 -0.0030616696444592433
Ni 8.946134343425443 8.627280390200667 12.206665148634636 -0.4877567816386955 -0.7202868373247595 0.37172572418334043
Ni 5.531944463159621 7.489090992174776 1.226900296037764 -0.5108388602691396 0.6660180486788658 -1.0690806353022748
Ni 7.543272911764309 2.0553328039388976 1.7958934962231399 3.013820386186448 0.2723127349006407 -0.09451349509855335
Ni 0.9432193774320846 2.9914841721057264 3.4030028640344945 -1.7239051292581664 -0.3503927670335192 -0.0029876218734142096
Ni 6.141675601864716 4.260302561212852 4.570838224160045 0.33421255772923086 0.5623241726326251 -0.5338512620039129
Ni 5.4967705058239105 3.003996209395135 2.673063895689653 -0.528635007910296 -0.008759234249868785 -0.5609396335802727
Ni 4.47446508738333 6.937324911177694 11.50349234383634 -0.4239592275667602 -0.22675098711044173 -0.4885844197463134
Ni 6.5011752219477845 4.95584634504442 10.829247627611807 1.7956882726387395 -0.5547476458369478 -0.23167464966430423
Ni 4.822624520277104 4.053300315969055 9.365911349051867 -0.33533330159723534 -0.16797762572597522 -0.995086600313312
Ni 0.0669596992638488 3.915529498293423 9.64586818340238 0.7807057047324489 0.5836915825648076 -0.16738318667508592
Ni 5.550952425413443 7.943879557012801 3.463923383057991 1.7601355723451106 0.6134418172440467 -1.065241206951527
Ni 2.4793764511896743 6.334218877763009 0.7663512113768941 0.8124467445894717 1.9128228475709186 0.036725123335175455
Ni 7.706086258351044 7.305359659942696 7.191178092510702 -0.11711503454815313 0.1512320308365202 0.24869458126106844
Ni 8.869797997927451 4.772788595940751 12.9608457278694 -0.9434027987857753 0.34446020359916807 -0.2037054181448879
Ni 1.8410780061069925 4.1243956310980305 1.2298502210535633 1.4516139916240807 -0.41666500789819205 -1.606801150453607
P 8.057844286040444 7.718561386975882 4.674609702749923 -0.3187756543488704 -0.09409646216579279 1.0301492483444001
P 5.92615668227127 4.236293474909724 7.261593365494966 1.6488011490344765 1.4650297508093542 0.09813206568774713
P 0.3769721818907558 3.4652622448652872 7.328725612765683 2.1289976018274106 2.864981538172453 1.7420180368087934
P 4.166757550858852 3.361207492274831 0.8368476834232136 -0.8196088095555497 -0.01082717252249103 -0.7075992145547619
P 0.16812081255197578 0.7551457408132825 2.8880070401157987 0.6937090868362311 0.511317599677771 0.5382833296333375
P 5.980440100688372 5.924292794710459 12.670706715680492 0.5870864671789696 0.29421082052531267 1.765990488463991
P 8.086946768054304 0.7799289863557765 8.319093041036773 -2.154606560644767 -1.2297452723066047 -1.128663122851598
P 5.937524550958993 5.740432282152382 3.028998138775209 -1.7625734923626417 -0.8456769673975113 -0.4531679879202325
