# total energy = -381171.8215869966 ev
CRYSTAL
PRIMVEC
9.19632243507759 0.00000000000000 0.00000000000000
0.00000000000000 9.19632243507759 0.00000000000000
0.00000000000000 0.00000000000000 13.45974746225009
PRIMCOORD
 96 1
Ni 4.800829815625533 2.081247338438315 8.198413009854336 -0.38505843673650453 0.06437296695943108 -1.5386946845936726
Ni 4.7123060150493075 3.606475821003044 0.5207426823196345 0.0882986245370931 0.1365577166537971 1.8663100487213602
Ni 8.100645065881142 1.0240197089095406 4.742918733453436 0.3417844565392178 -0.5781385139570624 0.21041959694026988
Ni 6.135942722737083 4.117561445044569 10.065091751259152 0.31653699482633874 0.8795381389213304 -0.056977960046940584
Ni 3.886016436639395 4.2731540257581715 9.14929068723438 -0.11032680798172613 -0.9878134636906665 -2.0285785398777
Ni 2.4249323036507278 8.698497992897599 12.451248680637118 1.429786354226028 -0.40858120244879315 1.1613986654114061
Ni 4.837376001319479 8.194723445259367 1.8069706978123357 -3.0976113526611746 0.29422007649669324 0.5310503022200079
Ni 5.7986308090309375 4.484255609201684 5.0814721506997635 -1.9167311814863894 0.3038833106180702 -0.19898924361614118
Ni 3.42422310130435 3.0015049403562135 5.585646738367609 0.27807329153350174 0.5317545273758842 0.8243658646245609
Ni 3.089145893970532 0.5600109794794601 4.512030342476182 1.3897023417209484 0.07045928236282703 0.6981450111203976
Ni 0.5452876671251555 2.721909146784744 1.3932989593269907 -0.5356543766509227 -1.2910902510729891 0.7780836937285697
Ni 7.648792955190073 3.2499435932303795 5.370142875333838 -0.8772542279831601 -0.5677854528575125 -0.44776327196489335
Ni 1.4937218816116695 2.760027903629586 9.556770541767099 -1.0004699761124125 0.9843265335833306 0.9649620130137897
Ni 8.476995368684117 4.6774427563764975 10.93538573292662 -0.1371966357893766 1.0818081101712722 0.9323964203729426
Ni 2.9118407957875254 6.157756399754204 9.866398765791693 -0.3914080331036162 2.0278717436186624 1.7290352513958802
Ni 9.137815515994092 8.80907457487646 6.497343483651765 -0.4116446718654652 -0.6980277688162431 0.03822330514725675
Ni 8.800623154480704 2.5128859322307213 11.575490244128346 -0.38936760563481976 -0.6325222309142655 -0.13751416702979544
Ni 0.8450951383307859 7.425441870150101 8.454255621989246 0.11381965162633301 -0.04633487851079762 0.3649855772460295
Ni 3.85626633328763 1.3241416943453503 0.19696867499498272 0.33260767513595624 -1.0022808040689062 -1.7707832818669438
Ni 5.891127420935745 6.869036768730679 3.8588422232254445 1.2779675976481024 -1.174120483853449 -0.7748497601723042
Ni 3.882898883305161 3.3335381649359563 11.256683170596672 0.08311450923299235 -1.5696679930467352 0.7149685104356396
Ni 6.661558536359994 1.9766299734523256 9.545464582861177 0.6786467931864699 -0.7222714718549561 1.0805094459645068
Ni 6.0115440680108625 9.064180561577528 9.359342970278375 -1.4519335797470285 -1.1345972289478459 -0.6723763867967258
Ni 4.791982953361423 7.714491483271992 10.808997913639354 -2.3988418205829007 0.9811093121976135 -1.5779564583077728
P 0.20377763218869113 6.740628517385797 2.0499062712906135 -1.0291562883035115 0.26907854423405914 -1.597647766089113
Ni 8.222965351717875 9.0263928723434 8.855935355908686 0.42374248357026373 0.1800325000079803 -0.052916131272741126
P 1.4899513893785248 3.887313118114696 11.479791472722122 0.08730849270968188 0.5976346750084611 -0.6877364141925639
Ni 0.8611546763472269 0.40847765552612475 11.166381720877357 -2.5345590436132737 -0.5839147543192073 -1.7392746697357016
P 3.0246244951711554 1.282739850360916 6.9883820442322335 -0.3177680390199625 -0.00011081454625142207 0.1456843615454136
P 8.061128468013282 1.3613132299706465 13.207431013949089 -0.15582247842068 -0.37472671579319333 1.1104663973379134
P 4.276630235670681 4.7896286947963365 6.93588851565659 0.8322231558854507 -0.5943089530693377 -0.5563083054558484
Ni 1.5636783070202862 3.1716828885863246 7.18329258224727 0.09008708389608357 0.13209942377212733 1.7684672321392576
Ni 0.9017546010079291 5.208981001702203 9.257049515993154 -0.28004018545188547 -0.94379232091471 0.0863201606544836
Ni 8.488766661509546 4.723838203489219 7.386614996471228 2.111444423434996 1.4439243362893068 -2.4448591678532794
Ni 8.197647875820683 0.7318267927503588 2.2889242113754293 0.5587217999933475 1.0847800483154029 -0.9887295477470326
Ni 2.63532577026021 6.041312564007668 7.6131158219742545 -0.6421710668579392 -0.7507086441497265 -1.3175577012358988
Ni 6.237249411615921 0.937031694194133 0.9936231040846292 0.18266376698324024 0.6876587668770932 1.108986213247961
Ni 1.2423496018536666 0.7851856952751222 3.0679879147490774 0.1660338717360431 0.9676287612126754 -0.8944893609145239
Ni 7.353232345724116 6.022184213166347 8.998514220624429 -0.030863008127443622 -0.0999017559936602 0.4161723845324897
Ni 3.1231906799390736 4.812426378323083 12.985399601190716 -1.967225590691515 0.017445192059640922 -0.14803023606977084
Ni 4.910560335932567 6.518748843949004 8.779497362388069 1.5673444871198812 -0.16412174231499474 -0.9483298037737473
Ni 8.19387738358754 7.8799793070169715 3.4369738024781435 1.6365999789825945 -1.253325630729706 -0.05662031959720572
Ni 3.7358864715025915 7.351549418702981 4.153193516280038 -2.037460158638046 2.6486229500399285 0.9080087355571975
Ni 3.257291454923752 1.4585183590056245 9.599034081171645 -0.228159180311878 -1.5317671042359038 1.8284533828849026
Ni 1.8074544243768804 4.73947195177299 1.94051877381357 1.482326075995957 -0.2362157320677674 -1.0017442148391458
Ni 1.247058118983838 1.4578746164292342 5.592040941415671 -0.6653853001908734 0.008454815635572535 0.015418134327283124
Ni 2.8974025694313363 5.312310881535411 4.903897600266926 0.7892263406089505 -0.9131589122995694 1.0662035708647961
Ni 7.288756928537339 3.7119300513383413 0.7663267966836341 0.6419944320707589 -0.7776995709162735 1.0075821616771616
Ni 0.5352645952107541 4.009541440726228 5.348997770963911 1.2625998569427805 0.6340101283137017 -0.5345714279993891
Ni 1.5255043722403248 6.673982768084333 11.66479573211876 -0.4782406146181441 -0.7001147332522588 0.6687472746845708
Ni 8.774422831621608 8.138846589628665 12.96584178208772 -0.28624554293164894 -1.1717699813434013 -1.0265908415691805
Ni 6.47999554085029 2.8508599811582975 3.0777728019102137 0.7543776083608814 -0.236822769524147 -0.26323494096908856
Ni 8.330286435524703 2.0431377779159927 7.1939796286476065 2.754713094232488 -0.35599391527038043 0.2792287452941836
Ni 8.688547571931103 6.944658128811533 10.53038152841625 0.7754334005899162 2.057255081876786 0.4337774992087626
Ni 3.7272327320113976 8.656857044527648 8.187403172533555 0.006023066265628337 0.18987545424033106 0.9553882532824256
Ni 4.036688984804871 6.873947604956287 12.775991980355363 -1.6406196416649488 -0.3313866582446615 -0.2301744109696939
P 2.2600606335145796 8.441506760079957 10.111258209941127 0.39318158006427123 -0.9418853336999844 -0.9401331268955679
Ni 4.471022101095598 7.073029594866335 6.371292249768724 0.5814320971066695 -0.05729369151514649 -0.01932698246338607
P 5.184987796247873 8.76398500556156 5.107152881336488 -1.027062124778644 0.5875387242250398 0.28597480576876555
Ni 5.350346871477575 8.679700709666992 12.85903937087101 0.4666462249123254 1.4991367197953922 -0.1563876068955307
P 4.64515446800925 5.357547592010629 11.13955604808691 -0.026346351204012693 1.0549449672318412 -0.010064069104221376
P 6.049442113115228 5.054124126790188 2.569290656774064 0.1369426107970416 -0.5829953278287314 -0.0009507939490435238
P 4.854720265591944 0.9442875926623069 11.098961641219718 0.8880418055169674 0.28709015032013135 0.42427830146907575
Ni 1.3226334974520924 8.254536326928573 4.409278911329473 -1.368610811157972 -1.7424630947660118 -0.23776610727402275
Ni 3.8378828845704187 5.96318060787889 2.558550271703113 -0.04336705413172531 -0.43767940536633004 -2.0580284697077005
Ni 6.526731251896246 3.5762659015252862 7.716298560647145 -1.581082148420948 0.5275546303619237 -0.9204482468721308
Ni 6.646439782137335 7.039545784571505 11.666195412406282 1.6567366018314693 -1.49696850849948 1.2289392314655416
Ni 0.5509470840038807 4.342567868138117 13.35598656867049 -0.44824509669731827 1.3516898670329174 -1.2039002862190429
Ni 0.6981553774761234 0.39836170075427274 0.7261885274134292 1.4317056827359278 0.2560188828366236 -0.595621244122858
Ni 1.217308015632073 0.5607255337392537 8.238159515785195 1.1478916320639068 1.1218422432750226 0.4385934325401672
Ni 6.854046763023299 7.824065666096189 1.2627433666737204 2.8532588504188863 1.6273722897367393 0.4126229766183346
Ni 5.168278078229278 1.724282883507217 4.796569159402079 1.1339904486017824 0.22305862586051908 -0.28282237618271294
Ni 2.3250878300525484 8.121290809938241 6.404780658224815 -0.15276260854843368 0.39547937495951246 0.3030893539618651
Ni 7.508236361796449 0.16046663164913266 11.392639763465858 -0.3345462869195658 0.4731143491351723 -0.28243979603231356
Ni 8.662632335070123 4.6546266802047125 2.642592704315408 -1.9492890608177524 -0.4945583779415612 -0.8578537119693612
Ni 4.155533060729093 1.3565403385828365 2.4012867191876497 -0.027256778833424023 0.3557406616089938 1.8939460652710738
Ni 1.0307514169940821 5.837678394450286 3.7337474068844703 0.34962066475418496 1.613109866280454 2.36065733909338
Ni 6.472353396836282 1.071849782335361 6.804211891288148 -1.2752203739202683 -1.6993477516337765 -0.22481340376809666
Ni 8.41734802082027 3.349383428637685 9.015769280568453 0.8486509624241707 -0.5410269538167456 2.2288849596433677
Ni 6.411492134399812 9.221888296470702 3.410350448783133 -2.3642093181106962 0.5455472102846024 -0.449780045284606
Ni 2.040884678898626 1.8789098503562351 12.301738547638154 0.07647823486339732 1.9274249137548098 0.5903401982295768
Ni 1.9638011035371135 6.886013180102351 0.8061045701110602 0.1909308920880389 0.42262559635700114 -0.5642085341395315
Ni 7.8537973768029135 6.065370143719635 0.38843059206507 2.006120982205132 -1.0486107974836973 -0.46117286050258
Ni 6.564436174227694 5.885949891357059 6.83327135081867 -1.085594830907214 -0.43249117629717126 -0.4233339352779354
Ni 6.0073137596517245 2.364567642630331 12.658555861408933 0.6403394129658392 -1.6221416374654194 -2.5928454380589923
Ni 7.956382354512013 5.607218552102458 4.846450932382082 0.3651488422967711 1.0868940093346118 0.317383401987034
Ni 6.3633126007182375 4.612801805384364 12.397598254688473 -0.2418330782545448 1.2255412615275862 -1.1558108869109838
Ni 4.305000890644466 3.8460492189680595 3.2247944100353036 -0.8733677484445603 -1.1534529282017685 0.13118745348081923
P 8.737012191610795 2.62987235100593 3.3899447287438034 0.5612435379739367 -0.5965203588983597 0.8018882523473351
Ni 1.983922657210579 3.003206260022389 3.7111888277432405 -0.27736932348794163 0.05479509346300885 -0.8535694827717105
P 0.6147189825178878 6.5867556489834085 5.97087884946027 0.27114648250668144 -0.22259839839464893 -0.07455504969875548
Ni 7.137854472308867 7.934862959815528 5.614559056737814 0.020220955032565175 0.4406562286064669 -0.6494462603631137
P 2.7176604457805658 2.803793202501626 1.252729491081839 0.28256192343247466 0.6136387637462012 0.6795173687168814
P 6.76300317007663 7.865145638792429 7.65365689017083 -0.13406914590398844 0.1319698401727985 1.9723220313778158
P 2.6822546040790836 8.84253999252625 1.6753345372629809 0.15686480364226532 0.45158393126256424 0.017846027042485394
Ni 5.575500435731441 6.117292580666796 0.6526124294609935 -0.3049094378897394 -1.6456641460673915 0.9273475450951255
