# total energy = -340892.25627340353 ev
CRYSTAL
PRIMVEC
9.08175071000817 0.00000000000000 0.00000000000000

0.00000000000000 9.08175071000817 0.00000000000000

0.00000000000000 0.00000000000000 13.29206016153005

PRIMCOORD
 96 1
Ni 6.498256133760061 1.892319024541165 11.17466218084772 -0.6743952169989677 0.07952576344046948 2.334517190362902
Ni 4.77529359984661 0.3999239822652304 5.994573147557592 0.3347828284104041 -0.905794501514698 0.5054256596733683
Ni 2.9669535258006445 1.4767835124931674 4.962152440792735 -1.85460947245498 -0.5240106217644072 1.1059685094675598
Ni 3.5344358120170405 4.127792006523781 5.156402010614495 -0.48353811557165755 0.5707118824756882 0.01112799159236148
Ni 4.884265528795664 4.325637949698639 2.8085196569703323 1.1932438349464611 -0.1623224843227269 -0.7747898534686463
Ni 6.938203392204847 6.026604482952485 2.5594789758440863 0.3508262550265119 0.12441028265798573 -0.7632893090282143
Ni 5.21427819269688 4.5999885623848575 11.497034367723781 -0.14714911901639818 0.0291460254363369 0.11515996770431135
Ni 5.600970063912959 7.96067231634262 12.350876065830441 0.014573269828484578 0.09594945621413153 -0.30499248452184896
Ni 1.9194643779563427 6.631040413547052 0.5184054125729428 -0.057988917809958185 0.45892623056024834 -0.243454930128684
Ni 2.7453043135387407 1.7258414489461078 0.5630167893029652 0.3470667879840797 0.5737650674797151 0.1758194903678972
Ni 0.2074953034972489 0.2101607973839517 4.679004336017764 0.7068242840619504 0.33191810526809934 0.46123996629508957
Ni 8.452367391368096 2.6907139089289602 1.2613062581372367 0.24742419918907707 -0.6164674914442481 0.5400537912701989
Ni 6.826797554016828 0.7398648162412114 4.7077417203642495 0.5915853834905876 -0.46830201534819343 0.7633646423508402
Ni 0.9101458291096965 7.716100764830161 2.8314211081938367 0.3359195131180086 -1.4489356734609693 0.18051046808566332
Ni 7.581963304160311 4.031952289364072 3.6880018623694215 -0.027900325954693883 -1.104079262864647 0.14572138543093613
Ni 7.541231651411207 3.9765626906758245 12.555029284999558 0.7420432551652446 -0.5307286572145311 -0.13518551889661878
Ni 7.894166654562978 8.703922809316243 7.191084745783177 -0.2671520166353077 1.1189289262829698 -0.22862814952849655
Ni 7.145412620549009 0.6641729634346538 0.39711862941479603 -1.0285327957868995 0.28174534106845023 -1.3245762986455767
Ni 1.915050647022995 6.385660586205235 9.238619974813739 0.08308725553948271 1.0561526143866973 -0.29473481134958274
Ni 0.14996513612383727 5.105860250552218 1.339707197234777 -0.6685631836982228 -0.3170843826893765 0.4987037675685024
Ni 6.526373234520647 1.9247136299717236 7.019098180097237 -1.2211426182392582 -0.22226544053526234 -0.6182274115581482
Ni 3.2789934046872617 4.174454042605141 0.24324743223245493 0.039230663365848566 0.12018364617114786 0.4411845903061111
Ni 6.06560152128128 5.673851114818547 4.872696286334776 -0.6761487093549645 0.4466358432286695 0.09860077779404955
Ni 5.538478536027432 2.8978686467677717 9.200232321969771 -2.010171498125422 0.17058575277278365 0.20894018418126598
P 0.1909928539520098 5.763151971336259 12.509995606853074 0.7835732560882311 -0.6555063505142646 -0.07955790222998556
P 3.9565646752123844 6.125014335614535 12.882292902905867 0.20410033959046137 -0.13012687342678878 -2.2241199341545568
P 2.366885917384966 8.674588753936174 1.6262300806410908 1.497134087543067 -0.12295529537901406 -0.415379199207233
P 6.474289393156965 7.73155790484777 5.842830712784257 -1.4114471895972078 0.29145022706103996 -0.006674583806698183
P 4.866138354015907 0.9984113660257602 12.323029601246425 -0.5263837499822741 -0.3114984039611668 1.009312514104707
P 4.136074563336977 6.182665290274805 8.279132993109641 -0.5601958134357127 0.29940110647700047 -0.26306370549854696
P 4.547441551725702 0.8862835286418544 3.527540038565001 0.44960032517363213 -0.43458791092519994 -0.08111624785604094
P 0.14267430650801094 5.633410078097975 3.5871680903943868 0.04992876650964304 0.6048288787640551 -0.7714903567817681
Ni 1.3376238435802297 1.2914794672996948 2.769400923179588 -0.5925950557020245 0.021710652204214222 -0.5409241096902943
Ni 1.80043895077022 6.424339763252823 4.927752584765298 0.23782087177135816 -0.46533059142469535 -0.21637375764117575
Ni 6.17351088537601 5.6568591589002475 9.309334119956574 -0.09006085864383845 0.2559314653291399 0.6757913260155458
Ni 8.669366747173468 2.242129905386204 10.34659267542142 0.9633658721712635 0.5442544596151079 -0.45779083140422444
Ni 2.462389609761684 5.203888669676818 7.111943643987966 -0.5254069878913017 -0.6166263856196155 -0.11528440909731759
Ni 0.7632385185110819 0.07075682937202826 9.02258419277797 -0.7549265388858161 -0.5322237537028188 0.25654441632279046
Ni 1.4617350512656835 1.066751541485517 11.510591605454854 0.49120026010260565 0.1776873968145714 -0.220915097154955
Ni 4.233149398617952 6.7006429523807505 1.5676791244674564 0.5518556690011335 0.9136978155221749 1.4703251948803389
Ni 5.582207166570785 7.856613614625956 8.035515933615896 0.012268790065024033 0.5570251290172149 0.3427843585586419
Ni 5.1978220600811875 2.5912233279108023 4.691871360681071 0.9908620207090032 0.658542309127111 0.5899933564131193
Ni 0.6131435133494939 7.314596557909781 7.127627827777866 1.3050616256514171 0.37892866968968286 -0.7920409272396102
Ni 5.282736430918228 4.456242609271631 7.413314281927058 -0.7359415131428809 -0.019556067755056646 -1.2594754523811857
Ni 8.413688214320507 6.991849294721894 9.187338960228878 0.08887146632142759 0.622384114038999 0.8056605749055739
Ni 4.697617384470226 0.19616400290972213 10.298010757201563 -0.34447151645307766 -0.8444850039719392 -0.3361431990930404
Ni 8.138438508296012 7.291483501890501 4.554125720381965 0.07569070596509545 -0.4244338532103336 -0.15212728895727995
Ni 7.358252534446001 6.154793396788294 7.2358523286285354 -0.519675484724163 -0.495817704269959 -1.1069982362836546
Ni 2.4055287674289882 5.195524377105598 2.5279235241959173 -0.7345078660201478 -0.15590835326626698 0.3490624782578698
Ni 2.2609654567355113 5.419616580357359 11.399417351914574 -0.4529674418736521 -0.8566275528717441 1.3189260423383349
Ni 0.9793033621497031 3.579072617649559 4.088624231278221 0.39723955218372875 -0.512703167171388 -0.8249428201739535
Ni 3.270329414336616 2.6645584663609734 3.055087377328779 -0.044414521559633185 0.8075655052377705 -1.5425413120332725
Ni 1.1922795023100703 2.9590342390231155 8.474884684528883 -0.21014680289485743 1.1123199056068844 -0.3461910702473457
Ni 3.4541894611383146 2.637049842910129 7.443141476380545 0.07130003309656753 0.07717988891611223 -0.46685422715807334
Ni 4.128391402082631 6.96160706425266 6.140945543028688 0.3868561520668757 -0.7011388036413989 -0.6704339183583744
Ni 0.7564707977466154 7.5351741235664695 11.351977917956887 -0.0411564196336517 -0.08155667782756922 0.18254575334813722
P 0.34831602464827166 5.36186572643728 7.888691266950396 -0.08717068158023697 -0.6202747810054801 1.5617945038359295
P 8.516066792122214 1.6446415142237574 8.090823796546118 0.023203177589340686 -0.5008696648715697 -0.40792814224582646
P 1.8788144609652635 3.2559620844260064 10.655580177833349 -0.5425341344898915 0.35431215669258337 -1.5337877342103585
P 3.9571549890203426 5.901984697217098 3.8911978649945573 0.10500359599659981 1.4887538338991715 0.952903796297675
P 7.047665735702049 3.8369126072147366 10.40155543181776 0.17366490591873962 1.6824283501706185 0.2052694201978981
P 6.456934167202999 7.75658721030519 10.14745167456941 -0.21881270609997153 0.1831401923990265 -0.021186404269628027
P 2.0377451015693495 8.445011173145849 5.834283877020113 0.5339903586849384 -0.1591962799889194 -0.7700099155814997
P 6.721639960442273 4.036711126831302 1.4759107562324787 -0.4484592695906534 0.6806090591191634 0.052175910672606914
Ni 5.515765077047385 2.715361780848931 0.12719173758790547 -0.35318987016268205 0.7354954267443978 0.5955145433416648
Ni 1.1661785502474333 1.0793570117231441 6.8073162901791235 0.6791211617197273 0.1375110817060019 0.4139365532234355
Ni 6.848621001409493 0.8282520486192232 9.198504972950177 0.34950547933255943 -1.6596460621687805 -0.5011797399128207
Ni 2.752378997483345 1.4678016608613136 9.593903518746092 0.8301536749509316 0.07608279919719155 -1.5084849937795117
Ni 6.356381021330517 1.6536960198627444 2.5074278287836145 -0.06272720382589196 1.436838890197435 -0.2651784378487046
Ni 4.065009862609721 6.679509718055853 10.555597365916864 0.5745502823851717 1.0898973149373101 -0.07226034012730782
Ni 8.313307621714966 7.555335610545959 0.13667126916862232 0.04270448084706194 -0.3804998708315447 0.6942371914255592
Ni 7.573689829098007 3.659918364087135 8.242911337853336 1.7955332351181141 1.335299598600352 -0.3529291603021276
Ni 3.166079995851227 8.645272862057888 12.765787661592181 -0.26839951588916355 -0.8268487789474147 -0.8151813699118154
Ni 9.245313225220894 4.7252440706826615 10.102896604694916 -0.5559920597670102 -0.06865385372297209 0.23632371840054137
Ni 8.434794203392729 2.357259261439804 5.84709731935316 1.1477332521091719 1.0402397998111825 -1.1093788207006894
Ni 3.6685369456833223 2.673213374960727 11.560051728985936 0.9270040457127776 0.05200904607743947 0.4207844293832044
Ni 0.9235777386784647 3.48225207139355 12.582210965418303 0.09776156972220583 0.2939357124870551 0.5674681787274098
Ni 3.0387084395956667 8.41939155388047 7.752660261219635 -0.002310393300731505 0.4783776544166406 1.2830704660923065
Ni 5.898660776390749 8.032881317682225 3.471553768843172 -1.1265831003941178 0.12012785323254796 -0.18639006679489192
Ni 3.2931972630818214 8.120438478028738 4.044441513190285 0.349118785417102 0.4852854372800674 -1.2942197978409067
Ni 3.567520630515365 4.415792490800168 9.395094001801631 -0.2127860402899174 -0.6957579989454599 0.4790389421497234
Ni 7.475779472735 6.262693679132131 11.417985899787665 0.11805657252581604 -0.18174356916181603 -1.1414083383324085
Ni 0.7963233370094068 0.3626433948549577 0.31178558986165017 -0.6900254673370568 -1.7100916204138419 1.356505800364322
Ni 4.740746619454728 0.4096677927968947 1.2204520017510951 -0.3821111811827225 -1.1158484875854333 0.7395652259383972
Ni 6.34978767018317 5.846349891254775 0.06212462514950348 -1.292398685471768 0.0010266414923014576 1.890817289834105
Ni 7.928922515225369 9.000269422662068 11.312247982331133 0.3374968849074575 -0.5411251699575067 -0.11100506499567334
Ni -0.12012885991945989 5.083619042618538 5.75539615607478 -0.27070630964546927 -0.9074150678372566 0.1174994144707654
Ni 8.126305289104753 8.959828385941496 2.344506666837732 -0.2772294554759677 -0.052674961796212505 0.8310895565016396
P 8.330971627199249 1.8677074796247608 3.4280621719980915 0.5001173600865774 -0.421675573738906 1.0765234647335653
P 1.553333590758987 3.3043587349276735 1.6382861049497721 1.202756916643219 -0.08410464106040354 -0.31635213250904226
P 4.859363367850727 1.0955588553138693 8.148578283166554 -1.0049159276989081 -1.0837163829375789 0.16183834559745675
P 8.681781500642371 1.657982606283609 12.5032033653612 -1.535534027477504 0.9871825149748868 -0.5342071026814348
P 6.323323448084866 7.7890817149955565 1.2335406211361584 0.8425708176683618 -0.2563472127103198 0.4559308953773503
P 1.698932221054113 3.1415320231910644 6.091870485735414 0.35171688516158134 0.0527117285714189 0.35057171581354457
P 6.8611265723873105 3.974773585750167 5.980922367792335 0.060661836656431004 -0.28673302409102874 -0.2559432924036818
P 2.37832892350846 8.460422904408999 10.325139763465137 1.4077139478070206 -0.2784620423314882 -0.2547950377318515
