# total energy = -381169.5629433585 ev
CRYSTAL
PRIMVEC
9.24962667919273 0.00000000000000 0.00000000000000

0.00000000000000 9.24962667919273 0.00000000000000

0.00000000000000 0.00000000000000 13.53776361158903

PRIMCOORD
 96 1
Ni 8.35895225164065 4.091119068296374 10.75534734556546 -0.8667458722526685 -1.2972115334793788 0.6603222838456693
Ni 8.730537498634598 8.857016891943418 6.613333132195044 0.2946767044181377 -1.1782671590319709 -0.6537423166353064
Ni 5.1271142392895825 5.535549998419141 12.357311440180002 -1.222121694323076 -0.9288629532983874 1.782476659044472
Ni 1.0595724690438286 1.971224910458971 9.393827292859855 0.5141242158886307 1.7356283312323657 2.339365776704455
Ni 2.167501985639106 1.7651339815198288 11.999967843169788 1.014337478123124 1.2218167614881474 -0.9284574903298525
Ni 5.433526617682246 5.981705734579076 5.066454263477195 -0.9146424388236312 -1.0672494956308072 0.9306215878607069
Ni 4.473822366391477 7.8632185172259765 3.0762130458145087 0.7784665309892852 -0.43465193139391595 1.61402929277093
Ni 1.9725106085480397 8.356251360690951 7.117655144852166 -0.1301664684154726 0.8037918971279511 0.11303135139708276
Ni 8.96159316960537 6.36737816279354 11.16092497009414 0.7544012625099652 1.4348995070828772 -2.0909933546694957
Ni 6.522984630077018 2.959954489832458 5.96220659686997 -0.9576554520500475 -0.6594427094541934 0.261748329121233
Ni 4.566744114612949 8.724858227938999 7.051333472634607 0.3352481980825968 0.8947050764697559 1.356698118880786
Ni 4.93437052144775 7.939768426471538 12.572439254248787 0.3161947809955716 -0.3081302588198822 1.044287487517995
Ni 4.859050812532018 0.9540434798482507 2.5252664406568925 0.4449126898899757 -1.357609317841146 0.08500761249064714
Ni 5.142376123080686 5.816766394116674 9.741151694401873 -2.0942684258763413 2.8491731103852866 1.200025890865301
Ni 4.75631521055154 8.121273848067192 10.20691848875205 0.9940121363022106 0.8412821807639252 -0.6054276886903186
Ni 3.7106726790770455 8.246328798888843 1.096804990755544 -0.45167854785889955 1.2847612235311678 -1.3929277906367816
Ni 8.908361568867306 2.5577529789909015 12.768709854690341 -0.7674128442782848 0.7398423908591838 -1.7177367956639256
Ni 1.3604628203920757 7.424961962131254 9.637723295393544 -1.3424770901853977 1.0640811252051545 -0.46766181066103335
Ni 4.455868841277216 4.996407766651953 7.087682655011746 2.4574997394354257 -1.3522490819704969 1.6351581043297452
Ni 2.183152353744893 3.7234094148227115 13.291375726701716 -0.4734899873070362 1.020809716111029 0.8827553603070474
Ni 6.586714556938052 7.661410165374884 8.823061512914848 1.2908827630478734 0.7712733556749555 -0.029174821791743306
Ni 3.29391225606143 0.3452830089646251 8.976146532003504 -0.8430698687919673 -1.1997592674674755 -1.1509245053529598
Ni 3.0022622816267055 1.4517473847159568 3.9614605783457333 -0.18456406932974664 -0.39690608010371 2.4713261037955565
Ni 2.50612156364427 7.669873573659041 12.737113130429488 -0.6034767356115349 1.0235885644077467 0.14806083219739016
P 9.344435212098574 6.645384938081671 1.8227378807233787 0.3654823143767899 1.1646559960064393 0.22945424497421774
Ni 1.4064889620554288 7.313374467551935 5.058209146379383 -0.30436924911555324 -0.2910393647758665 -0.2541108671806333
P 4.890851028576754 4.033789883001064 8.970230470868481 -0.7125331615212696 -4.199231355352051 -1.383752809005733
Ni 2.2606734737771603 3.9066815150875187 3.027476763574917 -0.6504207084612412 -2.444551149694558 0.2799327133397437
P 7.047910185852129 4.201143375990422 12.681297184036131 0.4917103669698048 0.0686692803419398 0.13148775833005744
P 1.6840610048961773 3.288806462211315 5.471666527757542 1.4768928207955274 -1.2619200572669365 -1.1593662083624097
P 1.3997829828138832 6.27331871050764 7.802084035572085 1.7454669145893422 -0.6438949915275815 -0.09487962018872047
Ni 8.665309132274073 6.541909365977987 7.6888538073192505 -1.2330918201813343 1.789154842395596 0.6411279703054055
Ni 2.768191232403873 5.915099173864082 3.1985948545660814 0.3131799054286477 3.4038819325644996 0.4200876604264958
Ni 0.18544761242702967 4.48753031292385 1.3898137353290034 0.8942116817731051 -1.2320101570813813 1.4441426229477
Ni 7.138547276318206 3.251049486674778 8.445398336321423 -1.181888300724326 -1.315788782260934 1.0529243372573867
Ni 5.2275466842615845 1.040065006670836 5.0669407938332025 -0.8354046389372257 0.889264879290791 0.2420459655962993
Ni 2.991514215587152 5.643844625950197 5.72448379508912 -1.8503776937618197 0.4632132879713765 -1.6721825040728944
Ni 1.3283851155511375 0.5265766141125126 0.27494422394071655 0.07051250419826567 -1.5643128993824091 0.5181063404648303
Ni 5.265007671748839 2.967465186582989 1.4599397789424906 -0.08664977607976046 0.743791605314919 -0.43675123712510583
Ni 1.8691182830832163 8.445353013151376 2.68164155190585 0.05957348868825869 -0.40867684748639294 0.3586989729063693
Ni 8.251656583775919 0.30317685902895064 12.994316570666362 -1.6181790532732452 -0.24297799049226537 -0.19539561272761186
Ni 0.12847453775351206 4.309983731487343 8.68572028316003 0.21325732349938112 0.40540203338986314 0.40027191125214934
Ni 0.28448428875413745 5.026589298052177 12.766720260021575 0.1395096001932694 -0.6050096273162935 -0.3861295583134963
Ni 3.71289258944666 2.204555989558598 10.02943850462663 0.5947162158100855 1.8896932035319909 0.04153282913646396
Ni 7.252891159606465 4.967770922883918 6.8682491397885626 -0.7539852580184692 -0.3438112571612595 0.36682083068255533
Ni 3.5391013563854177 4.483293983968502 10.916581285635912 -2.034771298951973 -0.3568938013768305 -0.5034081150227072
Ni 3.1368535974111613 6.819749647988397 10.803920834377948 0.02641602809968354 -2.184761229851276 0.502320024164851
Ni 1.9643894364458645 6.11027554348595 0.7418746213096332 0.8059986749712829 -0.5259451197829587 1.0272513579713145
Ni 7.7720634476736565 6.521106955889386 5.315277542068774 0.9344918694493906 0.38323989547052706 0.5247066193901673
Ni 7.675460348089239 1.4912617892951057 10.906590764009993 -0.3340251243087731 0.027455525107791423 -0.3761971296911327
Ni 6.724866978940431 6.659398122289867 11.398918785932613 0.5834732959064144 1.806183772853425 -0.5556303055522174
Ni 7.655943636089706 1.8119278421860074 1.5138466024179773 0.3353613266216934 0.3057121362966928 0.44600155207878023
Ni 2.2939258811886862 3.8931030633267065 7.692427863014331 1.3407796478783165 -0.6627694598345811 0.29425067262431254
Ni 8.80736489667636 2.6897728985972194 6.81057771831127 0.6906029371070816 -0.6237604255612355 0.06590251623008005
Ni 3.3542660692353405 6.835020781406041 8.312146366459968 1.1947705560036326 0.1168538104669665 -0.0757110176800696
Ni 0.750805135734064 0.20865492541604758 11.478358278509289 -0.4906706128513808 -1.7302554969562265 -1.536390204830212
P 3.930545551560881 4.631362005621829 0.9853340414706295 -0.41734635023593286 0.6053500413748478 0.03311529449673006
Ni 4.827999816237027 4.669146730037986 3.1954943797498525 -0.1451554856251371 -0.5613620658296719 -0.7652261210396111
P 0.7294458981277506 2.4260290474338655 0.9134616683663787 0.7928469680806732 0.03148212976868126 3.083429404733838
Ni 4.1119122287584355 3.411974489218793 5.0618645987880155 -0.6520991246049286 -0.3791870655573921 0.48117398621485513
P 1.2672173352417015 4.262940130904582 10.970637953061349 0.8121135296197691 -0.19761653163833062 -0.3394802338860734
P 0.7875169034715738 1.0386683130632866 7.685685810229279 1.1528530898342404 -1.2051529276792212 -2.957043229296404
P 5.604811201951131 6.903569763694447 7.1454206738001265 0.11161724465837551 -1.2998029483556388 -0.7362788418776416
Ni 0.3429539530018373 1.0923531455018116 2.948443329603349 1.2290464464673672 0.5603606211483511 -0.22998466355639102
Ni 8.80901133020049 8.124057985655751 3.9246109911727767 -0.3787718323968445 0.7714340496225359 -0.0947711196353142
Ni 8.01060206651534 1.4861097473122906 4.773388171219188 -0.3732740425070668 -1.7071834456281114 0.1335248433647442
Ni 8.602716909477468 0.11388140196125478 8.964977607956378 -0.9677508886128366 -0.21675582357094283 -0.07012915271691793
Ni 9.386890997917462 7.489737096791315 13.16133245228701 0.3668354859705747 0.08505492078881481 0.32655015608796667
Ni 5.0109759284525515 0.8139847098159638 11.555686081346868 -0.2624816077428318 0.4784828125359373 0.39172582145435114
Ni 6.301141587140148 2.471139476069752 3.5546379540847615 0.16170567667433441 1.2451955454234038 -0.06691064577962025
Ni 7.319155484139475 4.3793651801643545 2.3107065536576683 -1.0930487160820983 -0.45856087680102964 0.510362177743037
Ni 6.5573192437937315 6.534629909890957 3.1586984404108276 2.377293404988164 1.0954735234735071 1.2125031973967053
Ni 1.020381801393582 0.7227241945210869 5.250039001119056 0.6247356449903112 0.44775967242046755 -0.065506566343242
Ni 9.12791070442224 3.2433260485138256 3.597091889978342 0.09226172294989918 0.005742558910732045 0.6663666902675363
Ni 3.643890375457791 8.339269046363395 5.101354029375506 -2.0756477254513612 -0.1409170220637573 -0.5547026515316253
Ni 7.706085861563388 5.898246354308088 0.44732026414132925 -1.5868257357729445 0.8759658481890398 -0.05564767127129127
Ni 5.824425084891845 3.6692436018041032 10.900660828435157 0.9679228954143265 -1.2633025394367599 -0.031522753198629586
Ni 2.9751701254908616 1.4533753189870078 6.573613385906707 -2.4972052855551636 -0.4127062803607602 -1.1171713201619144
Ni -0.06992532671756774 5.568987398361467 3.7292477790947993 0.7434668749856487 0.6590997242924778 -0.3378288143255795
Ni 2.6756949670032437 1.7482996612169142 1.896289061044651 -0.2980808450036802 0.10307758261848053 -2.738371676759987
Ni 6.3823163096557405 2.078687071601422 13.064375092006108 0.9406373202254962 0.12564749749919651 -0.5670503744637009
Ni 5.297751349700662 6.385979161765606 1.4968300644722234 -1.8876514905116137 -1.2319250535667428 -3.4491621445585365
Ni 4.793100975301369 1.919519498100019 7.5096136192632565 2.0454511472633223 1.7232705809979612 1.5763222651384594
Ni 5.968784006302608 0.6493959301994301 9.30672540965739 0.20169687235529132 1.0760133578663662 -0.49725880759185975
Ni 4.1569209115023815 2.920338339361368 12.586802999302849 1.207907864716539 0.1173222654629528 0.7888028799182867
Ni 7.166666140999998 5.465095593063481 9.301391150031737 2.5478652738038767 -0.6054474861846605 -0.5766066506935683
Ni 6.5034586684509454 8.498122132562436 1.2750138454523203 -1.8789678466946866 0.027973859505106658 -1.2185758859533464
Ni 6.766185060694893 0.5993119773729514 6.9682524020891075 -0.3495571585061012 0.6516525239858132 0.49976049096779096
P 2.910737227012783 -0.20821556815539458 11.066850718405776 -0.06967303901610582 0.8284377207010895 -0.05585464507577478
Ni 8.647919834378754 8.784814307171686 1.6104524768903563 1.3282609465860156 -1.3467032124516034 0.21630202386297587
P 4.410046191397743 1.147508668560207 0.337775087102056 0.1460671988061291 -0.853964147106968 -0.09332358855551025
Ni 0.6351949785724714 4.84609208574939 6.4119040150320945 -1.6128689539142416 1.2327490921299349 -1.8495420852344018
P 7.268948511280014 4.411193145088712 4.600416455069394 0.05437703208898377 0.6224584189203602 -1.0166090477661203
P 6.791575285547365 9.0190888481784 3.3025504822871947 0.3774937370153692 1.0005813048792962 0.0329366028270207
P 8.159530303436892 8.489427483614776 10.824862913827303 -0.9464523842453765 -0.9783281499080506 1.20274688934089
Ni 6.085643788009763 8.191876247447492 5.1352529856821825 0.6773753826732141 0.16345479815495723 0.4839065546546698
