# total energy = -340892.1521800642 ev
CRYSTAL
PRIMVEC
9.10640233618911 0.00000000000000 0.00000000000000
0.00000000000000 9.10640233618911 0.00000000000000
0.00000000000000 0.00000000000000 13.32814030827035
PRIMCOORD
 96 1
Ni 6.444127221043965 1.8310880115903068 11.503397434715646 0.3125715824206875 0.42270375789310427 0.11266368364501887
Ni 4.807943533230458 0.5428353600725178 6.033088818314885 -0.03537683683739713 -1.0579369599806299 -0.14464075077224767
Ni 2.947022948417107 1.6456270267733055 4.735647807095616 -0.603548983610367 -0.27725182407347093 0.0639765028519608
Ni 3.3478776616970634 4.233347774613981 4.803195455184519 -0.3958886945827892 0.49654018425828034 -0.12281054227103365
Ni 4.909516342061295 4.746001786263687 2.5212312636737866 0.904698697347358 -0.8722079238085044 0.39053848601446933
Ni 7.141021959631586 6.1253485097357085 2.856314077270974 -0.2649521807705114 0.03405426137123167 -1.2610641370245443
Ni 5.310453012959995 4.699622880456312 11.711156355672435 -0.2581140748027555 -0.0606446102652504 -1.1024610105349335
Ni 5.844598133524959 8.245337127400816 12.425957923315545 -0.12853973144532704 -0.9596256884025409 0.42712914065430957
Ni 1.735662024165316 6.493174302661581 0.5103382536000661 0.18862924053805577 0.15147448586462944 -0.5961359789757474
Ni 2.8746999030760176 1.589768356397803 0.4471726061933761 0.18969753390157007 -0.6523341234338701 -0.08535856807216267
Ni 0.7339113524137342 -0.10401423522921886 4.639552499117544 -0.5882560620070385 0.5948296014594981 0.5539053524413106
Ni 8.901653738307765 2.603584100268802 1.3671741958080288 -0.5314966457288073 -1.092832229195918 0.5642740972701443
Ni 7.119284977860095 0.8087231774440353 4.76177134275036 -0.6554461867002905 -0.026914822112973 0.5073277617920876
Ni 0.6683443467778267 7.680385048589956 2.5600290897472835 1.256684777009926 -1.1308570451791233 -0.40788057683734275
Ni 7.55089201097345 4.001216479122958 3.891364129518496 0.4079222287085555 0.10956036212934679 0.28776892155471084
Ni 7.567802599641091 3.799700907434093 12.584136127492672 1.0327406632206602 0.5084053111269825 -0.10498148450941275
Ni 8.224811297106328 -0.07543106037192712 6.870803137429519 -0.3619552750601379 -0.8964086894244239 -0.5875369244528269
Ni 6.85033649874857 0.8364148355374272 0.6437479547523568 0.2091193900716076 -0.1306745184001427 -0.6741373353518907
Ni 1.9635861618941157 6.391665238645324 9.396498359404264 0.42166194689215125 0.7482856365305306 -0.9181052005612511
Ni 9.144102587358528 4.919460533135642 1.6736283025375103 -0.17096833292318298 0.4079849636256909 -0.12875750388308793
Ni 6.730295906493944 1.7915571201491498 7.0558106234228 -1.1903695987224596 0.9246098344489884 -0.5859207290056426
Ni 3.474948396359561 4.431621467161392 0.3021713658299708 -0.08442242941113848 0.33549193866228677 1.3083073862822243
Ni 5.5488677258881065 5.49276318265637 5.100812709332914 0.4285118799344491 0.4038421451019109 -0.8927548947219205
Ni 5.157775075640843 2.755515312617169 9.526394810633034 0.06246520841375695 0.5788149711987967 -0.012971215448687337
P 0.2610832796326659 5.272852678760378 12.722242910839237 -0.18554057431040302 1.043740099654957 -0.8649003344034975
P 4.244147967484105 6.419995255524715 12.650123848904801 -0.27492754681566844 -1.1274107385017358 0.4030507595488672
P 2.4823869949496684 8.392860841141138 1.3343064587708096 -0.754432887078849 1.4150241083151889 0.7812361233146222
P 6.51244344946865 7.811826856252168 5.963049658616146 -1.1412209049119506 0.06571842524373198 0.3059926436515892
P 4.753651164013185 1.0472908779271364 12.632784348699062 -0.712198146779354 0.6790340013225596 0.7558649915396853
P 4.059697793298288 6.0560305770819225 8.20283026375902 -0.34366521850169846 1.3048376825660688 -0.33457276928212704
P 4.844733397644711 1.0093991388608718 3.711167555745525 0.6424569735294742 -0.22454600903932298 0.7905319467942515
P 0.10879236440203045 5.876297519174962 3.670169622928839 0.43375050262556913 -1.8859165100983777 -0.5986389479032593
Ni 1.4819212365319603 1.025226065680667 2.6340140534684724 0.7549833602656805 0.855425819254159 -0.8981439269479758
Ni 1.914001802553618 6.574713026910399 4.682042060595382 -0.11623494593604498 -0.14751652965814593 0.0825691782524836
Ni 6.02796464586293 5.685463757129146 9.435923616581261 -0.18089561933922393 -0.39800676936705653 -0.6162713162730419
Ni 8.736836967012325 2.068774212351799 10.360123257556054 0.0735525765761701 1.148077522822468 -0.032422639305079645
Ni 2.3203294634852982 5.321936185986325 6.857328394267695 -0.0788387646757739 -0.8910165718745752 1.069300464622565
Ni 0.5017390781133385 -0.230389240772596 9.128509695072259 0.6002690273075146 -0.22435343341254263 0.0797875017422884
Ni 1.6316213803700574 1.0709219913318364 11.756671974562366 -0.7603369112681099 -1.0867083756863671 -1.7700194071177258
Ni 4.202376901130596 6.871135521105539 1.6014163553018304 -0.09348376828245836 1.0147539968352524 -0.9300813990865207
Ni 5.483884440625702 7.934954518812842 7.952980641735618 0.13580644031006936 -0.3636941121281156 0.5347550047651047
Ni 5.266532835714959 2.877732334969569 4.8180161245741715 0.31429884952443937 -0.21108165600430098 0.19925355302112135
Ni 0.6720952737957057 7.306530817485313 6.834669844605432 0.6845284487782275 0.6728088463484542 -0.17153654672182717
Ni 5.140017591579508 4.347915419216883 7.366942688902183 -0.5353198761296394 -0.6649029612378161 0.22183015277005666
Ni 8.216105576715233 6.894775740912322 9.311052078021744 0.5119801729624344 0.23598458989356777 -0.5455148143847702
Ni 4.702254630658223 0.27125057755804066 10.519807660637662 -1.2905369496726806 0.5664515645374374 -0.16723123447825394
Ni 8.113403574026135 7.314799430576437 4.6831348288453105 -0.02747995058782364 0.9407360505868895 1.1071692146438803
Ni 7.039084894717439 5.6940784134994145 7.000725086584122 1.2385379308975701 2.4574508884753614 0.863235802216881
Ni 2.4963380029404196 5.3930845054587415 2.493188098460001 -0.9025148023221617 -1.012640035816043 0.6113358266446374
Ni 2.4259910468512844 5.202696957114981 11.757191950121289 -0.9763550853420798 0.6040356934387985 -1.404915302015961
Ni 1.0327206345947588 3.649927912379334 3.8819936417753613 0.19731057036213762 -0.007959364056392743 -1.257978299010369
Ni 4.046739383134555 2.521489885492937 2.3975991064377298 -0.5735969173329669 0.46485468022954135 0.20369281973939757
Ni 1.0984415384258646 3.257187003355096 8.341110068745158 0.7971083144601885 0.1806847888799985 -0.6321784744216017
Ni 3.5819030888212957 2.624792910719494 7.08518605526129 -0.646529343826635 0.043823167832537424 -0.15649430767672404
Ni 3.848747989051709 7.001056559619934 6.048923030256347 1.154186206823367 0.6598970233827925 0.3256582404013166
Ni 0.7398432627304284 7.3074050320852555 11.335236792575426 0.060409611436308866 -0.24048170643297295 0.6812153252445945
P 0.14385656562160543 5.554923483273126 7.887379942412003 0.3228230849453666 -0.48938069039536364 1.7935056631651238
P 8.627487290802831 1.4613589806291425 8.245280667707902 -0.2369634088670693 1.0659757711247062 -0.3964839049646269
P 1.5396649321385893 3.2996319434627277 10.518128440093607 3.0526008493887558 -1.747257945051494 0.4345758267403419
P 4.077437064555458 6.3645645860471 3.7567496513706597 -0.640512962429226 -0.4327032923079774 0.9372807450484375
P 6.9917771358976255 3.8170394969996218 10.230520032474347 -0.2731709691358779 0.15329662667503277 0.8191632373776989
P 6.432571196800973 7.834592861459008 10.12047007394469 -0.3194572537969273 0.07867138585997419 0.5840556507724458
P 2.4195710333829554 8.668274865731405 5.870552290100964 0.07387962089828566 0.08053363587969356 -0.45930495405590577
P 6.825967766775168 3.8698748418836564 1.457659049462927 0.621290109643872 1.2311323824621183 0.5640519539570091
Ni 5.342024908980841 3.075559813814926 0.0905850240778081 -0.05528206040175641 -1.3267671356493087 0.788081942591862
Ni 1.3035086069269965 1.2554176975280678 6.846971683178999 0.42167917328333177 -0.7490142871664391 0.6857898319891544
Ni 6.632657063362848 0.8386468146879058 9.264483759051046 1.063634524586039 -0.8715687475626086 -0.3768460761290413
Ni 2.78497452335482 1.688281414128841 9.424381251941393 -0.2618663427563361 -0.6027149177448459 -0.10692163895491909
Ni 6.589775015955245 2.1589275929708855 2.6801953503506515 -0.11767527792699735 -0.7508238295713521 0.05357021991697226
Ni 4.32264515343729 7.045131545700375 10.59673763479241 -0.8117479187502341 -0.6626920696294264 -0.7982624826692898
Ni 8.288774665335465 7.0669413786885285 0.421034500295299 0.19340789287362173 0.14222674201411636 0.09478963157807546
Ni 7.911277873397728 3.6210606177770606 8.150184332038307 -0.9858936209601343 0.7426055554266179 0.26873555907234364
Ni 2.908083973111328 8.277528258763287 12.540887092081132 1.1179503644197843 -0.14093090602082828 -0.6887856813926847
Ni 0.27314926239229115 4.818415895625604 10.149685233106526 -2.1032714007059004 1.2446972656307467 0.15507145918726842
Ni 8.728158565827478 2.6039483563521113 5.628766387121824 -0.9695403764130915 -0.48733434938929615 0.441610107879304
Ni 3.4872966775837515 2.9207965104188274 11.580061501929576 0.3056902819198219 -0.5537852819236786 -0.223752309493434
Ni 1.1144232740810662 3.078910969781373 12.693453931294876 -0.5823818626144486 1.5683590444273248 0.6600147799075794
Ni 2.9797786767087087 8.637486120289676 7.977491433581509 0.11972393292590992 -0.5053122740239555 0.5766035653697748
Ni 5.751849428312292 8.024789175359032 3.6830451648336195 -0.6220583552684641 0.0752081099017221 0.6529607012742755
Ni 3.0786833097293043 8.385120399370813 3.5230001482295346 0.7703241043878087 0.32139586558053684 0.23699863298037896
Ni 3.406486465501552 4.334538114557343 9.244064473660929 -0.512221599549279 -0.5019937511736838 0.8765631154534065
Ni 7.410844653343053 6.324705864130965 11.591602955929234 0.2560695335689009 -0.5798688663846078 -0.24585274093689918
Ni 0.3680142954489852 0.03163290891480004 0.5578654767100736 0.30734324414221265 0.5370916233180815 -0.5572665556040597
Ni 4.686300214209269 0.25313156933402087 1.6758265880002827 -0.28352865822111817 -0.551022888687193 -0.8974628417205511
Ni 6.170498051261914 5.784331964541411 0.46800441159784295 -0.3547585002013826 -0.1784736401612926 -0.3012502438705973
Ni 8.037201201397801 8.964843062359868 11.207326447640899 0.39389274719868295 -0.47603435099544467 0.42987482172024677
Ni 0.10570893665681605 5.082346747189541 5.806417721512671 -0.48679441772542614 -0.6393595655510731 -0.9086846785782995
Ni 7.931403022000574 8.942851101330062 2.7637766405866273 -0.6176609975317169 0.22076288784780687 -1.1378327051660082
P 8.782141317373938 1.7635458273426539 3.5227205816855944 -1.0960669340831317 0.006275034375434354 0.5965599538870435
P 2.0599227895273797 3.2795978588807086 1.6993511565006145 -0.4969446187855506 0.21860573229548805 0.03484281871079806
P 4.6247318297278905 1.0542481691183467 8.234778254185883 0.7357468806335716 0.13069688699764587 -0.16438399483744592
P 8.414078757993913 1.6290260557764775 12.602769647434364 0.8509536424154184 -0.5962257104760764 0.19619471159013954
P 6.385736970889462 7.770429152384049 1.3997077278888115 0.47221626280093515 0.6690558070639252 0.517441967407954
P 1.6424853180547614 3.2394204128916773 6.024745532726683 1.5601991343243518 0.9802454215354216 -0.3589383426106851
P 6.795333830168844 3.8531645940618353 6.044964477270982 0.9518385882579542 -1.1627382101584363 -0.7825180753508394
P 2.3775540941732114 8.526697632551109 10.223815899261037 0.0860944177969227 0.11315347879724383 0.7802565330101723
