# total energy = -340864.189057229 ev
CRYSTAL
PRIMVEC
9.28637954130513 0.00000000000000 0.00000000000000

0.00000000000000 9.28637954130513 0.00000000000000

0.00000000000000 0.00000000000000 13.59155514032966

PRIMCOORD
 96 1
Ni 8.438440173965407 9.172649195165407 10.648752645226953 1.9999094540777813 -0.47856431650615006 -1.5979293018852738
Ni 8.355392082233603 6.201082051092579 10.98582314729749 0.43444830002354207 1.258164703989562 0.919206918265862
Ni 4.876287153803178 1.4803324672788867 4.9808016403518485 -0.6694479002960212 0.4916453180598243 -0.9648676535277705
Ni 0.6953046629867351 4.509688750885095 10.005355129007981 0.3517919613738909 0.4801512013772956 0.2683846034908281
Ni 1.387431526913801 4.138168566840114 5.4037980831565 -0.8599476183839125 1.1525658976111246 1.137636787105118
Ni 0.8420498888800939 0.5056990812196241 7.837692212805883 0.4995933692623074 0.5549607902890183 -0.5809914100248252
Ni 3.4126423104583234 5.316805137419589 1.7511084348459922 -1.6626629946182332 1.6170151148721312 1.0011191796606371
Ni 5.578123856119461 4.019265763917827 5.883417296231252 -2.025203709868196 -0.13926251717946983 0.9803120131072989
Ni 0.4192401023030847 7.186023318379873 4.354720435958021 -1.3112417863201997 0.010508869951123836 -0.059301208863478505
Ni 4.944309883528713 6.071360616070598 -0.012622975633572701 -1.1783666607243124 0.9982423723334743 -2.1059985698290764
Ni 0.3459492094958709 4.555498460883193 1.8500826673940816 -0.00967197587212528 -2.080052796497592 -1.1504316248769413
Ni 4.430327351808724 3.594673921117701 8.204650927247972 -0.6070585394255222 0.34544365055835996 -1.9749962357758697
Ni 0.9602394978579548 9.092684181422527 2.434492172488199 0.0013197472526880495 -1.513546724573135 0.5544378279060128
Ni 2.7777418314678632 1.7414468856300949 9.007857748019402 0.8903907653651181 0.7110218670830658 0.0772927603448927
Ni 4.833207639373586 7.990910973838036 7.96814448589331 -1.0426332397440239 0.98465332079513 -0.6181574775521612
Ni 2.501462755418116 7.449756495745772 3.5738046405017014 1.6254095095834136 -0.5982681948274019 0.25181075829254695
Ni 7.241983041154765 7.221218696626943 5.120142835882044 0.48055280769108855 -0.7524865619857557 0.19365369033584068
Ni 2.544421546914406 2.387119564822824 6.514921746244151 0.901593318949157 -0.6781551982620321 0.6730638997820537
Ni 5.801832737906238 3.306601143122366 12.566942548399881 1.0516022760118533 0.6615389298615897 -0.17396675342987458
Ni 3.0833194347918855 4.604679126634242 12.325271022775821 0.0484264709325037 0.8656870919708509 -0.7445338827975823
Ni 7.460361541117316 2.0553079394544826 9.987685934762414 -0.46258233925559683 -0.5717992020025958 1.813250449892219
Ni 7.186840519774529 1.6548049650377068 6.792026381430088 0.12983145367355706 1.6322111058862794 -1.1695986847236952
Ni 1.4183087387004774 1.6980609206775077 4.521163001376409 -1.0224084280567165 -0.35021793201855167 0.1014834986584833
Ni 5.876495228963345 1.0646276896456328 8.591085965383355 -2.21115463224314 0.9611644936445706 -0.18079894586035958
P 6.57715256108507 3.353599509694507 8.091867848406112 0.1622849462165721 0.4151434290473431 0.38702070266919797
P 7.949540153233633 8.048867268202141 3.351201766511554 0.955284894935342 1.3600302685778125 -1.7806774010522044
P 6.122723581000555 0.6929747103740203 0.1347750827375615 0.3287386790988532 -0.7253981904093959 -0.5656848615747418
P 7.398941427205413 7.218237768812349 7.388206372521083 0.5792839404154153 -0.49669059379321556 0.7670132948470209
P 8.466410748973368 5.441864809940242 4.80730606971482 0.22433466435946525 -0.9651440471176089 -0.4760718891015995
P 8.180269537910855 6.813880946909417 0.2991579291862389 0.6710342709465347 -0.06811726449321173 -1.4366637980721517
P 0.08139604482147288 1.9233763461151407 6.48340284563508 0.8601635910494605 2.229509223490928 -0.6969908429112964
P 8.238987315392706 4.250933072923004 11.78605275480612 -0.2214365168760638 -1.0135111255670868 -0.06221092631110576
Ni 5.607440956152706 0.6344742341721115 2.376183924341624 -0.6823491817387216 -0.3085092394258558 0.039096708891145575
Ni 7.785356963943876 4.511815331787095 0.35620322972289287 -0.3392400928508093 -0.6019276459568602 -0.48109916711286177
Ni 8.769239583969915 9.334390066650682 5.773869592001866 -0.38914083433599433 -0.08325103481085662 -1.1779303445178422
Ni 3.586594770965999 2.4372288685223444 12.355334747719636 -0.026742043980534588 -1.1586064473782498 -1.0554298772880597
Ni 4.019711510133093 7.751888852280965 10.075582445223187 -1.2866142175795068 1.0276599062636431 0.19861129145143214
Ni 4.838705176028538 3.02345014625393 10.395255843967059 0.12904135367209388 -0.8448794111968805 0.07772701966883389
Ni 6.260338438584543 2.6227614442474594 1.2471217620033495 -0.2665984581246828 1.1573805453909487 0.2316311980208785
Ni 5.189479588304666 6.460849944418502 5.98525916276422 -0.03355855268173576 -0.6283819834936468 0.7281466996888104
Ni 6.327209657253974 8.800163227654014 6.446718860756612 -0.8800963254176455 1.38765805759741 -0.31750038718087253
Ni 4.5752227309087266 5.595164362473913 10.261107591844715 -0.210797806215295 -2.790671000384336 0.5254884918615145
Ni 0.739413108263233 7.875211971837976 12.03048326377509 -1.201675253543266 -1.3317239654339517 -2.5730687696526977
Ni 4.0987757450659545 1.3326326015744994 0.6613443732111335 -0.23673689467856002 -0.2947684928009956 -0.15615440783880205
Ni 0.37815994537655234 7.569002894708993 6.8526172216540076 0.17892306899388538 -0.7371728144468207 -0.1526350818316339
Ni 0.6481827875674473 5.167944474279612 12.88313634075083 0.18408687258301198 0.8979546937553051 0.438669022973109
Ni 7.95339400071979 1.1800295275021826 12.424977950665255 -0.8092364651822902 1.763315255624673 0.9779782227677997
Ni 8.839760349776839 2.9624943513162623 8.543638138044154 1.2987469962872986 -0.04255201442959768 -1.7591760366453189
Ni 7.882511066112962 0.033083655552244615 8.257644580415445 0.738970786887508 -1.3861117961562128 0.8553522857037461
Ni 9.004955754430428 3.3932059181968155 3.977446411184311 0.42378670654463785 0.427540002939483 -1.0613572985160882
Ni 1.1605652761022207 5.363599203643067 7.511142250053581 -0.2858418797353271 -1.4556030581788157 0.2886641796754706
Ni 9.29538727281488 6.710300670136909 8.895251110387752 -0.41563708085431 0.6508809359271113 1.6857841540167289
Ni 2.2876902996799835 6.448833369365281 5.733420908880294 -0.13830683813441988 1.7745373495927375 0.42764876060320545
Ni 6.945403939551432 7.404717555244906 9.532423966438122 -0.22982988314608158 -0.030194264195193162 0.8537085794527363
Ni 6.09100130868077 9.311731300707978 10.613727207724455 1.3052004652221263 0.8385735235835108 -0.8471705212239021
Ni 0.9332718518343435 1.938968177269977 2.1203776005038786 -1.224899514178529 1.5767686086472588 0.5447239430523586
P 4.4761277754273365 0.9763977981613585 6.9591886412585415 -1.0742763205706014 -0.7003823850913486 0.6422284024584359
P 5.167675169274555 7.179968598955839 2.7068672546025723 -1.717061623973772 -0.9232358369195971 1.1836754745317355
P 1.9104589922519026 6.406181028391987 10.311899444436362 -0.30618727616089847 1.0437411280962219 0.9830695212477779
P 1.345466378022375 8.548623066551547 0.21394239648270286 2.4422816369340907 0.8453964600426149 1.6794445849519464
P 5.481526936719459 6.753640203192072 11.71004931055142 1.2262226038653268 -0.5013376056469238 -1.1882875193824503
P 4.161347370033962 0.7372865273612335 10.675120391135852 -2.2687018345299896 1.6141673610106908 -0.16577650430959834
P 1.5752764111306101 5.468860315102308 3.1817968460375425 1.9935596006003535 -0.4131703644813723 1.9252762428429229
P 3.4814358096810896 4.876584317946688 6.243566308597199 0.8997287549365923 -2.550821271108407 0.6977922557666691
Ni 2.2091461019982663 0.548800882959979 12.117510569116092 0.3534132990273978 -0.2798447816116277 0.20388976624155206
Ni 7.172790227614155 8.086040645279454 12.257801761267576 0.3883808162415182 -1.0540970174092492 1.3274536201933718
Ni 3.48141723692212 8.492301174976753 1.767976214542028 0.35362644347946837 0.09593917180148638 -1.4292091415663193
Ni 2.684553013338751 3.4451074931368857 3.7426653791379083 1.0572512467675148 -0.11224587938130992 -2.3485736684559684
Ni 7.814544054664335 6.126512423830318 2.245501349042976 1.3066644513621624 0.4542460514757596 1.0267872738507025
Ni 5.773695008067553 5.853687880948885 8.295605442473063 1.0564588327732063 -1.536641915829702 -1.122576807448202
Ni 6.471074248231173 5.110322489576958 3.9386562754387096 -0.007398349346600161 -0.3537413717907779 0.6513090246034654
Ni 8.62662865422315 9.07133479498717 0.6421856436962186 -0.8785423506669645 -0.17207133617937462 0.3478440324697364
Ni 2.396721681210019 3.2018322097758145 0.8550053168992193 -1.2342567870237129 -0.06725465938260031 -0.3710238130203094
Ni 4.03365036573965 5.3657257845450665 4.141564595817674 0.28441620303239407 0.38269559293128286 -0.6981519530989331
Ni 7.114722496696234 4.487373580983326 9.929718496742927 -0.369689410479602 -0.050918641226738115 -0.349936653332707
Ni 6.873397353026953 0.35171326524203333 4.2487879192620355 0.7958582441031713 -0.2735736038909353 0.3092029230587707
Ni 6.992476597159451 2.705558803733176 4.585954071041264 -1.5100718786506575 -0.5709013727786749 -0.7935159691232397
Ni 5.820433356014122 5.203520594085555 1.6739219058449404 0.31725278994644074 -1.5753935826766028 1.8926887958252052
Ni 1.2028647346550962 3.028102622375772 11.938672544361507 -0.44883285087998837 -0.46238744963597145 0.8349076446961492
Ni 7.8556455702636825 4.053151762657551 6.281744471934758 1.9842280387867826 -0.28542099014782457 1.3075139438466514
Ni 1.9978623959620374 9.028208848660155 5.7029346536699235 0.7262294280614396 -0.5495568456646277 0.12766247104669626
Ni 2.66229356171389 6.731492188121028 13.101402475521615 -0.19070720611300704 1.3988870935440103 0.3542640770634673
Ni 0.9485479460866991 6.85267015401707 1.6349692584583562 -0.555741634319101 0.1249684691543009 -1.125101887862901
Ni 1.8119119331601103 9.083564956768539 9.686633584161292 0.42516224673592584 -2.0030408006179115 1.9690114789473443
Ni 6.294010850596118 7.91447478429935 1.0727374848496343 0.5011519719986788 0.15977272131767967 -0.6711319728666635
Ni 4.307654278815642 8.33155394609634 5.059782297869346 -0.05429629944971939 0.8373517353612676 -0.8357242270601736
Ni 4.698025813214595 8.557742291205537 12.200594877727886 -1.7872226583698896 1.2119455251210225 3.81244333751895
Ni 3.390707882115427 5.943134288145657 8.189632065707343 -0.6609146660140295 0.07993559728437846 0.13887170949895436
P 5.027617993886088 3.138889129628418 3.4290271984211538 0.13895938411675424 0.7313348676088051 0.3469001804992284
P 2.834398032704108 0.39816187814867937 3.4875518192097226 0.5622843205336252 0.149428144858562 0.7762600102562696
P 0.03888299954044895 2.6005855700379605 0.27271867815530765 -0.007079018333968453 0.3730287592654801 -0.12754162919811585
P 4.33540198071597 3.913986079699616 0.533904601628548 1.5469638665810004 -1.0960751616132478 -1.4028501919568164
P 2.4857409149504943 7.877589284986063 7.7732688837686235 -0.4764675818781213 1.154699913234992 -0.5997771752727606
P 7.653982553373617 1.8258415023871823 2.7171964945034204 1.0658850111831129 -0.22430046868742015 0.2804983560352266
P 0.6027473186625836 1.678522378241668 10.394155407998118 -0.5429329125902068 -1.1982687989648781 -1.2186522477172366
P 2.837648265523758 3.8882070902500483 9.660143258043195 0.1507684609365403 0.19078511053879402 0.5513121377928377
