# total energy = -340866.960554091 ev
CRYSTAL
PRIMVEC
9.28369687524979 0.00000000000000 0.00000000000000
0.00000000000000 9.28369687524979 0.00000000000000
0.00000000000000 0.00000000000000 13.58762878738727
PRIMCOORD
 96 1
Ni 6.674281927153952 5.516762723449343 9.154882074906173 -0.36622047809439506 -1.5850123367132896 -0.36740652798269624
Ni 4.526814252137026 0.15626040423309412 5.940837364463953 -2.3303617734336317 -1.3547247972044991 0.8774542598091081
Ni 8.962174804285327 8.629837016020547 4.865376759297597 0.9354917714688147 -0.19173256205372785 0.18920105388112576
Ni 2.459799096062571 3.7567594299905727 10.865795963286232 -0.6289455693066007 0.9077655091981398 -0.3494458297392175
Ni 9.271201229168554 2.8742140502597753 11.796616567861344 0.13217321443285623 0.7099522881679708 -0.6938324997879728
Ni 2.940824576847848 2.072659643902406 2.735964018372446 1.0171713480274933 0.2164038395481628 -0.3570280129618496
Ni 3.699618274429655 7.672149392080153 0.038476282570629135 -0.9153708323492235 -0.46489118989443157 -0.07495717023318058
Ni 0.04862243511531259 -0.15398218496832575 2.627072750148129 -0.06107038494875935 0.16352138972683453 -0.9772266893137556
Ni 6.655008972004566 7.845067533993663 9.106306986645995 0.38413618203255134 1.5608262263853894 -1.387633889227694
Ni 6.230112723797895 1.3830109222129965 6.858776839333011 1.1932723741915514 -0.9569098321332745 0.19528736928452176
Ni 1.425465268984739 7.644019789911254 1.5375621978126601 -0.9640024773139978 0.09587746532561552 -1.0547019979830998
Ni 9.070292740542426 3.619862032768592 0.4720230797215199 0.7863024820939362 0.4343788802381874 -0.07405754123704665
Ni 8.959872447408136 4.604917995716879 5.380076066151203 -2.659628042901181 0.29712388040704957 0.02571206005412346
Ni 6.8300345131564715 3.605890068654997 13.095322236841412 -0.6329976278887872 0.8715453505238409 -0.33042686543455346
Ni 1.259045715031042 6.7497305333673685 6.564699951866477 -0.27294214095452346 1.0953475394186039 0.5870607561473568
Ni 8.276527356039745 6.900274965304954 10.500397072960762 0.5987358784924399 0.7709249711966013 0.3440007474642463
Ni 0.14385367144810465 7.568329807573615 12.970152934147473 -1.4914810030223475 -0.47089368733476966 -0.02123037013368602
Ni 5.934055623743035 6.870901347726603 11.00807233459952 0.04585639621248232 -0.3414319582958055 1.8735392194799476
Ni 1.36516765641477 7.6274112558253915 10.624249019038276 -0.16352010417525387 1.5290448202087346 -1.2011407211960345
Ni 1.190411342478343 4.472783135099733 6.929446198286841 1.4976639919046077 -0.6156863903038494 0.6609257217576231
Ni 7.217601015382567 2.667902449929919 1.7162538709436077 -0.6006734618347849 -0.25379205038863384 -0.41022053782442897
Ni 1.1710269829639326 3.611014669446163 4.262085916266711 2.1813326637857013 -1.8922283112490184 -2.0654751557937328
Ni 7.25818005534305 5.05988413878331 1.3357754714422496 -0.42452949824793335 0.886711516741318 0.8693511710859996
Ni 5.630023827891779 8.770280785529168 12.630312990267944 0.482927221460536 0.703016480280086 0.30766566047863786
P 3.7373565030819913 7.485352123023903 11.47430424407914 -0.5742885440833528 1.9116452823230494 -0.22141157717539933
P 2.10035291230829 2.4811515993590962 5.78421303930511 0.7375376539854073 0.3261907158660189 0.6218642369797871
P 7.766648144712904 9.104503164302294 10.633461231656161 -0.3817802802058651 0.8289840801228627 -0.7454599941562774
P 0.7415455167667584 5.4160253263751725 10.396085452508695 -0.8583455640041152 -1.286554825096481 -2.2237080434281187
P 3.779235260634436 4.085745803607507 12.87366747033844 -0.37870164128054135 0.3723893259092683 0.43147636187941174
P 2.6457515486840455 1.8624396070995761 10.03659749211753 -0.24753449951469628 -1.5071233375452946 -0.8799407736763877
P 3.7305051346329328 4.518616747610578 8.638199770355117 0.8969997860412036 -0.6691275408421251 -0.3309940507919332
P 6.000721852513619 1.5573587534776643 0.25339665520781957 0.06650209748729193 -1.7787120497957172 -1.3705188268139623
Ni 4.027843384885584 5.507414040484298 11.243790045447524 0.11020288080935214 -1.9748877352224632 -1.3435279000474154
Ni 8.057218579790264 6.59976169064908 6.049470545909294 -1.0083699476857795 0.5142766823060949 2.5839728181597112
Ni 5.289878450378138 5.749820655082368 13.273048405475473 0.49407012545123297 -0.4673496787372532 0.27707056130060026
Ni 5.4086912056776715 6.59943676125109 7.132092595007363 0.04117673134862586 0.6328613594212391 0.22897499134495405
Ni 0.27665138803715217 0.9696914442718746 9.313137545642928 -0.11233612510227105 -0.5299799519739647 0.04962331945408228
Ni 5.595460623642665 1.1527473834026902 2.988517713884907 -1.0463443700470239 0.43411842748794915 0.14476699193746678
Ni 4.508469666696185 2.350957031432807 11.913293144461516 1.3127492241036616 -0.3714161633627216 1.1394311600013796
Ni 5.141265027434327 3.786894310729929 3.6474355414820745 -1.0600658333981743 -2.2636151640357016 -0.7190989876642455
Ni 7.944245269957478 1.48810237322024 3.4791527495233283 -0.1896175725932541 -0.1893506920851126 1.022982555392632
Ni 8.979804545050587 2.26069164467102 7.193874670741295 -0.9640556991494365 0.15740396397518697 -1.0668910838501238
Ni 6.5599903323350315 8.476377503198133 5.4577564731439585 0.03363285756309691 -0.463744220774182 -1.2846601791769294
Ni 5.594495119145779 3.4657619448472814 7.517505279509635 0.4692821198732757 1.4046517639419294 1.4017546448997924
Ni 0.2014404444691235 3.4026513720604226 9.341046195821196 -0.175161287958608 1.2858305453359469 0.5148695786950874
Ni 3.1961912325771986 6.706849136529695 2.3056442343284558 2.353391658669902 -1.4155570980005234 1.5141846152674503
Ni 3.438170797109337 0.3619351429428893 11.439927642141443 -0.7240684158543789 -0.553780139717356 1.1930278622809132
Ni 5.545115134348293 7.355194689885957 1.4735780291300606 1.3250174999480535 0.35762707999842924 0.5644509891676408
Ni 2.63084193116482 5.344494440331815 4.869507076130913 -0.7255784247410021 0.8766664738004901 -1.5125288248315822
Ni 5.191573381940355 3.2096525933510947 9.93485281390959 -1.766958765914531 0.06178875117202262 -1.7395248380732946
Ni 0.8391357405289621 5.427917742341628 2.774240701455738 0.06598196331776378 0.10970048725163688 0.495082111655515
Ni 7.18233225015496 2.3235886924249134 8.873251840122096 0.9568784646747067 -0.025078797345498744 0.8703780696886171
Ni 1.98618200555148 0.42531308620580904 6.523108060553973 -0.6485065221576638 -0.19388277562751124 1.275811470537048
Ni 4.855327157202602 3.036056741550348 1.167307933911503 -0.9192683676314167 1.0793208249730444 0.039854412992776526
Ni 5.605570569768715 5.764544598659885 4.955694134763062 -0.5580430287587679 0.711208272062259 0.4390415758211794
Ni 1.3675164317773878 1.1307357376130989 4.217912228794744 -0.342826524650487 -0.7227710371991939 0.28289231018869987
P 7.6190280773572345 4.491452649938564 7.303581975939422 0.057041209184708216 -0.35611732822212216 -0.45901621917089336
P 4.996114423503384 2.003431114736238 5.105973052964004 0.12074440377062431 1.3702887130810273 -0.5359695938984964
P 0.212931804721488 1.3432581312931187 -0.15270753335849407 -0.5383689473686083 2.5866009998111776 4.187298094249575
P 6.576840242545115 4.18227768590197 11.043589902909018 1.4895776153520475 0.9644812167226293 0.4829099950693554
P 7.152271638992287 6.981433045225918 12.916902576035067 0.4256343012763379 0.345565777958521 0.6939155464200822
P 5.25948362612039 5.659341743287616 2.8375453035116824 0.7997763482106549 2.1270497340724206 -1.3319651349104802
P 0.7863941290168374 8.30552034203759 8.341689625882488 0.7361472013957838 -0.3638218959552315 -0.35148882831117534
P 2.649975630857923 9.121789408275394 2.6820758702702685 0.03652740550207258 0.16875487021163196 0.11959897731227144
Ni 1.8047971318960447 9.133022681748782 13.408979369830858 -0.19066118336642002 0.021393120963795413 -0.19876504342047704
Ni 1.6191603249754754 6.032323557392477 12.118589108330225 2.4616081051768446 -1.2251201148297675 2.95241190117198
Ni 0.3214331576682159 0.46622448252195053 11.730689321378764 -0.2693227990343813 -2.1396067448018243 -3.8193580623609127
Ni 2.357845534670208 6.131176363958301 8.732510992306741 -1.65178748535631 -0.22746343979643405 0.040666881591742865
Ni 7.1852101962514485 1.6830692957116826 11.905657303608738 -0.22801802674832342 -1.6762996115650612 -0.8115985376565635
Ni 4.406302580270857 8.33194174394277 3.9279526609856057 0.9742732631123867 -0.5508593665261351 -1.2764488470107307
Ni 7.851361880617595 9.146019857668406 0.5664419925593354 -0.7847395084821904 1.5367704709877663 -0.5325523406868312
Ni 3.9293990609915186 1.4454437851126178 8.189332087904114 0.3234591758674687 2.0109361442055884 -0.09119651491017841
Ni 2.249040604828786 2.27600046116492 12.764205254743368 -0.7108424040824081 -1.048624167220136 -0.7696551033452422
Ni 2.9427184510532785 8.844011907781777 9.322363683806444 -1.78739929315707 1.3345642630962242 -1.0467894280042425
Ni 4.330826122966185 7.12138477878901 9.224546009465648 1.3372675209600002 -1.274938066793159 0.2859555224950559
Ni 5.606331832929722 0.7046391073732781 10.206619120540381 0.34480036054740615 -0.2310827817165762 -0.19656520755568083
Ni 3.689480477212349 0.7540450865226023 0.5017206983281517 1.975944972842384 0.83880003777202 1.1870402772389104
Ni 8.374721020112503 7.195106617344534 1.6611421315655688 -0.762980519538544 -0.9178231505444581 0.29027369025443556
Ni 8.032124746568305 8.6951199739254 7.31269856647733 1.184880036362798 0.5237378277189948 0.4016441090093276
Ni 1.9130821747006819 2.5744063365823964 7.9165195086117945 0.7498285555376183 -0.28861430027414164 1.3899874770615352
Ni 6.730559698885923 3.4900295290286363 5.277054879594012 1.112601184292729 -0.5519780535116107 0.7004029539166389
Ni 7.689844118725013 6.114335737445303 3.9106552765760036 -0.8381503200031629 -0.6040675751179984 -2.6844222191267257
Ni 9.027754840496915 5.829344804316295 8.32235446996263 0.1835399989406065 0.6091671011280929 0.668111697983101
Ni 2.4077175554132215 3.697919357863019 0.904578378023685 -1.0110773193146136 1.0370655158482591 0.6093157108908152
Ni 2.2347808461055414 8.074885455343868 4.881315010453891 0.02729765937368847 0.2551429079895735 -1.6179304275975488
Ni 8.604808168678185 5.2386324424664785 12.085652407810482 -0.9029153801946901 -0.9522972730619276 1.3976822746026316
Ni 0.5459751539647621 2.2034205173509065 2.187866611253951 0.4630009148502542 -0.3941179758356116 -0.7673020297320333
Ni 4.093451272188427 4.000911379640705 5.9608520870104655 -0.817054161454496 -1.2174479429964904 -0.17945065936258128
P 5.011154012781807 9.043472139662574 8.267528668454823 1.183204448432588 -1.8034861714166035 -0.5118729579606088
P 0.3656523352559017 6.757231760612408 4.46092692555191 1.3738790015354467 -1.575039541771294 0.3304780303874631
P 0.7843071539120291 5.575379986846846 0.6860568592870502 -0.507400524011552 0.6691776773537701 -2.052049626416447
P 8.031447036681069 1.0024164764980703 5.502133473582098 -1.0981664969246379 2.0171839248875134 2.908886724195835
P 3.194204521400913 4.437922852543885 2.7234774457925215 -0.41122892448428533 -0.0478788259591498 1.4173404151531912
P 3.472631880690511 6.847887062651783 6.125465961881043 1.1787448699993377 0.09116514745161072 0.23030887966502914
P 6.887138533929048 8.702890428385919 2.845330611887537 0.47222706143421256 -0.941804858171036 0.16933516819513417
P 8.511042828115185 3.6875958867040035 3.1611759122800236 -0.42678358438943276 1.1137730931136431 0.5521732002415523
