# total energy = -340861.4249765576 ev
CRYSTAL
PRIMVEC
9.38233249673562 0.00000000000000 0.00000000000000

0.00000000000000 9.38233249673562 0.00000000000000

0.00000000000000 0.00000000000000 13.73199198967734

PRIMCOORD
 96 1
Ni 5.191985799770161 1.9148496308332843 7.393935744622494 0.6380184781421463 1.4968738919031446 -0.1847353048002883
Ni 4.2853428592372 8.77735035737746 11.275709766597034 0.23092105932773135 0.7119929727470835 -0.8222472756196614
Ni 0.49934931725111986 3.3682667649175118 6.66756869448491 -1.8226748285299128 -0.9613264731437314 -0.12163143436126794
Ni 0.8116524529445407 6.287917299338365 2.4611715959560243 0.15799351793006983 -1.9730468253589826 0.5855533183638948
Ni 0.8943661584017297 8.328340068914036 2.170753689150118 0.6458071209486297 4.94409356802333 0.6730638997820537
Ni 7.938138240823991 4.615450847395611 2.7079213124116097 -0.19724089346646675 0.335966307195544 0.8267040258394344
Ni 1.0962974105373426 2.0166667035792787 4.384858445810637 -0.17586165645974228 -0.5617333331261617 0.36272609178789145
Ni 4.796520483124043 2.304694930286733 11.528185520603014 -0.26994886265415446 -0.5239615136940265 -0.3190978135749795
Ni 5.968936757574789 8.454363559618441 3.0541190626463295 -0.36259445130603357 2.304739701990153 -1.392076241269764
Ni 6.652439683260903 4.742224924703376 4.9610115372507275 0.27079732669737877 1.679272063929824 -0.37594001937500415
Ni 4.718253065058517 1.1049479211410844 3.287012950403861 -1.5354612652580395 -1.4810955460229653 0.2774518558994189
Ni 1.0592934909916178 4.360213872922514 3.628871371837897 -0.2296211095693852 -0.639785340234582 0.9545269337233948
Ni 6.1803676214091965 0.17344179937177087 10.105345408273227 0.15239751189953107 0.0936568035252129 -0.362711179389556
Ni 5.626209532147362 4.599960616368737 12.067139539980506 -0.19509556498868982 1.2321184005244716 0.12165945938572598
Ni 8.667774095619215 2.9037756277597566 1.3125282757002472 0.4220488979179247 0.5509177305678964 0.31312077005593814
Ni 7.392724485491319 2.9829906614120265 11.226067845117207 -0.9701397005599873 1.7653806227941338 0.7617718439424235
Ni 3.1167451941310556 3.0863558190274545 4.309744429712484 1.2928738253359735 0.34769773669985926 1.6221367523694126
Ni 7.263285825741619 3.0426716787118115 6.382712634409912 0.9423915839124414 0.5210651659828381 0.38411278499378365
Ni 1.1117594945665905 4.89969799408863 12.139754102689464 -1.3340217603291928 1.212050683240319 -0.2489689179683777
Ni 5.650444097103398 2.7367607261792686 4.586622692427001 -0.2862871948028618 -0.4072719967190664 0.6919391394200018
Ni 5.344805232214574 4.588551699997641 7.956247080863344 -0.3514052674584335 -0.23331604192246916 -1.5938417620794616
Ni 3.055750650275387 8.74389295953262 5.380098752537888 -0.20295491313210853 0.6853560868858455 -1.5565018879784227
Ni 6.6172184068981625 5.161755924319775 9.626702898942343 1.7290679044060284 0.2580045458080847 1.881109832738354
Ni 7.030913595673424 7.649969279128407 1.0641854391790269 -0.522030872330217 -0.7193892652111546 -1.5367043936365212
P 2.486524534951069 0.8262926446431077 2.6637596113695787 -0.4998959881043907 0.13594270877761747 0.23764166588101657
P 2.4283822201881753 6.32827071160159 4.566066001827437 -0.10897543616015426 0.31218360295364944 -1.4082893606945166
P 7.370094299399969 8.68605087941107 8.433612654735258 -1.3111116885002387 2.3752192960679546 -0.18992250542818256
P 4.331757258322569 2.3301585808057736 14.006083000781695 -0.5147091418578232 -1.372303686628527 -1.7010251393361997
P 3.045486378474418 5.878566130530058 11.148358675837931 -0.24406659557075383 -0.8002440318756927 0.8213196215990693
P 3.7231722579844804 6.910679004147445 7.428898068607075 0.820059009719091 0.13469006731743902 -0.9917649921392467
P 8.399870972214394 3.891481921455766 13.10439862299719 0.8100378780376629 0.5951674444148912 -0.20564402992849745
P 8.497034408019546 3.0555160919618363 4.478799050387606 0.19372388145214378 0.8968002684358878 0.30030742034135377
Ni 6.511714077463154 2.887394075141391 13.461540864142176 0.5045126609407957 0.23299388269636004 -0.7491556978403098
Ni 3.4272159602790198 7.513278076323727 9.408391970654874 -0.8674598676005577 0.8595863783897518 0.9068064877189802
Ni 8.403098494608848 8.05047290834959 6.662666425731705 0.6579080179772218 -1.0435590939924027 -0.9714080257494495
Ni 1.4249792841493665 6.3855217047729935 9.783796922092899 -1.5662728513222572 -0.9002062087936432 -0.5758877702496727
Ni 1.4876063538673463 1.7158785046146785 0.7649012281209122 -0.21704250157342622 -0.4997224386410039 0.433322413949215
Ni 9.017481776457904 0.18396033238462883 4.265335035091343 -0.9359214028070655 1.524247398820091 0.9400667924340069
Ni 7.951254741717735 3.235112701481172 8.753252774476538 -0.028338184823060872 0.9864299530795786 -0.7012863849628567
Ni 2.9773987912169826 0.3511028336876879 13.006751058832869 -1.1238145365100454 1.2368674851736827 -2.132858370334398
Ni 2.1488637690963324 4.7779997586860965 6.0745668102658605 1.0420891943150956 0.8669975832521585 -1.580780300909813
Ni 3.2321385020653524 5.6142658228213715 2.485325472852199 -0.6028501577711295 -1.1848892923341787 0.4893979167865443
Ni 8.000605810888757 7.809816078646793 3.1631502108838836 1.9008453634940683 -1.6299207671902058 0.8001990375703704
Ni 5.6586442557451235 0.6616702378608351 13.551951835216837 0.5341983609306864 -0.5295688325784751 -0.9586417272227169
Ni 6.6617938688052964 8.16109060902 12.194819012378575 -0.7879155922173268 -1.3520084267146006 0.15724352713792275
Ni 6.424843060456596 9.022595147693306 5.185694945800738 -0.6629057283021292 0.2794573163652219 0.7273949091244504
Ni 3.0567733245224673 5.737605966418759 -0.0650505262135832 -2.4715490184396405 -0.9293787165925413 0.06300616851889149
Ni 8.999880520609077 5.551619988438307 0.6822757165896182 -1.769737614211249 0.6196016661978555 -1.2825680725345912
Ni 5.984079842297609 2.628479226311823 1.8995329729584376 0.425418585721106 -0.46144925409241827 1.739089807418405
Ni 2.6867435113977636 1.8314313122021897 6.847471168045115 -0.6936972597616892 -0.715095265821491 -0.8465066623876584
Ni 5.618365902142234 7.273869096849017 8.853290018739312 1.2627744348474317 -0.23609231911602563 -0.5756777111213957
Ni 0.16970950748655556 1.4863866506368837 8.318840457215241 1.2791513335435583 0.5072089768260363 -1.5586726703774962
Ni 5.897940647229328 6.128173705477942 2.912884934424803 0.06948046338932551 -0.6097060043506983 -0.39355670401550286
Ni 0.6837543721982405 7.632020876975524 4.477302568347154 1.446236015141619 1.1297838667196025 -1.2919945080548134
Ni 3.9351472971063246 9.328862628862446 1.1186742736500588 0.050912727689467155 -0.7654004418339463 2.7223567893889697
Ni 0.6184439553732433 3.215240921157175 10.225870852108008 -0.02213051335045221 0.5974217876667066 -0.41615464392067686
P 7.433293691403011 0.6665171508520423 12.14604308019238 1.0008191319217152 1.6509680747788082 -0.3725672462480293
P 7.000636808560328 6.921919038532785 5.261481675142153 -0.041192929298541965 -0.46576613630021724 -0.30368173613022537
P 0.9009703822780571 0.32862276491700937 6.426613506607276 -0.4099999371731906 -0.030318962698515525 -0.4843410710889271
P 2.7403072478801525 2.6506965897713246 10.442932991934136 0.14352874865499152 -0.11888601040564688 0.27314371544236826
P 7.659117053356876 0.7673978668103435 2.610067336931364 -0.955503181593735 -0.6171390635899758 -0.13179114850308918
P 4.336204483947487 7.130234967963242 1.3594699618744785 0.9936580953969016 -0.49993892552718416 -2.5213525722253287
P 4.832276552441679 4.183450727830868 3.1105434723207805 0.6109825570702768 -0.5586711492610701 0.6533427672040426
P 0.7041525013778449 7.5397550187573055 0.3256682683995275 -0.2748378153153395 -1.1316646286820833 -2.4520556856017186
Ni 4.132054310165686 4.349752572138162 10.153599682770087 0.619558728775062 -0.2990439802478979 -0.2916394602537107
Ni 3.911954171062453 7.789859857329917 3.1594563865620904 -2.977667590414975 1.6661344981066015 2.6804017851134225
Ni 4.409743206411835 7.270360104478302 12.94120796016083 2.468324340854755 1.050467648186778 0.3219134286469037
Ni 8.24936897590786 0.8749822593699175 0.48681827390799876 -1.5706964343112497 -0.7262913916476266 1.2526892826972877
Ni 4.665064621877809 4.401890194074165 0.7206222479221057 0.8159575859562076 0.1274593538969547 0.20420241238596445
Ni 7.751467352567974 5.563207169127702 7.228164002103824 -0.2898921385453007 -0.7095064588798039 0.4627810855299643
Ni 8.371292387291403 1.360813511894496 10.174348711186763 0.06057673314179245 -2.641792300271341 0.3927910294940719
Ni 4.550693988190592 6.604402140645764 5.242448675347413 0.41810328300661537 0.06939895941911274 0.6419995742770814
Ni 9.53479544582723 8.485541050655574 10.754607511347242 -0.06268992283005331 0.28040091122541383 -0.937101796268412
Ni 4.546856614180907 8.951064244392951 7.196703164623924 0.765563963995004 -0.5736398547557605 0.6911726935676226
Ni 2.1956722261484676 7.5271826931509995 12.180468734755557 -1.8207914954642705 0.8616026374888323 0.1340696601246207
Ni 1.6838284566511401 7.465034122392663 6.497456684932302 -0.7574994418193147 -1.8126660381436588 2.4698474623675013
Ni 8.63169902699515 6.868721213019535 12.156712668759164 0.7177697273298606 -0.7701947778987961 0.5122061729303115
Ni 2.3187871937648463 3.5215740786541088 8.360668772154073 0.2186880075966492 0.9632964523859088 0.7002636001252972
Ni 7.801709743330488 0.8504821744029422 6.655442967907604 0.27268760174155615 0.4740846834682417 1.0349525832703144
Ni 2.4590436829354947 3.1658335579909007 12.724571778232109 1.8974599919616033 -1.0872660479620502 0.19014824828574348
Ni 3.8126140341075514 1.0314654926719884 9.177488075629505 -0.5796287253493437 -0.18398557111845731 1.2126950016925373
Ni 1.0871214893112475 8.726788967308519 8.587987677915137 0.6480614642004452 -0.38761668438198404 -0.32694482042322404
Ni 0.18472311602029504 2.233248467979255 12.462977335228542 0.15025912540028963 1.1647238731298974 -0.41408901964089967
Ni 0.30495020168024023 9.43834506729527 12.819020905232858 1.750325271122908 -2.563995860817152 0.04214680857137903
Ni 8.519345594804468 7.107210723905126 8.924421234673378 1.0235847077530047 -1.3326210233269244 0.4517088868762027
Ni 3.262171348532356 2.9328796233051007 2.031112680994226 -0.5898743143367519 -0.3446116415753678 -0.18006206769433505
Ni 9.023852380253937 5.982100170131242 5.339712502110765 -0.39129053368914546 -2.2388970924637315 -0.06624010207515688
Ni 1.429023069474977 4.263613377069882 1.1540175203358458 0.3592270774956975 -0.6147525656356702 -0.3015371789833968
P 5.575188407783861 6.591257492754394 10.97341382679293 0.3082205045408433 0.4540593893862503 0.4064312459853259
P 4.255966776048137 1.073320078141937 5.558078786160234 1.6517422339406715 0.43660674112744163 -1.1114202766107506
P 6.608370867311039 5.362856840025419 0.6972930780563745 1.2911337027164151 0.7116445882687292 0.5420862483191955
P 2.2122695724152996 9.231464634743743 10.525049981041652 0.06830212681050818 -0.11120381127004074 -0.19686705506681582
P 6.143795289160405 2.2826276841479034 9.457881898347516 -0.8499097745319363 0.27793239508026324 -0.1540561305488766
P 0.8690864016005126 5.283285277736552 7.6462482460422425 -1.5255494054609662 0.7593349523661568 1.086336594169245
P 8.817731916638312 5.365080452837877 10.243393296363482 -0.066050354661854 -0.7291689703057377 1.299065298858666
P 3.977367793545412 3.8354600138473685 6.533818852932152 0.31260629231336484 -1.2977910601319327 -0.15842674881274652
