# total energy = -340870.2055010046 ev
CRYSTAL
PRIMVEC
9.25826428777962 0.00000000000000 0.00000000000000

0.00000000000000 9.25826428777962 0.00000000000000

0.00000000000000 0.00000000000000 13.55040562486112

PRIMCOORD
 96 1
Ni 5.329038414341241 6.02588019338186 11.785952841241912 -0.37640101817182275 -1.0881579636487002 -0.7163257957944824
Ni 8.929929214512633 7.76104557189083 5.453333390043129 -0.6432082498732018 -0.4814645208720806 1.3583266556231446
Ni 7.615024227356988 3.3805811428972814 4.549087974162089 -0.4207630892269657 0.3395789642474668 0.8000249738863512
Ni 8.624054678581295 7.867682260094025 1.2310723297488806 -0.25419802757780097 1.18158516766161 -0.13038449796354964
Ni 8.431936436099573 5.373691023058379 2.08662668202528 -1.0343828268097732 -1.5725573987793884 -0.6114934352684243
Ni 0.2371115553250891 9.012966587016058 7.5321016573308786 -0.6604629231885916 -0.0899515867594838 0.41596566783832234
Ni 2.337239564178527 1.0933084311438834 7.346243853168568 -0.527267438138808 1.6498306187402552 -0.17468974763882816
Ni 5.254351996236085 2.9871882345414953 8.129850381919645 -1.6808980295690212 1.3003544499837347 1.6976904185360118
Ni 1.0005683976544408 7.157471547404733 13.123418366842905 0.3902530935635666 1.3324032508891632 -1.3867190907229086
Ni 2.35009929329072 8.68556658658807 8.947359748709555 -0.40940061302629494 -1.576559577960246 0.8131031472265481
Ni 4.50923762713717 8.875370262994885 7.6634727244369785 0.6154799307199981 -0.34062180368968437 1.432871935129887
Ni 7.373624244008308 8.102953272476347 3.5591767645429577 0.36488916087748124 -0.4043255124962326 -0.760659070494219
Ni 5.7544186258522645 8.578383660791197 5.542535840743681 1.1444952047878485 -1.0106145207455821 0.778528237465156
Ni 1.0584880991129566 6.6850963863087625 8.503882407972034 0.24902368246571305 0.6145188523583094 -0.541161679622397
Ni 1.4095337065622127 4.911648084920801 12.462944901624113 0.6862138069004504 -0.3678004209870053 0.5350802493150074
Ni 8.340057421189996 1.747710326634976 0.3336511804831019 -0.8967691580876362 0.17593621845141957 -0.22999237686587487
Ni 1.0726254686984993 2.420767624689833 12.941463846909322 0.16635191719709413 0.7174311130435193 -0.705639776835546
Ni 4.394749930807886 4.013429799098824 10.289758077529395 0.3267252482132502 -0.008930212610094298 -0.2053126147310077
Ni 0.6752431742560007 3.495957632599331 1.604693288866366 1.7919231491693526 0.710432313128183 -1.3737687012098276
Ni 0.7667370453707124 9.031779380072916 3.856905879543476 -0.04220131595839829 1.5212919157361928 0.3543352966210349
Ni 5.46012617855977 6.767411614196816 3.6783926564500664 -0.7091192507437143 -0.2932574554731079 -0.24952221936868643
Ni 9.125685954864114 4.840618681214002 5.545978063410284 -1.0391581367112295 1.1825416180376085 -0.2976188177655971
Ni 3.4894675893252867 -0.05850574958868272 5.62848586319577 -1.1283155097041921 -0.8396405313954444 -1.8140102108763791
Ni 6.030824106517864 6.86490113727197 8.165989090786839 -1.0002640307491935 0.3466523261544804 0.5224836435969196
P 6.49851458587822 8.453943330339804 0.3095574734697321 0.34369298641584034 1.0929494715000725 -0.8529732439486083
P 5.612665341160555 2.6850910704444084 4.45525176217957 -0.8331559521123652 -0.20577361352782625 -0.29631706823503806
P 8.52580597783357 2.0695368519545845 11.632210104282173 0.17816716466446736 -0.5343950503225248 0.035094529710287946
P 1.092688127435808 6.085040502256526 1.264785373369571 -0.1847432752200883 -1.7304110486974844 0.6267917561883914
P 3.7319693061256234 8.160011955354996 3.3385625103733885 0.7256871824047244 -0.12505614377210075 0.06989698210145381
P 7.773562745223937 5.80320042044704 4.224975583386901 -0.5750339068898097 0.4388855098592893 -1.5352046691625432
P 2.465762789186058 2.962292761839777 8.84602989760291 0.6943490344130752 0.7604847496998839 -0.06979542352658302
P 7.773701619188431 3.860890636498039 0.6101094332552093 -1.3317476195830353 0.7965411291028088 -1.2169607189474265
Ni 8.290840488173137 6.223507103121865 7.368940488099123 -0.7773840965583838 0.79958274414261 -0.3090383724564484
Ni 6.936078673207564 4.096254231523357 9.255144264565907 0.6888635858184716 0.8785112403187129 1.7507497602548363
Ni 2.154064805010251 7.263626805864347 4.515632310288929 1.3778834947091496 -0.12567680807523518 1.6222413962680773
Ni 2.9868827118196073 4.947718282632178 7.298709146774953 1.0673001463630845 0.4646124823117483 0.20122327515298247
Ni 5.234317112291675 0.6042054381113322 3.7535031030601442 -0.22119997538522548 0.6456253439551268 -0.9967899561576639
Ni 9.15216459076107 3.7754831483339073 10.438432840611512 0.29304045436629533 0.243371112165626 0.26600967550074833
Ni 5.835659895081561 3.7581701940935903 2.5432211316225235 0.2989210815167884 0.9342278171547266 0.06362914681487106
Ni 6.6739679526206 6.584875675265214 1.2140176810825232 -2.073095391343152 -0.8623569991563534 0.46771091873141385
Ni 2.1488246274166576 4.9914172901264555 2.862834931774519 1.0245756109113644 0.5857960305023202 0.10016837939148555
Ni 4.585590532816259 2.160647430927291 1.503322701396804 -0.2987416185161306 -0.6466062198111574 0.7040269238224713
Ni 8.734653903904734 2.280995608558245 8.231058023937534 0.7393520814863266 1.1336250948425637 -1.1068701953462228
Ni 7.534264387871273 7.870376415005218 11.949263068528891 0.5797706502438467 0.22786684588243983 0.46841874343171586
Ni 6.9199507767976 3.7490415454941504 12.02003601831459 0.7946827357378313 -0.5516435529903273 -1.5592629956633275
Ni 2.7409832120213045 0.7981364487429242 3.156146928877682 0.666344321670033 0.1112989420870083 -0.16256056847546196
Ni 0.7710662097572217 2.592841724962847 3.94327622719477 -0.08083831160430593 -0.6692201005559313 0.8831330553614404
Ni 6.126461976733093 0.12912778966629762 10.882601773692217 -1.659866919930335 -0.33464398883969465 -1.8305624588081053
Ni 1.9926284504175173 4.990713662039682 9.760004823436438 -0.38671679827553396 -1.2175800976989806 0.14646726245802516
Ni 7.863293842815998 0.7879042150389677 9.749679081263055 1.8693359800318772 1.1366240295698875 0.32589555322310326
Ni 4.0002089976789446 2.1505374063120897 12.764210673587092 0.32353245230756533 -1.007089538311459 -1.3515775098247689
Ni 2.87066372006629 3.435399325815419 0.6024926592158997 -0.7179324781599701 1.9420048684515137 0.1440231717929068
Ni 0.28067354050773113 6.802380078456536 3.3215300815413498 0.55667545898728 0.026622487683534795 0.529760893984623
Ni 6.596596637868552 0.9075663552853185 1.7308880604025396 -0.169626731293624 -0.5290957495967985 0.04369384134352475
Ni 1.8484865335365017 8.005528557251289 1.8111201788231752 1.832844569974063 0.744429496009234 0.018563621934800288
Ni 4.878429432613711 8.137940253264667 12.253455377836984 -1.4341621146962205 0.9536355322573771 1.5238684182141173
P 0.29236302501245015 1.5367792910963944 6.202508433863864 0.1868811474986975 0.6446105295373673 -0.3564402587791797
P 0.29034750087441963 8.522954432429282 10.833698695835114 0.29754014200886175 2.3861768235207226 -0.5686449726443303
P 2.869173139514049 -0.0764186393556163 -0.03274740665423855 -1.5235498585324343 0.19292838213404193 -0.4416792705543426
P 4.583285225005651 1.6147801678208182 6.782046152575249 -1.7509495349704685 -1.0678020257001675 -1.5316172089216011
P 5.822040988296798 2.249702675225479 10.633585942130656 -0.3716791872161212 0.6015293820771769 -0.5800395876345171
P 7.312797447559707 5.883284406638882 10.933036168464476 0.13841456735687774 -0.5880501166438195 -1.8688937502881362
P 2.059028721974499 7.730724756309526 6.789674962358147 0.14175751568718167 0.775055191314891 0.04367044430475705
P 9.245376795729793 4.6866815207039725 8.371047609280163 0.25732448902192456 -1.5482918413638045 0.2117488572746547
Ni 6.235533588447091 1.4187364212760496 12.739766078356764 0.2882887986139228 0.10917058289009587 1.0415207234061354
Ni 4.139453292745453 4.8803088602665365 4.9844356330181006 -0.13312657948506107 -1.02285117202109 -0.6822252545663476
Ni 6.62098290603379 1.36294612060645 7.485677942653219 1.209561084049246 -1.9449099579134503 -0.6523274385656508
Ni 3.5894105524398454 6.505874905996429 9.19701254885493 1.8530562690352474 -0.6898969121789925 -2.522950512840068
Ni 4.494313305086159 8.935771179285702 1.2323147888178916 0.1730745806329084 -0.551160956926954 0.7812654338906609
Ni 5.486864045857116 4.5573157936451745 0.05295727179391154 -0.2873662867996535 -0.3012479298777522 2.587642039481182
Ni 3.3407891229374505 6.150459397797746 0.39317441331831454 -0.2231750968337253 0.07787100144586588 -0.12347311555569704
Ni 0.5086212658290417 0.20463541581482986 12.891137773829366 0.024148829332061635 -1.5508153791166066 -2.0137898116043
Ni 2.3715044003514754 3.0779007081493175 11.220291409062819 0.3063055469063176 -0.4020786254435849 -1.0154967885385477
Ni 3.866723343006809 1.1738831053436058 9.621045682910358 1.7076182191726847 2.1818641108091392 -0.6764878378619382
Ni 1.1110194907490851 1.034796200770191 1.3420983610565322 0.4239543424707537 0.3224561885242511 1.7052826290609728
Ni 8.1015923076243 5.694351007076234 12.867018143675958 0.7766083947346238 -0.3738959923617819 1.5410498150894105
Ni 7.458254037971271 0.6986165883068589 4.983175583246919 1.7608187144550644 2.1041558601933827 0.171184305588731
Ni 4.289011294241756 6.931431024529147 6.113753157328984 -1.9961211906799428 -0.5917195950756067 0.978796862014353
Ni 1.2343951208060195 3.6232309919264116 6.675201153425312 0.4912902487132507 -2.504718306102757 1.1017850675138317
Ni 6.459602101026855 6.125193594524042 5.811714320296985 0.0011567393122625242 -0.37214584243989457 0.6228975633403079
Ni 2.739807412455251 0.37413294113325546 11.397314051603988 -0.7994837566709005 -0.7866344115120583 1.3399491815572213
Ni 1.2868802211206498 1.3914430581207262 9.71127765260103 -1.4156458010595878 -0.08253523969075463 0.28468565464369683
Ni 3.1300988022706595 2.17031305885611 5.057390755699224 0.8676634989709314 1.7545146266139073 0.3279470364354933
Ni 0.4050944286040944 6.524761765167685 10.943835933770002 -1.0094577814333197 -1.9738194418589488 -0.6191751201833982
Ni 8.063226060366613 2.872052459711236 2.4263216574431836 -1.4570181933587874 -2.13424625182086 1.3082881030085147
Ni 7.84902685753026 7.7191704424635805 9.393832137948007 0.6084374220509199 -0.5680970705606604 0.2556409306719145
Ni 7.203605478409814 3.8364673352756022 6.9444064819450855 0.2027566810783734 0.464634079578303 -0.6316223448078154
Ni 2.716809883934958 7.0604264210159595 11.115248993972022 -0.17338157035036592 0.32985608053274806 1.9063899474613812
P 4.6593788992843495 5.532525805382916 2.04023074214052 0.04047327752369804 -0.04722370887365415 0.07810445761291064
P 1.8780111383880373 5.197802517893916 5.019557784465195 1.2214694054510575 -1.1343352335357109 0.8968804868545198
P 2.5937397765999117 2.8853473272455115 2.643060402176926 0.3112520922783156 -0.9273154063056095 0.6205295773287637
P 4.358874156646801 8.321901964898412 9.947447642446845 0.2685627809399052 -0.026628144110489627 0.7828636316157163
P 3.7021299202879 4.5142556063875725 12.402591202481222 -0.8137068422488181 0.07618435777206235 -1.3611096176849204
P 5.222012879037461 5.04147672519458 7.44456569420426 -0.41236432364030917 -0.09958113942944785 -0.6267110235491271
P 8.486634261581814 0.6059209944860545 2.7891206314208263 -0.3199048828573071 1.0223942869893294 -0.6477907270375617
P 7.235759430322445 8.435084245961448 7.165792875357245 0.9051972342503314 -0.12922390199654518 0.11778609247324875
