# total energy = -340895.09749045694 ev
CRYSTAL
PRIMVEC
9.04719554880922 0.00000000000000 0.00000000000000

0.00000000000000 9.04719554880922 0.00000000000000

0.00000000000000 0.00000000000000 13.24148519022945

PRIMCOORD
 96 1
Ni 6.425689264313577 2.1639172955768333 11.688404958220712 0.7045051490104706 -0.32657972377432143 -1.1201625415797545
Ni 4.6510275602853755 0.285209223040883 6.08794478574673 -0.0014896971716490473 -0.03291706244299492 -1.0191330997395545
Ni 2.579970680551776 1.7277700891299668 4.756143307315403 0.5672833164101133 -0.6494974253160234 0.49084544786634815
Ni 3.337338567485201 4.265255139050427 4.8191190265867965 0.14319501946465663 -0.2571609668608668 -0.4496849144676384
Ni 4.904511887165318 4.456838553498627 2.649078589014376 0.3073748687110965 -0.9640096764028495 -0.25062933638993606
Ni 7.132365714188385 6.075544699430018 2.6817851059000817 -0.14963511866304552 -0.37829643542232266 -0.5311639449797368
Ni 4.9896821867315895 4.585932987799787 11.207845068475478 0.5112612925185388 1.3461218860268367 0.9408934021003602
Ni 5.552291093554209 7.855137125071096 12.603484463920783 -0.006381735156627719 -0.010137859764950283 -0.08476515746253789
Ni 1.9331052409205012 6.585164181506551 0.2497116463064214 0.17880942623415655 -0.7245996057675004 0.23357006691480417
Ni 2.5549189958801164 1.611287445523026 0.27721421627152737 0.6937553666931342 -0.2711048306354686 0.9381441214899972
Ni 0.48363231737777057 0.14474879688237122 4.634387053381589 1.1083133555506526 -0.37035481197774284 1.2977728052994875
Ni 8.762000872428683 2.153105896810985 1.4247704606220013 -0.576162106956982 1.0429232601806167 -0.3419829457032691
Ni 7.058802966602518 0.5672347379431033 4.976018207186769 -0.9361414892376717 0.5148042726747909 -0.8040109551172927
Ni 0.6965463049391426 7.374369149826603 2.287664837266599 0.8686096649342847 -1.3062723581300666 0.5751673471438804
Ni 7.637144946608242 3.830772616597632 3.9109389122665057 -0.3615063604481774 -0.17049216461771283 -0.24923374159399012
Ni 7.83726891372168 3.875619565285757 12.822829198128819 -2.4776962689879585 0.12720018669829705 -0.43472906448875454
Ni 8.111046100377187 8.879017300577202 7.1456216652107445 -0.44118227631326595 0.1683157257916843 0.02229660661467128
Ni 6.948137669779209 0.7564143125150813 0.38435563040086307 -0.4863020514700399 -0.7489091290471425 -0.18285042907274962
Ni 1.905855087713192 6.521562396298257 8.983327847197051 0.03993951650741508 0.05234457503998727 0.7046802411357541
Ni -0.04330440183492214 4.808494000050719 1.453358694061502 -0.21733406467191604 0.0670325160694652 0.5306674649592925
Ni 6.344626391558767 2.1103217087242103 7.221071657802935 0.9442486917258385 -0.03566068662640309 -0.8720721695615884
Ni 3.431890808909367 4.151595220476913 0.2767509998557856 -0.8715823744093634 -0.03901957579630699 1.0819850020687687
Ni 5.916033593454563 5.599825059341461 4.737167719222106 0.4569773343639936 -0.16703428797609943 0.9617224230305695
Ni 5.390717226977405 3.018994895205789 9.483260496923299 0.431342921625341 -1.3166513873715453 -1.023420928481631
P 0.08871318137104617 5.7646649635370695 12.608435994083584 0.6266632010303272 -1.09015365392249 -0.6772997922402723
P 4.027892914765246 5.977979741864406 12.649855865070869 -0.31615210068309424 1.5416383406030287 -0.7439854664932799
P 2.224614930991122 8.551508819134773 1.3365955873903423 1.3758217270841144 0.2758541723949959 0.0014614150368749024
P 6.587697396280139 7.724531809101403 5.782331422424159 -1.2444756365382437 -0.6082065369870365 0.5554670405014757
P 4.743815598563649 1.1682643704049922 12.670326954600144 -0.42115029736305537 -1.4081944869878653 -0.12556342242582247
P 4.118012030335634 6.225529108417657 8.101683157630093 -0.5724890289807689 -0.03432705541664411 0.2676708652532551
P 4.581671758662788 1.0183071030042121 3.9345349031629144 0.8107421031935392 -0.6045113475236363 -0.9738264053829552
P 0.12655398177107655 5.675975304874635 3.655007318971364 0.6012853843871708 -1.7228255230407428 -0.8735253570683472
Ni 1.435011886063792 1.1248468786248207 2.6878232042568406 0.38037440099727393 0.003364031376226464 -0.9191274711781784
Ni 1.8921304919577178 6.6167569886114395 4.654356023553957 0.3341822187119277 0.09155621224244233 0.17889221575594996
Ni 6.04587894499218 5.512374866478961 9.100078287794343 -0.2956069295418909 0.5519716257537074 0.6152171639769146
Ni 8.785306448345692 2.216897673127299 10.226094968812825 -0.2749630280392942 0.9622284161327106 -0.02882952263718261
Ni 2.444588445294746 5.257868206493963 6.881666114120264 -1.0841678686527005 -0.20539000493616238 0.30564605894544783
Ni 0.7122296185463373 9.101659737588712 9.29472779683815 -0.4483014038565505 -0.2202664078273626 -0.897938495805389
Ni 1.4672108552752174 1.0076404593682833 11.547925532951398 0.38875902551654334 0.6466198466579122 -1.2805656973925819
Ni 3.9827202670348028 6.593632356606831 1.682952996187388 0.40253653891660995 1.4385972676494385 -1.2907945742094415
Ni 5.833695066117339 7.898219870613328 7.913680623208272 -1.0473895234820862 0.0857159514115814 0.3655077682980866
Ni 5.458652618887659 2.625613782454457 4.9662852341388195 -0.4510270303178297 1.063918117264729 -0.2101766276915284
Ni 0.7704935583388576 7.373844412480646 6.7415449577975 0.26670515890587615 -0.48547467047273807 0.24635744848745958
Ni 4.8184097264501915 4.594790192311725 6.857513720693228 1.8496711546130986 0.12550968636975157 0.05531857006664666
Ni 8.175217858909539 7.260537334536309 9.208764058216005 0.08591855434069073 0.3045523116606368 0.34517599871927007
Ni 4.724327939198263 0.49273831976925686 10.41752639037461 -0.7298863080877366 -0.5992454711390067 0.5565777570671511
Ni 8.221801869156696 7.313309626587516 4.447034107605281 -0.46642536715077093 0.47939683970977437 1.1280347452389798
Ni 7.265196640280587 6.1381603403157365 7.128765835051204 0.21134493696801665 -0.9654191551558663 -1.186203640270228
Ni 2.025793760046956 5.2183048200478925 2.573429558118548 1.7586674724400162 0.1508391662734757 -0.3645364055237528
Ni 2.417057829023218 5.129642302972318 11.174344207814341 0.017853483241653124 0.13358834961282798 0.9337753029983403
Ni 1.0200170229763839 3.4480671946778494 3.783079420167469 -0.3724397195312295 -0.4404387132790221 0.07503327488675464
Ni 3.6229856747940894 2.3738665171335454 2.5397432299472014 -0.11324449584915337 0.7054927097347204 -0.28773189766918833
Ni 1.148333398454228 3.446465841053117 8.26003893672488 -0.1746403824581315 0.34960703790743014 0.11425211117806129
Ni 3.652334777385229 2.646413285184737 7.038378922490466 -0.43261047548385495 -0.5707170246820106 -0.06716775609574883
Ni 4.089088145938632 6.8612484030451455 5.933231407608539 0.20128986672485977 0.8158645120217691 -0.27758529615348965
Ni 0.9912831296874018 7.294473365306767 11.330686081164126 -0.4209559219640622 0.13122961957266432 -0.39595322927213744
P 0.07488182870725657 5.6422292652121975 8.180192007061391 0.7740162085274154 -0.9256159071159995 -0.48894565974047405
P 8.651299386822894 1.717067256711558 8.014912409158653 -0.7098571573510033 -0.05012905544590721 0.8999904932384112
P 1.8967807505063756 3.099442558658443 10.463779273262077 -0.8070078329620877 0.24242803152606635 -0.5169506295938323
P 4.019578541990506 6.067103665916599 3.692308906512445 -1.2630379729214634 0.5800933236905881 1.7685011707009866
P 6.9714613400874565 4.032253663054065 10.65442992184186 0.584901800822825 0.37519182835507 -0.8644681319620854
P 6.337623862148919 7.913618197558495 10.23051723803186 -0.38273518791996664 -1.2324158771602323 1.2824521157820172
P 2.3749250390210803 8.629830391616737 5.776571072972932 0.16358926685029246 -0.5337643587170614 -0.6482319283400384
P 6.865482490595285 3.985615369633189 1.8097268248120295 0.29818446046108005 -0.311758856711405 -0.8266479757905182
Ni 5.367456887038497 2.854480690052499 0.589372320905575 0.04989894171297212 0.522210849551507 -0.1020681675173597
Ni 1.5402850542976068 1.2350869572539915 6.9969201485620145 -0.55910283748185 -0.0476296860628212 -0.07953964739754044
Ni 6.867870950238954 0.6833844447512298 9.321038851140104 0.5995807429912384 1.3722239824305271 -0.9891170129934385
Ni 2.7352929349551904 1.4618006322944834 9.122879934915321 0.7075189961361299 0.6007909612492556 0.8577400692096324
Ni 6.35204509196713 1.821698074056356 2.504441977357693 0.2191819165139322 0.15325317503160704 1.5575020471081629
Ni 4.1341522273216365 6.728507948909144 10.29373180326762 0.3782203307687486 1.2049585522802282 0.2877748350919818
Ni 7.948395617521608 7.0955979111888805 0.5381434804271329 -0.05255154884447078 0.47035684099469316 -0.059889734377096854
Ni 7.665317913768787 3.8116016090789446 8.235011679481394 0.7058722045613262 0.24284017936282049 0.3646932428165913
Ni 3.162293426630281 8.4749966857768 12.455378252743845 0.3964306831291882 -0.2753384091008419 -0.2147663039447398
Ni 0.004399651229984882 4.815487482264946 10.470651523054995 0.14779472302019708 0.0065059194393178275 -0.3856307643002069
Ni 8.577474270564048 2.2734245513607876 5.818587154151573 0.08916225808896903 1.0294722768820337 0.07981681231832706
Ni 3.7278607664206267 2.779379919211239 11.512041640963965 -0.5416123940065705 -1.4211461620525268 0.00041291916770251467
Ni 0.9893832186072109 3.536431154297965 12.71424927989591 1.9850119681406586 -0.19532233628751522 -0.9722436342768677
Ni 3.0526052269339274 8.444797146797384 7.883066722669463 0.8198895740207622 -0.6849503668069945 0.15983725600702794
Ni 5.515595668119666 7.849446439026143 3.7230286592400073 0.17009775739277155 0.5337707864749646 0.06189210951910631
Ni 3.1570279587794663 8.431904893038947 3.449565410272514 -0.8168374174579996 -0.19954691589182408 0.5174504520483862
Ni 3.4013022405182936 4.188145890781537 9.101124143608011 -0.13567171450441795 0.5446756063129264 -0.2894617358761015
Ni 7.2502687675076585 6.311260334112366 11.54807119280088 -0.3665133267444656 -0.5093260231690391 -0.7674578385836073
Ni 0.3941428866225321 -0.09298798130147566 0.2214862054112809 0.401214991891709 -0.03491892336437212 0.17624860748551582
Ni 4.503549224484463 0.2222488840020432 1.500022319630114 0.20481819159309242 -0.19869073853911587 -0.24381771278474135
Ni 5.943971333528989 5.481840581261607 0.4224271342892023 -0.17575058480317474 0.1542510201685021 -0.15902710140090676
Ni 8.198179641392988 8.895673187713541 11.22858124083642 -0.842303422939588 -0.06851629970384329 0.529832627762823
Ni 0.05563211058667497 5.0232382352860085 5.764416165657521 0.0021702681784414235 -0.46399618888398797 0.5417250083250348
Ni 8.135790180397768 8.824498899771342 2.4633134260693703 -2.0717964700260705 1.5024678410511543 0.0955301092885258
P 8.426594189210032 1.6902332745027668 3.5780880618104933 -0.16496532126221267 0.15056045869079232 0.196317610321249
P 1.718949073400509 3.2133196099268364 1.5187979647002097 0.48999672671280775 0.37515351891796683 0.9987658489371123
P 4.86881165324897 0.9956257835849811 8.147710765346623 -1.3816221358159755 0.1308606662690198 1.4015605266111153
P 8.63105176302543 1.7434126903568716 12.436296812461793 -1.033362098854743 -0.645113951536347 0.2557278339587661
P 6.249259902528804 7.855082841897375 1.6056492332126688 -0.29047166519785456 0.1686491978717031 -0.3746647522070064
P 1.5831868559274407 3.328327560647724 5.975643755955333 1.1867710827379239 0.03236298971173781 0.18257095015911784
P 6.9194309180770865 3.970597024904061 6.0458635647596255 -0.2701213836762767 0.7777013706884864 0.4175733786450744
P 2.5392583002619715 8.440192124226828 10.247174934607322 0.6149042607221862 0.17498131073731799 -0.20846838675117
