# total energy = -340876.2623158613 ev
CRYSTAL
PRIMVEC
9.18630702972049 0.00000000000000 0.00000000000000

0.00000000000000 9.18630702972049 0.00000000000000

0.00000000000000 0.00000000000000 13.44508890414135

PRIMCOORD
 96 1
Ni 1.9723643704238654 4.927305300647398 2.797828443947247 -1.1909175008061295 0.2630763039040372 0.1625122317360298
Ni 2.8232276635711298 0.9095408277226739 3.0133401197034217 -1.9075245752864567 1.4251228873120874 -0.4289962757700354
Ni 6.396324363518948 7.031474800791495 2.591500319081881 -0.10415718883590451 -0.5086829902684014 1.370716544647065
Ni 2.7717751592804265 3.009415729445791 4.6033566223651885 -1.3373181716922775 -0.07639107446622972 -1.6365223316671236
Ni 1.9276821742321173 8.503093588482589 8.152510132314205 -1.1828722619041498 -1.9479016935519227 0.23142062467196917
Ni 8.691817075029315 3.0002661678900795 1.1415749948584695 -0.4213089344281067 0.2815540509932506 1.3929784413690591
Ni 8.800830977621311 7.1700502386106795 8.083564144016934 1.45737531958789 0.9664506817441744 0.8635967851007256
Ni 7.11111089429196 2.623774570702043 3.8106472443067116 -1.2936412996296172 0.1591973084301839 -0.796391490898822
Ni 3.4780827288928737 3.6430687987127333 1.3905450371791144 1.3727775409411518 -0.5000001177824227 0.58846714957658
Ni 7.230064380822993 1.478122692893348 13.325911079889897 0.13022483245723382 0.043653475023892566 0.11214354947549073
Ni 0.01373995905509823 6.643775909328389 4.081431090713895 -0.7197435632267798 -1.1780612136687518 -0.4713024927374141
Ni 6.716751930411293 6.647928119994234 0.2696346394286503 -2.177890985094004 -1.2293665488109473 0.6964596529981747
Ni 8.736343104005755 4.171795871906043 3.8676142885591553 2.0843005160303525 0.626862718635643 -0.7083507480088058
Ni 1.2881039370902412 6.524004841493683 11.933699646660374 0.5959230916339929 2.394051341172793 0.8251127700929144
Ni 2.648926678673467 5.714084917677549 0.3387459812480128 1.3562461189450319 -1.2577453570639565 -0.13308081384879017
Ni 6.487277986975876 4.530015904903005 2.2482475357262057 -0.513284750706471 -0.47226177132688985 -0.6801457463294996
Ni 7.485443709386028 1.7173157489050133 10.486375884517864 0.22455526501070358 0.07204128213796625 -1.2853728889732379
Ni 7.69302668375793 5.414648061784 9.008895314468637 1.3353960149689001 -0.4419443512902711 -0.6894652239582126
Ni 4.905910392150156 7.288176957531258 4.974198640881776 0.08843206479116382 0.4165007144061859 -0.420505721800521
Ni 8.51938091040857 5.653198076320866 1.9044022355830363 0.4149014882398661 0.443017786860108 -0.47887850531245907
Ni 3.262424990858852 5.14493809463973 11.09457737221226 0.3746439262714 -0.6804306245597701 0.5461413922251755
Ni 3.1231605800309525 2.3591538175154683 9.55320603848836 1.4200421303550705 1.1457339622909557 -1.9835011879230875
Ni 0.38731949699297324 8.601184972309786 10.239605044041031 -0.40552647478286935 -0.7058752898851198 0.2399916541704318
Ni 2.6837703403007906 3.1490292199314385 6.980475181425184 0.27230784980463424 0.08599465899426481 -0.05116341024769253
P 0.7605857818695533 6.626753682859782 0.6024646391085121 -1.346732523027642 0.6012473320603839 0.5853334890436048
P 2.748625666187662 6.428843889530213 4.27260732117164 -0.8388023517648651 1.2623514883774 0.9698057142593363
P 7.19816033736618 4.311657392674828 0.16241757844337681 -0.2391496178851107 0.017897191995394985 0.007228913648271422
P 2.3862442362180727 6.896261551254828 9.858799557187773 -0.4397368021159911 -0.003033644620001227 0.5206944129069806
P 1.644302982594977 4.229697163558303 12.401467306673416 0.8088266313383813 1.0648311159973016 -0.9186798421177985
P 4.655914239361867 3.7760773346215166 3.2310969288373226 0.4893837757191571 -2.2285908254417164 1.399606745318854
P 1.295820434787829 5.820976783402711 7.4604909442717915 -0.45722210338494806 2.9809922839128338 -0.9759082276126482
P 5.187048124932282 7.895070315139778 7.133076272440415 -0.20917415456894298 1.7077516594267557 0.2914006047700272
Ni 0.5154271382331098 2.6658846009945956 5.730874730584551 -1.9365800978915162 1.9531662843849718 0.3506120821331768
Ni 1.7377001636561418 0.9034484690642923 5.624148218381483 3.2009732992892936 -2.122174665368306 0.27704099361424545
Ni 6.942532978520008 1.6747739621936675 5.927643584611692 1.664469965919985 1.019251884705606 1.9670854655692254
Ni 5.446203025583065 1.428158370301465 11.67878055206716 -0.20806652332706102 -0.9016699378233631 1.1919991639060825
Ni 4.890495769368545 1.5792914894927974 2.2778935849757964 1.8653762240531808 1.1272675280556521 0.4131173997562498
Ni 2.8262223995823366 8.97698759648911 10.267234698951787 1.105056796286568 0.8199173419349041 1.0462363837142497
Ni 7.391467790997544 3.309513999427705 8.071705540590962 -0.3727112280250613 -0.8685636421876977 -1.0124004090014114
Ni 5.751050616171709 4.683326178801871 9.387993066890965 -3.2923194524034587 -1.0555589466667563 -0.8417622057241374
Ni 0.7290684819282973 5.1556125831213935 10.34536331950919 -0.05623748233649025 -0.2859372676626108 -0.7819087239016147
Ni 4.989037282228102 2.3610461967127345 7.358967556230524 1.1686111239994452 0.4818000498346283 0.054369318779499916
Ni 8.090508991944763 5.89103155892867 6.225949606140272 1.0162501217648048 -0.6240507031081446 1.017096786035816
Ni 2.3869699544539174 7.758800640323086 1.486972780847939 -0.6284382906528789 0.5978617034176026 0.415503126379607
Ni 8.431036198077969 8.270689213183445 13.4609534641204 1.3135982023675183 0.33779179044005697 0.024703673394267132
Ni 0.5029824484343924 3.995382036448327 8.0011050984421 -0.1546091748388692 -1.2714477942517135 -0.8873059557922074
Ni 6.481995860575742 5.296521342863422 4.5099125911394315 0.38342784311161704 -1.14308315493167 -0.31555123387430173
Ni 6.595575357638812 3.9773401299268234 11.493964001795176 1.1871508346748458 -0.5180016965661659 0.016989078358828805
Ni 2.8456146932009183 1.98882623217872 11.7340260824285 0.7951984990319854 0.4534127569411869 1.2222829024912887
Ni 1.5679923321499007 5.065311187446048 5.50509184521448 -0.1973223974366795 -0.37601355292541694 -0.6933208502588769
Ni 9.02413172289866 0.722604996475889 8.046307239597757 0.28445091292507135 0.0263167835176579 -0.18331091364893592
Ni 5.041105269073256 0.9638456802694501 9.348961368001342 0.29345131665146884 -0.4267355047603167 0.10223580344347555
Ni 1.5972507192532557 0.15240725994211285 12.73572577705801 -0.8026611259576177 -0.38220759755127076 -1.30882700623112
Ni 3.6128550357039626 7.5250275053132984 12.34279252799004 0.21056100761414062 0.06364791586794846 0.30389616613387666
Ni 3.1202852660079228 7.04891041106533 6.582755866523355 0.057112685852591966 -0.9196869432260741 -0.22655249794639049
Ni 7.335945752802042 8.548501502910183 6.813930195344276 -0.6946187431346941 -0.6426348938682351 -0.8306828079815242
P 7.766967267053033 3.8125285999358374 5.761247416700666 -0.402752511582158 -0.7673555086777881 0.41481767027680816
P 4.763770667299227 3.187574963192248 10.739883043758555 -1.1879987844974378 1.0743524252241756 -0.3324179277226533
P 4.9372724435067825 2.134502685141044 0.23562876897992216 -0.9238205057784735 0.2702000594330121 -0.40256096439664213
P 1.3737754341470347 2.791268502273619 2.540543875357451 0.09123148191317192 -0.12435731793286324 0.5443555039693464
P 1.9042754645494333 1.4004065375104964 8.0085799962713 0.06034404830569607 0.8910836776670847 -0.06928994464507422
P 3.8104524946029152 0.36285728066094075 4.81080088350467 0.7446639806175432 -0.6822509655979606 0.16811929351016208
P 4.547166739666572 7.098452163545202 1.0041790788302003 0.024776178503415396 -0.8992482157557481 -1.1970799208630998
P 8.896708461513844 0.5026765444185238 5.715654857506737 -0.9126338930340347 -0.40686010599262834 -0.7521752013929239
Ni 4.282049925913724 5.77719484527568 2.936124618040235 0.23665384804645048 1.243434082647607 -1.140727767325616
Ni 6.646706341192116 8.291266540377013 9.2575346497451 0.2510062601133806 -0.2006380920734738 -1.0233839045961084
Ni 5.621670671442149 6.309587254875344 11.005773344542519 -0.052430449885574215 0.46510176324334096 1.0522180552189813
Ni 7.041432757344096 8.127603298733883 11.582244409978298 0.5791762111929574 1.5372546097130364 1.3128888350053194
Ni 4.946394446142145 2.1760707233334085 4.888002605707682 -0.7454617939284904 0.6971751910079605 -0.2683982303375829
Ni 8.347045795162435 8.243038429767086 2.4449621905433268 0.15712731327503263 0.8417735185780472 -0.10716126576955094
Ni 9.142295187046368 1.184748799476475 3.504986665567786 0.2792516281123191 0.5258150219629977 1.7830027067512713
Ni 4.459079243925891 4.6303579338919985 5.344086202123626 -1.3282403777607252 0.2637946701273005 0.6688172086905578
Ni 6.0481265912220685 8.712761854494197 0.8463013731989045 0.3477494158734011 2.0544687773809005 -0.03444712593427616
Ni 1.0345894288041237 1.8096840636064992 10.080831673498409 -1.7190218330239364 -0.3855965686281617 0.2857940572165271
Ni 4.45487191541935 7.05676470336466 8.978119349484755 -0.7546758563275906 -0.18864235316417835 0.4959143777488233
Ni 2.6026276924879386 4.872398745006345 8.783474369585809 1.6344158268470819 0.12409506541041208 0.559388744153385
Ni 8.162263234225549 5.819736631987026 12.375302867694522 1.7019671915344945 -0.28524821201538614 -1.5665510446843085
Ni 1.3958593156529893 8.325412042688841 3.534310275449299 0.5293554310160884 -0.2876449943823369 0.6500651248940352
Ni 4.441845732401278 8.472098989397276 2.625570493678089 -0.23959236184948413 -0.5111844165340165 1.7498257057786701
Ni 1.7756120517489347 2.68415616518567 0.2992402689283966 -0.9816047637767934 -1.6729700329711963 0.15171822644431934
Ni 6.25396416730523 0.3001487946692198 4.21449750035541 0.0767433155993259 -2.014192446359357 -1.0907925730580699
Ni 0.76732853104816 0.7006341065433636 1.4227724386346843 0.5082590153571053 -0.2091150191962334 -0.5222805264471779
Ni 5.784369350873082 5.901246732071192 7.038664923110425 0.9531339100306101 -0.42211240416600854 0.17494171574863418
Ni 3.725286244419178 0.4057095645415466 7.172430410698115 0.606014414431724 -0.455238497296016 -1.218574857512082
Ni 4.878121814132056 4.668361685052621 12.999841283371527 0.48882173256810013 -0.01752926713301497 0.41215349318108374
Ni 0.8711558448305644 7.709240515229649 6.026115281539698 -0.5160489437151693 0.12553822561484185 0.06371219344698059
Ni 8.950264630057818 3.138005651792027 12.012903983742046 0.32508899816140785 -0.07937895344996007 0.6298801653057281
Ni 3.5659038217368524 0.3261754390463705 0.5121044510697556 0.7342327579818902 1.448993523282098 -0.32550834508701354
P 7.416904674479236 1.3044280042433531 2.170736234984611 -0.2122219402563313 -1.421056687662514 -0.9510585155588202
P 8.218419127589069 6.856071459079891 10.330937143337412 0.49383564084292364 0.6932596580036383 0.7955926491466105
P 7.193585556588324 7.230872775819883 4.8642045593560495 0.24158856634390652 2.1481944864708358 -1.450076986154264
P 8.813012020415362 0.7524503885826676 11.826998856116296 0.7247579857222357 -0.7035178453965367 1.1506990196057152
P 8.805194473343162 3.5088017387747006 9.874919688330303 -2.3319378596715 -1.2861833006896752 -0.30520742874613244
P 6.951636608541806 1.1739089574727204 8.142264644359301 -2.2591303887914704 -0.29926638067134914 0.5994735279894127
P 4.999537230880892 8.554031659593454 11.015063456592008 -0.5757252765298795 -0.5430624961895357 -1.1453732365174274
P 4.413946918701784 4.420055812712374 7.643828499151736 -0.4893549793637507 -0.6125961814142998 -0.22720504392872484
