# total energy = -340855.3545267567 ev
CRYSTAL
PRIMVEC
9.39132804415296 0.00000000000000 0.00000000000000

0.00000000000000 9.39132804415296 0.00000000000000

0.00000000000000 0.00000000000000 13.74515788260329

PRIMCOORD
 96 1
Ni 6.506753448403377 4.723077299198204 7.413272046975245 2.0368878310743437 0.17669160856020538 0.49604164735530704
Ni 4.804077503417143 4.544388500859219 11.449881771962767 -0.17665021379930868 -2.268651955128661 -1.2199930780158472
Ni 1.7847279779440162 0.9588639827197537 7.336752445357217 -2.3113854894414447 0.5613268417163623 0.741586370133484
Ni 5.399581613506756 1.4978980373927315 6.773462468660276 -1.3627294126765304 -0.294523466669725 -0.321774074855562
Ni 0.6899592699705199 7.386016534779974 8.152692624257055 -0.6541151265936929 0.302723228871698 -0.1287824435837524
Ni 6.590505311733754 1.4785331190043893 3.2834430608749563 1.6532437581868624 1.0957938829274032 0.7908777601694444
Ni 3.4827552155576855 4.779275006102103 8.532361477136078 0.26126624727849196 0.9473769529421748 -0.29741878593964904
Ni 7.341557987907806 1.550921475424051 7.8659415708611835 0.8872347362346398 0.481501544757603 0.2596240836893787
Ni 3.3489006172118843 2.4465254725648165 8.321937503133714 1.886616878599512 -2.412062690148549 1.34570922396945
Ni 2.5579066229458736 7.737026811056735 12.3154692064688 0.48473907785829423 -0.7609418918419604 -0.2795431912108089
Ni 5.618014512049167 3.6221600887664884 13.206183139106747 0.6999764079021815 0.25148602796327657 4.184899769220728
Ni 4.5581280137603555 6.592421142650932 11.306533480116103 -2.361795823573197 1.56972944241229 0.3852906073519687
Ni 8.08973691770609 7.59770645980016 5.0186317834850716 -1.372103654802579 0.7277060126069661 -1.1978805623875242
Ni 5.864104871626336 6.888708150523779 0.8882242915784188 -0.2811902398959286 0.9087854658222221 -0.9031604063259607
Ni 9.402409792454169 0.32153277587068446 4.010768546792875 -0.9518373027063736 0.7854874423918086 0.4573331750415156
Ni 0.8329957697267393 6.994163372920819 3.53896607032082 0.5309379450118598 0.05922407576863993 2.32030901718332
Ni 8.54766746355185 6.300632580902245 9.39400455387145 -1.3620262159619188 -0.6305980173083592 2.362927880295111
Ni 0.6536824480740657 8.547366941055037 13.32751158413229 -0.548281835606946 -1.1784710475126605 0.7584528068715196
Ni 0.8090403701995893 5.573555965176999 11.604061082421104 0.32275777892506996 0.14857762393280863 -0.46216299232999114
Ni 2.231182320942757 8.705460557034355 4.071370786540679 1.0654474094250619 1.8378263394593706 -0.3187715405838123
Ni 4.9892463180936435 8.914624214815712 12.875639383995708 0.5086009720775563 -1.8946132665414273 -0.9626739883105614
Ni 0.303665774302391 4.915252044581641 2.62682300539455 0.5822327386310939 -1.3360470182893376 0.19190431174490175
Ni 4.3979683056154535 2.032133123444738 3.2567773240796805 -1.7341957125508973 -0.025251061257304898 -0.03845624709366925
Ni 3.1539178647488573 6.645726320523012 2.761278648733976 -1.2571905130017509 0.3650213155799713 2.4089699101558386
P 5.277898176281853 0.32800246174737163 4.775164421825393 0.2199671314193889 0.2945116395951831 -0.25786802023022043
P 2.053958569775731 1.1930743123448107 11.547732836057651 0.11545024525122052 0.8525171302477963 1.3889184123670724
P 7.698682018729091 3.8932783375313056 9.035063301077253 -0.545516614156983 -0.45980657628267263 -0.9227414137816817
P 1.5510999106565333 3.2135997543501738 7.834011055574877 -2.379955268091043 1.137848388895292 -1.0840956206538683
P 0.21205900421158322 6.416333742174978 5.84393229902781 1.8327101012787275 -0.1214458007130231 0.07824586828678139
P 4.820747110662199 3.6703657755207857 7.287600112737961 0.45653047663456214 -1.750762872880959 -0.7778450953552024
P 5.918076833788218 2.5288498540353346 1.5651061372735913 -1.2581986425512912 2.285604780932915 -0.30787931915134076
P 2.638935001148888 5.705316297373139 10.22691955817717 0.40424966495297476 2.148834691157996 1.4585857949562235
Ni 5.7113830952775375 4.873338547604352 1.8906875146560187 -1.2995170416841038 -2.444594087117351 0.14873908921133738
Ni 0.8245135222542123 4.7917279070637635 9.145670606029018 2.247190699931091 -0.9091469629266987 2.0603195797347227
Ni 3.940441586874785 8.550926254376659 10.522207328748117 0.780659939096178 0.25533085563066354 0.8024960611346631
Ni 8.284146799159569 7.066748947229013 12.196463236863933 1.7528128134314525 -0.08481992195987327 1.1064444206627138
Ni 1.9402859353564805 9.42053505554316 9.716988289922055 -0.311782767970805 -1.8052512337368265 -0.23987158365279979
Ni 3.39658038959676 9.337168236661824 6.303378605216867 1.3421942688376562 0.3534302683082623 -2.1322063385726957
Ni 7.569250735883246 6.84829726603055 7.422412626542351 -0.00950382572537718 1.9193616771307007 -1.5763957986888721
Ni 7.86303965050134 5.300568842135131 5.341409849451922 -0.9786433671556243 -0.4316733083815662 0.04722756552839609
Ni 6.140416524789189 5.367491445644018 9.781219338818868 0.554180203369252 -0.32405310069772575 0.10223734610537231
Ni 4.0886649170994245 1.3651046591137987 -0.1158523616539422 -0.8365485227336819 1.5566638674775837 0.3100562721980015
Ni 6.331163788312769 0.6673036302420831 0.8266575624424075 1.2225099309004301 -0.9789141043185077 -0.48104028885046834
Ni 3.08420603681643 4.644866319402804 13.00078916039478 -0.72934149132786 -0.048017408419543106 -1.6422054980948297
Ni 2.910297424442365 3.2411163454645493 1.4246578875211677 -1.4946198057616453 -3.7404599052021132 -0.5623313717214766
Ni 8.095136931320686 2.867491751302664 6.098630749873045 -1.5000353203502617 0.8949886691484457 2.005168645594192
Ni 8.141980875511303 4.632948724138592 12.782791080339944 -0.4596451110041439 0.3546687687010537 -0.9170230232406658
Ni 0.8487093397788121 9.18808090425885 1.9059315183068226 -0.5197485040539436 -1.5859086232753137 0.3559993145870191
Ni 1.2486709742550852 3.291181515167873 12.46746315489563 -0.92417737489726 -0.2903464524738999 -0.09197993004342223
Ni 9.39245498474726 0.19680748749835925 11.455393542380866 0.046100136792172224 3.425934027268532 1.8977644105758995
Ni 6.060909541726287 -0.11211836963104944 9.05481514218024 0.48305397684638735 -0.6485692570747992 0.5205198350023293
Ni 3.5471421604997193 5.155040823053777 1.2479600507235638 1.5168480210322264 2.7235364115193677 0.02258611283063207
Ni 2.8371108051405463 7.856738069396307 7.928577972259287 1.8138659719890309 -0.5287635630683604 0.4170177632519205
Ni 2.7433102208230085 3.72374608401707 10.636553321386787 -0.0011266574052754789 -2.2420230396872225 0.24850457673744944
Ni 2.099036944297575 5.788899116799058 6.87103930597682 -0.9713429768394689 0.41786468463324805 -0.7503623165539013
Ni 7.243352870746363 4.245875748244356 3.5024582217549414 0.6858600231054575 -1.5756748613624474 -1.3560252611834778
P 2.1636211071281424 1.7009385493015383 5.204549087005195 -0.4872523311984512 -0.3590139330436269 -0.642658548017319
P 0.7436663966820872 7.721108510053709 10.852324717566804 0.48302235227750356 -1.4721895017825872 0.26701086307175304
P 8.74736466268362 3.7061373439694743 10.862963213953961 1.6696826204691761 -0.4192319972944199 1.2655057177356657
P 3.20788982691074 7.346732609649792 0.6207029214473241 1.799408144692488 0.3301782397588572 -0.7790023488880972
P 5.796853571636559 6.94410759454552 8.540141253272306 -0.6850095021797041 1.744852678044111 -0.6806252570690794
P 4.004744009864591 0.256979604422601 8.812694496959402 -0.9872822737775448 1.4454117194681109 -2.6142796966733686
P 5.014161511344988 2.3581155105338496 11.668058287250085 -0.037878263103012184 -0.8899333661127254 -0.6375171130256957
P 8.817301882488655 -0.12638755343281824 7.791511539728804 -0.023195464279856828 0.8962274266515533 -1.1536568166824583
Ni 4.311183043332878 8.420405577479869 2.2031426328573667 0.8103983467008754 2.249415989717184 -0.6314475097928479
Ni 6.111622713063363 6.396377170121037 3.571583091685782 -0.1271150831836585 0.3867170553858501 0.5233094819323245
Ni 6.785657108101238 8.693270613257406 3.296088484061136 -0.0858452779005941 -1.4748127983380472 -0.3058491760951894
Ni 0.6421977930318234 3.8188896282422373 5.35734035918138 0.9871606605980161 0.1537835936137803 -0.4186015627992726
Ni 7.385716012283162 2.3880081076386475 12.212064110979702 -0.15090807183819818 -1.44360269128383 -0.20576975687308435
Ni 3.4700769227234165 7.073792443248051 5.242362330166602 -0.6230263756086883 -0.07247322746906228 -0.006548856862111303
Ni 2.397559088240463 3.9836323044635273 3.576311625346563 0.1001624658542146 -0.41964234535896117 0.6617847273238087
Ni 3.033389560871076 3.686274685195787 6.192138324756191 -0.375317812409973 -0.3464417528055711 -1.4545705031492433
Ni 5.218469852537221 5.687585470061213 5.798779733014565 -0.18294273167623976 1.1579261334817734 -0.11541450691727864
Ni 8.48884957612887 8.64522457907954 9.773756050437097 -1.4511751043144492 -0.42931689233424775 -1.8439792464346436
Ni 0.45771736269958346 2.17223295492742 2.4414832685479877 0.77302170582463 0.8697085544254184 1.2461108581488216
Ni 5.5479458136517765 8.198328843663607 6.29968030024047 0.6805069863236602 -0.6522778162746379 0.5438525961909989
Ni 7.693685832219587 0.5238557903183518 5.866323103305931 -0.4202537536907149 -0.7223149234983819 -1.4210744282743268
Ni 1.1619514512686875 1.4175458348075443 13.896079487179497 1.5013460687418854 0.9770929919493688 -1.1012639049030388
Ni 7.846557869816791 5.294708653447291 1.2887428318065972 -0.07741385930378925 1.1234430121032393 -0.22217956568967542
Ni 9.019281174330594 4.968707483702128 7.368586229964861 -0.2694991767112455 -1.2242351411216528 -0.7021451334187263
Ni 7.913837343790643 1.7094283098364855 9.942147257596249 -0.3809215317499956 0.09300811419762046 1.6819861204268776
Ni 5.411405295490715 3.1291435414178936 9.532953947671022 0.3798383259881458 -1.2302134701922747 -0.35051695131620925
Ni 1.2728818179045256 6.7628267896715295 1.1391962634631814 -1.0492188633813413 -0.9464878654690022 -0.4461288216852639
Ni 0.9743033259934855 2.001010262368615 9.658942369662762 -0.6854620163360904 2.1612924573053744 0.29691870637477896
Ni 5.854638412976748 3.571484482741516 5.236258906082905 -0.5523434072708294 -1.3395702009512478 0.13235113477161722
Ni 0.5571752830196125 8.635654815821674 6.003018578379411 1.285048929974916 -0.08874908181095038 0.6676740962250501
Ni 6.592007924217816 7.4517088743175375 10.913339236614924 -1.485175886739926 -0.06245415267016341 -2.589659069911211
Ni 8.34111459496155 2.7124972735717225 0.7670583165277142 -2.280115989904202 -0.36657323344812354 -0.24278952863054315
P 2.5673918642515114 1.043000890499171 1.8335487966839763 1.676576519375532 0.5664816464444244 0.5401409516673665
P 8.680460841830783 7.116513594435523 2.2412028679458413 -2.0806081547804296 0.5485160631049392 -0.43916910253797914
P 6.237428943291409 5.986473875797092 12.510059401420365 0.8352493443062841 -0.3891817148762588 1.6348760543129521
P 6.879100821953811 -0.013653112683303574 11.454871384542654 0.5449314310774744 2.4526904909722407 0.17397189563619717
P 8.360122642884926 2.406039457447385 4.194527723132765 1.2950896020403695 -0.5668140900831786 -1.8679316434851831
P 8.646483017034942 0.6270580331221014 0.4489261405350214 -1.2383664383167123 -1.3264344349002382 0.021920968442807408
P 0.32197698568628513 4.238653816992835 0.5346492436179259 1.839890935297883 0.7626169655515381 0.16126858913691583
P 4.142824705821815 5.111840714137009 3.9117482623588287 1.2740728905793863 0.2536393268608535 0.6098276175302272
