# total energy = -340865.70898608235 ev
CRYSTAL
PRIMVEC
9.31203084459618 0.00000000000000 0.00000000000000
0.00000000000000 9.31203084459618 0.00000000000000
0.00000000000000 0.00000000000000 13.62909841557187
PRIMCOORD
 96 1
Ni 2.1476895403658336 6.6157229845443295 6.0556397163955955 0.7930858235643568 1.1026828967377524 0.40987832399366186
Ni 1.1218762251561516 -0.002439752075026659 5.445424199120474 -1.241932815511732 -1.2162498089233311 -0.47797501966158323
Ni 2.7808331399277137 1.4398727656526606 9.185835110233224 -0.06643910545984041 1.017610749557757 -0.25484003203717404
Ni 1.9901858510643033 7.330626214712065 10.507816634492585 -1.8107618791424105 0.8617358206325869 1.2761801667303763
Ni 0.8748764700429182 6.547642727214102 4.239248952553659 -0.7963560096751963 0.5732030243286579 -0.8184741817304743
Ni 7.385297147660468 0.5128163309058801 5.546688809483394 2.0320549284620744 0.9137996312073617 -0.6864920002625017
Ni 8.016522468873282 4.332282658874151 3.115720773129913 -0.93884526132208 -1.0229321617706704 0.4066045383383965
Ni 7.792316702802988 5.120722996433051 5.507832498477807 -0.5635289915740036 -1.4406626348188993 -1.369554406018164
Ni 4.758699174216215 8.303007097072499 11.435413167026965 0.056097357214200165 -0.8955309148051608 0.28114627403187065
Ni 7.263262983755031 6.5866042641679625 7.11234476264991 -0.18268742113232408 1.4813683400683777 1.7237369791114183
Ni 2.4304493562367666 2.469233964605034 13.219666250100458 -1.5093501699932845 -0.13023383131829827 -1.126109503191809
Ni 3.0723648888317574 2.8640640714032415 1.94470868614519 -0.8884326131974829 0.06721917815897456 0.8561390432710998
Ni 9.204029887253814 8.29295010378613 12.005014261877548 1.2264529747085782 0.7912251162065341 -1.2913956981285502
Ni 1.970965819450353 0.6890632758433403 2.3415203931020447 -0.30741472081009635 -0.8854892142984427 1.2052753121896984
Ni 7.631851787700471 4.125732503239928 7.648581782272963 0.36811923777900474 0.2741171350992311 -0.32916882465773634
Ni 0.3693542528789022 2.9698114934032516 8.953268071689013 0.8218410413201781 -1.4246708873763336 -1.8085589579538206
Ni 8.06447942759995 1.226189594409772 0.029561973043433703 0.7457996368838833 -0.9414659867743786 -0.19884114807405107
Ni 8.496026871924228 6.448534783189259 2.5136141722934675 -0.7247201905057649 0.10617113394213973 -0.28301495180949326
Ni 0.9919361470839302 4.296636204892463 2.7504749882491093 1.6758643237998556 1.036709418060421 1.0866109308765544
Ni 1.983527749027494 7.128983499320358 12.807918045707181 -0.19744555327810512 -0.4985137630448834 1.2387050526030539
Ni 3.7767082760488053 1.0236156759359938 0.9206916616808235 1.5705213421859663 -0.6392518363286152 -2.1260439185157254
Ni 0.6924565798744078 0.18986672121583414 9.965869477570267 0.254210111762659 0.2169787382150263 -1.0284638902221772
Ni 7.630752968063628 0.31031690867866746 10.236120442439738 -0.39187314566549286 0.20738775209248153 0.06558858453408704
Ni 4.640101149683621 7.127474950327403 4.8188399940687034 -1.019937340808405 -0.5853401739118241 0.001251098798281716
P 0.4209922573889989 5.377064580865623 7.662756555588251 0.2676037594607456 -1.245111727460346 -0.6020325469658405
P 0.6765758425127649 5.476163212859645 10.674677983565848 0.4325562252071518 0.31154057005301183 1.260987261040022
P 1.785414293316837 2.6461253020752875 4.425518436263451 -1.99660687206711 -0.8667070485949332 -1.6837920632873646
P 7.125202814807149 7.850181662322894 11.609360971554791 -0.5762654653040656 0.28684358152696404 -0.2696722119540001
P 5.121598327330199 5.869494082695718 12.6364090620513 -1.0691806512152489 -0.8157074176186145 -0.5216716892185854
P 5.3140314442402214 2.4090782455032316 1.7235358485132029 0.09999405859715037 0.22330699442589927 -0.23053436541227393
P 6.976685235247606 2.686325339128303 12.060307238484777 -1.1913098511485418 -0.8221053507251583 0.45315461818379377
P 3.755756206702202 2.8809933434352963 7.5572261039063635 -0.24027087597374752 0.02947075576560731 0.1224467311737117
Ni 8.168308571250893 4.381496741761616 9.845769422466292 0.557547320069272 1.3075314273481482 2.047657925106654
Ni 9.067934556809101 3.2586148172768277 12.916473976202719 -0.22098837359505166 0.2023306492845483 -2.0808380114030482
Ni 3.1125928619772356 6.630082136069869 8.903917101948483 1.3595605280302456 0.04189818289568268 -3.7799510213181997
Ni 3.606614721077672 1.0569527462741444 4.873206423609268 -0.6875181275341707 -1.082667372847774 -1.2614942825834274
Ni 5.5888853459443695 1.823919540760483 8.154371254721534 -0.8574994139537361 -1.477785507813126 1.5807594749742067
Ni 4.652681703322403 2.959614819654572 13.100820525548034 1.65755344130581 0.03370561978256131 -0.7459796141051733
Ni 5.349379913235646 5.425962054705185 7.642244014096386 -1.59438246507428 -0.031311665629088006 1.1838554517530255
Ni 7.668950918490189 8.041748760366591 0.05789941403394371 0.06030882419238646 -0.8963104732836628 1.329343638127233
Ni 1.0560215431920732 0.33515954450216406 0.0352032013146213 -0.5347519194413114 0.7580915668773589 1.3961699517231634
Ni 3.5758012110919344 3.4004463587070988 4.986586917273017 1.8500678758308848 1.6980426596691078 0.35355008171557817
Ni 4.858282031812913 6.161407624863412 10.151102532249714 1.0478541218233308 -0.8459135088883497 1.5214562092281991
Ni 5.559431392458456 4.942118245291787 3.382142630925906 -0.29706937302003034 0.7073379904735753 0.7172328809897842
Ni 4.113300942094277 8.583131608221171 2.4264433205776963 0.0015354628079199363 -0.35259260289831534 1.377178241112009
Ni 1.0231780104874204 7.4389158211261295 8.056500879592765 0.24427614047839866 0.7909502652785927 -1.1340269582666729
Ni 5.083335192687891 1.5617206889416828 10.719708171005566 0.6024035571520141 -0.8671780746940807 0.04524421654978014
Ni 5.423596798876724 0.2657327675152604 6.202439226268717 -1.973143241727531 -0.5165546797069942 1.1656057615142186
Ni 2.3867759316876254 0.07496371051289927 11.972276886324254 1.8435568141852443 0.23567888572769088 -1.8592801384577722
Ni 7.492320317882916 1.9483655206484838 2.484720803062961 0.08433269791080959 -0.7734791050770227 2.268882068861596
Ni 6.005626661263713 8.745784850566555 8.554249413427648 -0.906064210236317 -0.71797233025897 0.054522556527912554
Ni 6.725409395581502 5.5281988410857865 0.9741278193423997 0.1666509364947517 1.4729636609444503 -0.4244942741346237
Ni 6.584900162527771 -0.053870098297821446 1.8050785088009353 -0.8716780194469633 -0.08260723057927064 -1.3357081468926804
Ni 0.07204345764752383 1.3946535439872811 3.8247341438035476 0.6540583052138285 2.6927325387646337 0.1756513402211491
Ni 1.2007863743308689 3.375713604847286 11.114271022519219 1.5281410774475424 0.28514202545482503 -0.47704325187593327
Ni 8.74336372255317 2.2692860388226963 6.444519435499368 -0.17226519735773557 -0.17438378636263516 0.5660813256822123
P 5.904060341102202 7.2123354871965555 2.438082427900505 1.007581390346213 -1.0529662462389155 0.6551916474873232
P 7.572282726540374 2.9139765566022597 4.75416980242502 0.03779598780185103 -0.22322549045568651 -1.0132542723612743
P 3.918353576862662 8.976257613379188 9.62429673744188 -0.04596078300083052 -0.5925122661802312 0.0010492672001207737
P 0.6539084970889867 0.9652664908134098 7.789752169514963 0.08260543080705772 -1.1955719688590056 1.4469752073004887
P 4.795332703464897 7.560372639120682 6.945061578580467 -0.10198872042967595 0.11171288969597536 0.7944785901468252
P 5.190442171187725 4.830737044645246 5.623420874649146 0.5127553605655621 0.45276355339296215 -1.1538403934481742
P 3.179481179362413 4.670560802498171 2.9945442472630637 0.43303290773325426 1.3735570994196538 0.25910857750554084
P 8.871171345567447 7.38688950493081 5.959527452685776 0.6666009177655294 0.8006849760678533 -1.4032201737017254
Ni 8.743130921782653 6.969710524162893 9.59665676755984 -0.4471744893409589 0.716173072266702 1.0297137034688784
Ni 5.86363681530949 8.941328185770695 3.9326214704861573 0.3607088042475465 0.9690744925202666 0.843976696876953
Ni 7.031020935086463 6.969440475269092 4.457028486154578 -0.017111205758989886 -0.006560683936653217 -0.4629883164447639
Ni 1.846808512517794 4.775870559049608 0.28530293148806973 -0.3485194612702062 0.23414522269198385 0.33789026369113423
Ni 0.4648705466161959 2.408612643962196 1.4883660973546025 0.15115335507978483 -1.3068706538356976 0.017623626619034164
Ni 8.292372757875246 8.889329805667836 7.588082449233877 0.33848161741823 -0.05920067872987224 0.20325727486387574
Ni 5.88547352758406 3.763559688529959 9.609250358041772 -0.9537250066473897 0.3713002066101477 0.511981458514015
Ni 6.915002343091207 4.868255216821897 11.928487061389852 -0.6038243487589408 -0.30180791614628016 0.06159874664840359
Ni 2.9127287444722847 5.08827988105369 11.625525725856466 0.6749716583277279 0.20537020744182052 0.39243313193402085
Ni 7.256660753903146 3.269416773028854 0.8222914319983552 -2.6260481500632062 0.8174264571922503 -2.1224217483821057
Ni 1.8668293787823256 1.959884502773705 6.453010145201693 2.237912102842643 1.5531206302110157 0.9851138053713163
Ni 4.489106569925768 4.640836800118457 1.1864058051344426 -0.10894278315000593 0.530598302284254 -0.5973181722093068
Ni 0.5536905589903153 7.770377558189389 1.3438918015774133 1.4032011475383317 -1.3114418181461478 -0.6722393469982294
Ni 2.68027251909484 6.640083257171313 2.1078489477024975 -0.45638932307100755 -0.4828104933770137 0.06708702345648446
Ni 8.88021332749436 6.02675565919591 12.67147723891902 0.8293460914479717 -0.8222878990496097 0.5697860282273091
Ni 2.49937700837168 4.60624260561951 6.977866931958755 0.23729842360898487 -0.6765166342173445 0.4829904705983037
Ni 2.99827837162217 8.894442110588408 6.616818079368846 1.1027165781891655 -0.7746191322187369 1.5414894737299902
Ni 5.510375614094944 2.117509248475905 3.9125326263966347 0.38246265098487037 0.22324785905318972 -0.27618173093774373
Ni 6.207921218812871 0.3571145195681578 12.651005670362766 -0.5713526013834805 0.6870776975626426 -0.31917880332455995
Ni 5.998149100514681 2.8274305421545587 6.277563103711732 -0.06906805844225523 0.6484494436674832 -1.6975551785097283
Ni 2.9904469537019502 4.2737006729810485 9.293232624094664 0.3703270440636009 -0.7560706797925882 0.13962247162204985
Ni 5.189920697461766 7.519027222276719 0.36898456525532 -0.05556205353602044 0.4793824415320711 0.14492562900251812
Ni 0.5924872729986496 4.250802389192916 5.443883989222728 0.8740909997638302 -0.0043598196305924914 -0.18575320454184138
Ni 8.621087445846394 8.701999681647566 3.9095890934542075 -0.8609385215422721 -2.6761347823069523 -0.42881064212179054
P 3.5417936745346927 2.9227298655737295 10.984017129008338 -1.0510808562907448 0.9712285627487919 0.8356185547202447
P 0.4758727110308677 1.4354681750744636 11.770293350604508 0.35911394895660087 -1.2901839372086361 0.5956850074812579
P 6.836306370625366 6.106103473819201 9.350297680167072 -0.9247378753864203 -1.1967515909894035 -0.5122599089863823
P 8.76231370527332 0.09767389127845275 1.8561196121354244 0.2808889066054259 1.5430200514419037 -0.09543137892713242
P 9.017109492589652 4.378740380638685 0.991319690643599 0.4344734968345227 3.5271259628285256 1.18393618439229
P 2.727829060496218 8.318660620882117 4.127599565419481 -0.6391011696833638 -0.4249154208324424 0.6445529368265545
P 3.1422982402953084 8.292577622553301 0.5697370505005669 -1.6216143042070397 0.07826386600891037 -1.1787829223261246
P 7.49526291962226 2.2616222374572503 9.002265184258356 0.5522932707591843 0.382038161852942 0.40770599893269144
