# total energy = -381167.17836176226 ev
CRYSTAL
PRIMVEC
9.26102900343610 0.00000000000000 0.00000000000000
0.00000000000000 9.26102900343610 0.00000000000000
0.00000000000000 0.00000000000000 13.55445206569455
PRIMCOORD
 96 1
Ni 2.3186559778835742 7.053903312379224 1.6994710063956644 1.5492783736467897 0.18285788527191732 1.152532730380344
Ni 8.07532069211671 9.144886160176606 4.468496367616758 1.080941648405919 0.26654780739240547 0.7200955472495598
Ni 2.9962391442827068 4.525031243549242 9.030734720156982 0.8575680624081425 0.4155779454816004 -0.0735147813596992
Ni 5.354791633897949 9.083698543414505 8.034441585237705 0.4847200516949007 0.8738187199390498 -1.1441658464728877
Ni 6.796011445575196 7.123481421162887 8.440410818576355 -0.34948311073505617 -0.025025575510060124 0.7384012875372832
Ni 0.16810619335033228 1.1878010217456432 0.19291000657478108 -0.4133387717384366 0.7004456342291163 -1.5525110216514744
Ni 6.707781624946692 5.406570045479136 11.69274796839976 -2.524586248671278 0.538626314795053 -0.7285318509423712
Ni 1.0030898038978922 3.7745452590554747 6.711310076889534 -0.8250816597446629 2.851961471763701 -1.5915246839105106
Ni 0.1658474284451898 6.745427706699067 6.411825077892084 -0.13623941408242987 -0.14791967863383557 -0.25264071039301006
Ni 8.003343976894211 0.49421294551023637 7.633365879475428 -0.4013137222531024 -0.6156825336491074 -0.015963722418107992
Ni 2.9538977209685973 0.046595013805835535 7.693560713958597 2.24713233588933 1.4174046927322235 3.2647639113826936
Ni 3.247314893947805 3.6313419719369096 11.436934276440807 -0.008458672290314464 0.011553766275870425 -1.331203059933475
Ni 0.6309881525932973 8.276525802117224 11.489946257047682 -0.03744708910286454 0.5212574844993023 -0.9549637641504973
Ni 5.271581290836427 7.325464457575995 13.050537950634789 1.0611778355154304 -0.8241252093686644 -0.13721746172498306
Ni 6.3303947045508115 0.6935917806468954 0.6910348106169247 -0.8405746131739394 -0.8848554373691857 -0.7060889485578227
Ni 6.7814438473964795 5.268941897650837 5.597297227584289 0.01755909192968589 1.0581321067105711 0.23802321759015135
Ni 8.05587253180183 8.852043170978122 10.00054223903601 -0.7580630276322687 0.03364288486542593 -0.45776692014482445
Ni 5.914574514961238 0.8038813716897063 5.53807757942548 0.2784967522241656 -1.6680826229719077 2.0812925824419644
Ni 0.49324424190598093 6.022882245857676 0.9062101824436266 0.19118723107321914 -0.7206282798245783 -0.7927986313412411
Ni 4.932729510950172 8.201289204784802 1.5658649233410569 -1.54659131373293 0.21885924306719082 -1.1099025544146432
Ni 0.37544673487875413 4.879710121520321 10.915141987398327 -0.9768829328210917 -0.19370922616412448 1.4780919833099513
Ni 4.500591388753543 5.785948087050111 1.403590399776572 -0.6671943283751542 -0.17044588476080968 1.0305747659175928
Ni 4.619604868851886 6.611633624761415 7.428151670141433 -0.22658592228748717 0.4751606901412397 -0.9747376043433148
Ni 6.092543703899831 -0.186777353355489 3.2194530890395594 0.859038733416398 1.224537245743104 0.24624097751425333
P 7.235011990054362 1.9753681652397816 4.568825722269735 1.1919510842769667 0.9168186205393436 -1.3322227594472411
Ni 7.734996408663756 7.19596749296506 1.3287223913872621 -0.3983767511119655 0.8157308146573823 0.7540379656332756
P 5.226674562566498 7.650452477466358 5.180145302064584 -1.2929386171356378 0.3877087298751581 -0.5357795893748774
Ni 1.0995897231745813 9.181143087620773 6.535224581192868 -3.0051336570457274 -1.1289382308898557 -0.35490479597125973
P 7.261952322604831 1.3393484957421635 11.921140680417603 -0.7312798460011535 -1.987202033813442 1.0006260420743025
P 1.1736223867732238 6.479358351534068 12.33568933076373 0.07105937784067116 -1.8131393782356515 0.18923319267064184
P 6.545667317179087 5.494058983809931 0.8108243649221185 -0.4683639789343805 -0.30293637332376866 0.255042120745651
Ni 0.2209940761723396 2.374175845068195 2.7463219493106523 2.2599359154119014 -1.082765588988535 0.8416164241748925
Ni 1.8047429720772366 2.6110636987321523 9.66790275721605 -0.1723330744811935 -0.12618280117737624 1.2707014030039923
Ni 3.0320052372046433 2.7574064745872615 -0.09674070602344484 0.8337691602163317 -1.1225390122317314 0.1753507782615948
Ni -0.27345039505593105 7.077055884182652 9.235827610014727 1.221777680720096 -1.5578146932525752 -0.834635107761053
Ni 4.974357835052737 1.8463712961798007 3.6440601426799684 0.014505392705026631 0.4305559069476714 -0.683785399964616
Ni 2.637568762932717 3.4294700678684573 4.57862574286269 -0.1661922516907783 0.5134683274721867 -1.1305785947067561
Ni 2.955555445109723 2.2128024195983 2.133917903052531 1.0176233479632475 -0.0780365804894527 0.8219472278807393
Ni 5.6652490997244795 4.508991141803826 7.360731381049849 -0.1438838180015651 -1.041618168215948 2.7107099491786606
Ni 6.497074699478052 2.4082379087053987 9.054820803655526 -1.4417666665163558 -0.19817446102432967 -0.45748461301771537
Ni 8.764517188532443 2.801526015415875 9.001009596269997 0.12640880114525327 0.4438919619349452 -0.9210442285849171
Ni 2.2613024270121214 9.080809102453436 10.026241593737815 -0.5843873230802517 -0.2841788902106074 -1.0122839380282052
Ni 7.626318236618464 2.6870411783622825 6.6963331412413325 -0.6908330508400168 0.24722108203933552 0.6870509580897652
Ni 7.597840573300247 3.3194305246011235 11.016123318473287 0.9422352608402352 -1.5309710906971699 2.4275183625819867
Ni 3.9136366494217505 1.5533616084643334 9.980061474018697 0.054190627109790536 0.8917318527740449 -0.9397621167093945
Ni 5.450652542192864 2.3573855999963493 11.849274171436889 -1.7018144680067142 -0.25794078244968477 -0.6390518045026672
Ni 7.065914866630843 2.7814573661766633 0.02964640514285388 -0.025957086185394006 1.1592137419449455 -0.9941697449259975
Ni 1.870718540688286 6.420319293435327 10.136669174108576 0.938275504861539 1.0287623952992024 0.8412842376464543
Ni 3.8687021380656565 5.9096661697389115 4.536701991943914 -0.18204078868726067 0.5672303516849908 0.8896297188293776
Ni 8.425776540990844 3.7882145374482183 4.81706204052886 0.8045028071520467 0.5958822110937285 -1.3154100587652766
Ni 3.901402830480819 5.899395688886911 11.449160686558763 0.9498115305255965 0.843351147477812 -0.49820625910679356
Ni 4.325446813574969 9.168585132674593 11.63926182312235 -0.614621953595077 -0.1649954031691997 1.451612963182816
Ni 7.295060500283733 4.828755941495336 9.587741144809605 -0.565225148329504 1.9213501683156395 -3.3009174784851147
Ni 2.1375936053520435 1.146617227021705 11.922658563025035 0.21918808716151925 0.18212794908442828 0.5794418061495182
Ni 8.211828255469724 4.983452165257122 13.092218136498193 1.663457979715703 -0.7455576960764063 0.91555569466652
Ni 7.829662644253615 8.248863109326487 12.669617021678832 -0.7902910344280389 0.8932997114817972 -0.16764595341816935
P 0.5093399098237242 0.8979984282763868 8.823257115403484 -0.36881780650792606 -1.9693326097321893 1.35652585496898
Ni 3.042729508463991 8.288111349047659 5.871422751634008 2.196130648030482 -2.758919676114668 -1.8098262547020185
P 2.154078236476084 5.745532957710048 6.0946376224937335 0.41556894662053595 -0.12605424601931195 -0.22900841568605076
Ni 5.940357218921536 0.3800142742441345 10.264989988071896 1.0490936506573867 0.9001262474853272 -0.4905870519986389
P 8.937976256483728 3.2475834637807246 0.8543817613073442 1.0912198904034756 0.6431416583013246 0.5074378050073906
P 4.594553786160576 2.221748573343145 7.871436366507104 0.7059020293579972 -1.4052477456547154 0.4616976226577984
P 8.423461283810502 4.950501425066483 7.151097808810016 -1.854175470241355 -0.38456607048111835 0.20074042197929298
Ni 3.5938533276727984 8.707348858235417 3.468502525620421 0.11932309794306545 0.15802051451326335 0.5023367363353993
Ni -0.19054103542785428 1.2909503596442768 10.966961147505888 2.5079872066620164 1.4762934966486316 0.6910577652563131
Ni 1.6005558108284417 1.8665418167349475 7.4128756032655305 1.453382653488729 0.5928310829722306 0.06326559282786524
Ni 2.9791988514353833 7.72475371089792 12.774745441415224 -0.9824388296423147 0.050274322774519875 0.737961114676071
Ni 0.6533646501898747 4.845999976974529 8.732875957803005 -0.06098759542696593 0.9993610593189499 -0.6262644229300117
Ni 0.7208229094992156 2.0679414083386094 5.218382237449382 -0.270183861483096 -1.9775457416706006 -0.8197350507207689
Ni 4.224260813765266 7.697572591600695 9.570134077004534 -0.25253735204592637 -0.4853638559264866 0.1598208009467957
Ni 2.7208531942240093 5.1857963817903645 13.387609760800798 0.05731271767854 1.154074363835851 -1.4224317136331694
Ni 6.973295318388407 7.845350826907617 6.237175967750103 0.7445572798363499 -0.04618549741712691 0.32186097814241343
Ni 0.7787960231921279 8.176358515466871 0.25951532513888365 -1.6499931124600486 -0.6519474295184127 -0.7387386162720438
Ni 8.412561053005447 0.34884257767087073 2.054068387313995 0.4980370805187809 -2.838128936755983 0.39344820346209664
Ni 0.7545775069828699 3.212058157605544 12.55704736536482 0.6368504259759742 0.07732901289946682 -0.4888978372216742
Ni 1.305842093828242 5.768463264824162 3.934260960384244 1.3066994183651561 0.6262731646807601 1.353978663067094
Ni 8.119134618997517 6.145137086008499 3.9844668492885424 1.2717599261754935 2.139738642393999 -0.24672974422521377
Ni 1.8759880660307462 0.1929803903930635 1.5543025289824248 1.5391065753201105 1.302842249402595 1.63024858284327
Ni 2.244651097371096 7.028852229687914 7.9359412837572 -0.3749007794772124 -0.36322899956623894 -0.4393385382363079
Ni 1.281374455946379 8.168431074881378 4.410523253923847 -0.05489150983155708 0.668107584218043 0.3301396732114379
Ni 9.279087727377997 4.644591124342146 2.5851865322788963 -2.672054698700308 -0.6886111034880334 0.1791920063845559
Ni 5.890847759377086 6.834731806659251 3.223180653099911 -0.024623454975635013 -1.235056400106873 0.5398509312307734
Ni 6.246804659311713 7.493181687720029 10.952932541198756 0.129443474206519 -0.1883253361443918 -0.7887118628663772
Ni 3.719692185938792 1.3470721936957872 5.575000374834716 -1.7251372018930549 0.22970004243643666 1.0695511471807904
Ni 5.267126736021448 3.160483488656227 1.6958647618115623 -1.2185020952926175 0.3615649816002547 -0.9426780048046087
Ni 3.3836650198125553 3.561374899946949 6.861466544372105 -0.6797814210115455 0.8662715037194113 0.28434524058514254
Ni 1.9083646224406603 4.120787339861384 1.51451992790403 0.03830146668335984 -0.1134409281306756 1.4423454218379612
Ni 7.2667310134250584 2.1961603509859953 2.3020472489746666 -1.0706315247291627 0.6602253532564887 1.5070186936466303
P 4.1471627496598495 4.3415239594352695 3.131661315069575 0.02348805581961116 -1.1671458523078286 -0.2120620176396993
Ni 6.765450050794671 4.554064568590741 3.056420087222794 -0.9576881050601959 -0.1372118052980282 -0.572143472715892
P 0.36682101272766887 7.761306991261172 2.652335473228944 -1.2502606186511371 -0.6994634728215051 -1.6962130626595369
Ni 5.025349059192606 3.6199694286670656 5.283267782979927 0.9023003723185105 0.029282293903885055 -1.3341027500787734
P 3.926500218315735 0.7235410214289381 0.5238602767559624 -0.02223721413164557 -0.09987887317552475 -0.4066657305936351
P 2.2620710923959955 1.2012758185352383 3.846577540450301 -0.6131055169505506 -0.45764170742086996 0.8431287470543609
P 4.946861840778985 5.071154107248509 9.76855810008002 1.1873542089349036 0.7873982862612762 -0.570353984915637
Ni 5.062050516015401 4.321973927804454 13.140051349844077 -0.019384575174198875 0.11517796542644033 -0.5614248007468073
