# total energy = -340852.8816318386 ev
CRYSTAL
PRIMVEC
9.53600595704898 0.00000000000000 0.00000000000000
0.00000000000000 9.53600595704898 0.00000000000000
0.00000000000000 0.00000000000000 13.95690863238976
PRIMCOORD
 96 1
Ni 5.908795479882519 7.718510115690444 9.257897096053576 -0.2897103615517978 -0.11657793109776052 0.3147896731179288
Ni 0.3676187580116505 1.3777621660239598 7.837586224267002 -0.17032941378760344 2.413860662589236 -3.570996953179862
Ni 7.661494335024212 8.109944095417406 2.148191359078648 2.6376296842532185 -0.9883197139031236 2.5944472353284738
Ni 0.9819416234760465 8.870678984637792 8.208741886953197 1.633206122809697 1.9564027890443985 -0.17580792040367144
Ni 9.382743441940912 3.673965690687632 6.941706102536177 1.1977952017625693 -0.9033213573838572 0.529304523173495
Ni 2.267185458002467 5.8632801226120845 7.730145950373323 4.284253366020403 -2.39087371477576 -2.082804648211116
Ni 3.1354483523729515 3.603465997350041 7.2845016829843106 0.2021535002767357 -0.16311232721387395 -0.4310495587546383
Ni 0.8758897920752597 1.3191157283090698 1.7827019912363855 0.6040868583917081 -0.7043490830485805 0.24044673942997943
Ni 3.584155584931724 3.976161725026636 1.0823119024230883 1.2903173774627066 0.5308304728997181 0.2995034363828197
Ni 0.40951043295173395 4.407112914166689 13.733723609609237 0.5450551011395323 0.5398869266750315 1.4972297325806667
Ni 7.840933362419511 3.026871386548278 13.845184263688381 -0.2600550005792102 0.16232145588146238 -0.4080461558809295
Ni 2.703209802405011 8.941350326085768 5.123804805463499 1.304084349339812 0.022559630468070826 1.2739947290432834
Ni 5.244221676502287 2.414993553056256 8.30260193451358 -0.7476099506197447 -0.4446504373675246 -0.24747253592850932
Ni 6.490310669848653 7.61770499486376 6.792994947701641 1.4217436864272095 -2.407603883046247 -0.730141361521336
Ni 5.147440750263519 7.654943098811183 4.89806560749306 -0.6835156912429969 -0.10203731427942427 -0.7805645511688944
Ni 2.6981843271731822 1.008594760616391 3.446560552445846 -0.06560503959431928 0.7981807215887609 -1.3110867487995743
Ni 7.2668181132121985 8.654068605337997 11.264761029846085 -0.15465776868861753 -0.41947265255031624 1.3881920757240092
Ni 0.8884916241793619 6.830688872742197 8.888233818327116 1.3231668198925601 -2.4833562954872135 4.773951073435552
Ni 7.9145322577501656 1.8209575870381456 11.528629948337333 -0.09973643406038953 0.06793805860287008 -0.4138612199008098
Ni 5.814760923409912 4.765599992705855 1.9800105405233812 -1.1496122142994394 0.5524976734605065 2.6785410777556002
Ni 9.122563050621714 6.086432202118775 1.3038628865001318 -0.7856139406673438 0.17434830513900942 0.677975221040742
Ni 7.3864949901751045 2.8666664835222364 9.135076197868782 0.29428538251699 1.3084004602166628 -0.026786266954908704
Ni 7.60714863607508 6.233715816835276 3.777619216546095 -0.5094337523914969 -1.1836921867022838 -0.38381068037233257
Ni 2.640357985985687 6.585594443124617 4.85284491281212 -0.29172816331277496 -0.4866432368595425 -0.7671063687814595
P 9.429088431744873 5.355745268221904 10.204705212135643 -0.6540140822394543 0.10325576006755767 2.4204956514072506
P 6.166620477686989 2.5163136182140953 12.319833330751678 -1.5288057076147348 0.897416561863648 1.347662491041079
P 8.389854483424752 1.0389669401484114 9.265838681960723 0.4969687871552667 0.1879432702146247 2.3401088255180666
P 2.9260185856909318 3.4134706111660615 9.454730752235173 0.4629366372712221 -0.8121546672703496 -0.8304820048246278
P 5.633033254542812 6.1587628086338055 10.768452915475699 -0.5317357583228067 -0.8862631163499897 -1.2158106645033835
P 2.7698569492650713 8.632841455687048 9.455373479048504 0.3883867297787892 -0.018506029223987485 -0.08631681822037393
P 5.865006139722067 9.26709075956592 7.689558801072166 -1.8692508765172389 2.4579232001260896 0.47106826523942097
P 2.637392288078479 4.901526224118545 13.225832108589703 -0.4579522966827532 1.1022532653995016 0.7833917362050444
Ni 1.632421209792439 3.696823497387241 3.702238041669276 0.45161555583144797 0.420205931171915 0.9908594496058418
Ni 4.564771703555352 6.345592240781795 0.5197981582765783 -0.6330976438017613 0.5320954556550707 0.3171203781336345
Ni 7.199169685708226 4.542428841186899 11.054444414593743 -1.0127511074726105 -1.0845951859981062 -0.4873022105997802
Ni 3.9762475490818288 2.0292525689903975 13.163417041251245 4.517703105307258 -1.1776310681098685 -1.0793555348657216
Ni 5.326698593542301 5.429277411509631 8.113402804841664 0.17860682330504724 -0.35001224376564877 -0.06157560671995202
Ni 7.962383936523063 5.6859676245843325 8.607490936984403 -0.9530578053770361 -0.846397904723936 0.19661765806017104
Ni 9.020165416770901 9.302669598446288 13.113883210996576 -0.6802632457439705 -0.3999425529371886 1.6368681450423166
Ni 8.593152598163572 5.796060815384075 6.145701341034118 -0.28972630239139785 0.5492082040759573 -0.5567273952711379
Ni 4.900811023658608 3.2133384504632323 10.649386342905272 0.8217587660190171 0.2522149357095011 -1.1419138172139174
Ni 2.686311999538217 8.8985241225447 0.6818730721052039 1.2228246339273714 1.013955412193357 -0.4226857601709753
Ni 4.257531121972255 5.364699577980324 5.702290406281337 1.5441721627684761 -0.7397552304620163 0.4990740064237276
Ni 1.532035673235585 8.709110432734802 11.93678626841825 2.274229706326754 0.1465647072678379 -0.8852287615482045
Ni 7.468352066816506 3.0707560867700545 2.8467066690862954 0.2671594728344754 -0.3625677118331562 -1.0091441068476426
Ni 1.8646420311311396 1.923231252809235 5.63970750523495 0.3766481011856223 -0.13728122508338295 0.7221048643701048
Ni 3.4730134334574077 6.686218379834784 10.318957055209768 0.2931345567419984 0.22730300295916983 -1.1737664429481398
Ni 8.446641399943804 6.268035902906153 11.797733180594715 2.1322860427706956 1.7295934378921953 0.9148748665494114
Ni 3.8742313554763173 7.796857942075084 7.250976899824885 0.09804387684931502 -0.18023664559898636 0.2037108174615266
Ni 4.752507056285929 8.417461221178346 11.558958262241143 0.018992739052418904 -1.944917414112618 -2.57082651058574
Ni 8.05832569422217 9.575866638136352 7.541713515594461 -1.0975545743722517 -1.9914037305996155 -2.5947801931878605
Ni 5.775157889941629 2.29821562195763 1.183859878127494 2.1757963073485045 0.1790580519098529 -1.5607722332190024
Ni 0.2710571599139303 3.5115007542081873 11.727013205515462 -0.5214372046102761 -0.00947322959775788 -1.3216241579957884
Ni 0.7197119444389738 8.62724382008727 4.1571350958086555 -0.5963455238833923 1.9803937526423572 0.2349597481734792
Ni 4.8984174861193495 4.468906233905305 12.65613870542603 0.17269919957136065 0.6140799650486779 0.6468491890598989
Ni 2.141462753151554 2.5130713761290444 14.008549399146734 -3.3105704281938473 0.4222962380420404 0.2453230936856743
P 7.979806219727145 7.508536796658872 14.051955391860659 0.9607024664064874 -0.5906772698540215 -1.5560162065912557
P 5.874475393811642 0.422919964775259 10.385768221375308 0.6777800743108005 0.1409738434436217 -1.0249399362293188
P 7.272596932928495 3.911088019178439 7.153501752339671 -1.4447067229812862 0.31202188056480457 -0.006952777168749317
P 0.8892640406760945 8.593810582586714 1.9810013315605484 -0.05582276339657483 -0.42337558714914825 -0.5266331469889188
P 8.954834238757126 7.315871328757791 7.649460848885607 -2.8812116268780703 1.06300023343615 -3.2927683670154195
P 1.1667303503116797 4.915935129384756 5.637334946909184 0.41871212023520793 0.4750707015305947 -0.29413960096774505
P 1.7643613906417432 1.3777907740423574 11.912905248260625 0.24934738435371892 0.23191041982419414 0.08960011695733601
P 6.675862277174887 4.897692749653279 0.18998966458030014 0.46714167649150523 0.36737593185507694 -1.967626682784676
Ni 4.717557593810307 0.552042255812409 4.41754339767442 1.3893786398329426 -0.049287276270902215 -0.7186217909175108
Ni 1.0798477984384496 7.425249319097595 13.665070087058899 -1.1765512047821285 -1.0568303571800122 2.1565721690115693
Ni 5.449093232252971 2.9492769046481055 5.897268355669549 0.36106824446949426 0.7943068404556515 -0.141396275693021
Ni 9.434991219540892 0.23806353229608493 11.015406866289116 0.1424550559748385 7.893286705147696e-05 -1.3457917563809274
Ni 8.427674283746256 3.6417530619720386 4.883732036675296 -0.6830138119059139 0.7496709469138315 -0.37942000750380467
Ni 2.78463775877045 3.4284230687818256 11.670376004292692 -1.1240204818732644 -0.10246283185261708 -0.7792116366854257
Ni 5.388396553219592 8.33589022472092 2.4761374707772488 -0.9577037887894796 -0.11413692575643569 0.25742270516268567
Ni 1.2414449583598368 7.350792183215016 6.484533757333582 -0.7294160533195373 0.774265348423744 -1.8330667132871978
Ni 1.7313763454294173 5.224243743654695 1.8803306684203327 0.11720348049690138 0.4450918957803174 -0.5860531408184487
Ni 7.707314844490885 8.38980680339409 4.571627138364009 -0.25648888049450663 0.8194566002484015 0.8152775291700476
Ni 6.391689294426312 6.51773622348573 12.678358553315375 -0.9258835589550892 1.0410828645377683 1.6730263401304284
Ni 2.898449991961867 7.487223822952728 2.593333078944478 -1.2543728410472976 0.6198405216815389 0.10319636758453196
Ni 8.709768417157944 8.165834627360002 9.521235812603859 -2.0055324566915136 0.2372418593394366 1.26643054354278
Ni 4.234024866855636 0.7407045083390646 6.595085630028298 0.023799159302126754 0.19264556078630046 0.7074344068421236
Ni 0.5136731815376719 6.560457530959341 3.576485775199352 -0.42117163751929404 -1.7650062701738507 -0.09773200203585104
Ni 6.700303060892491 9.201587933441761 0.5547314095417747 -1.6379073849401085 1.515979502384344 -3.079883853474425
Ni 7.149124725524852 1.4571303450647781 4.654964203157174 0.20433610975035132 -0.6890497336873488 -0.6002050068387985
Ni 2.6434476519726178 1.3580989213787398 8.294981712013097 0.9328597331626062 -0.09243501530296984 0.5062391567135991
Ni 0.8350871290355081 1.9449161307545455 9.886292245767704 1.5610943924451115 1.7181222040278026 1.3628973057129625
Ni 4.919625563758036 2.8697275414907697 3.3349053638416004 -0.4130513224050047 -0.29583832882640665 0.6618232938712278
Ni 3.9922585033783005 0.9648435644804696 10.954540446346579 -2.471057423515202 0.6541511220379508 -0.4931470994163313
Ni 1.6063116250016474 6.370786368983867 11.667375976763406 -0.5446876904977845 -1.7456224663306001 -0.20198946389504566
Ni 0.9127845998019118 4.277270654666535 8.850648603756472 1.2572460488300348 -1.4681171314854262 0.07176514565844415
Ni 0.27477906310744604 1.8218158275900709 3.910823871808569 -1.2576340282970728 -0.6151444017574503 0.7595041309541694
P 9.50277315113072 3.82843945402804 2.3173772726802806 0.1103635747569325 0.2854024782050633 -0.33986847046342755
P 6.968484161356859 0.8061558400301089 2.297098002038901 -0.13762266758320169 0.16000232082998248 1.9934058486313087
P 4.396165579126576 6.197459921519501 3.130018550481105 1.1750388819026603 0.07052664526565273 0.20773022303356484
P 0.10554928387760383 1.792549824769421 13.871562763852108 -1.0115105501972903 0.2526031722868553 -1.2400654232856902
P 9.094307864451109 0.44597325960058376 5.521855819845805 -0.21123463664239747 0.5479640472562112 -0.15849899681157864
P 4.810142677350774 8.605406366043837 13.488305909383767 -0.36988430009922746 -0.2933387023330045 3.9313748564505513
P 3.8659254941349075 1.7844060755322637 1.4382032800929874 -3.2904080943133587 -0.7957348311514296 1.4152074279705884
P 6.2681694069920075 4.524987485970552 4.248245912801037 -0.07520168214381887 -0.9795684500730548 0.7735030163364226
