# total energy = -340869.3246388484 ev
CRYSTAL
PRIMVEC
9.29609365863169 0.00000000000000 0.00000000000000

0.00000000000000 9.29609365863169 0.00000000000000

0.00000000000000 0.00000000000000 13.60577273295609

PRIMCOORD
 96 1
Ni 0.6885086645317893 5.127316196527822 3.773738037843906 0.42797117693963066 -0.8211720402776117 -1.1191328147636597
Ni 3.7286817314283636 3.55061505869796 13.45934724611747 -0.2894722773990628 -0.8733983445721797 1.001988469639468
Ni 8.302936135869386 1.1912386170903069 8.106550581109094 -0.9942029121567781 0.12152550491102296 -0.2843735227199167
Ni 6.790545373500184 6.751669110103758 8.489512452672743 0.5267462755280153 0.823000351735602 -0.5885887627561088
Ni 3.9430868340049243 0.7031769706085997 12.259535771517793 -0.7386820520024956 -0.19212439817550783 1.1707261134599192
Ni 8.945668046732353 2.5575784530555743 12.949022385095327 0.6810551455176465 0.6522130244749734 -0.098633687914514
Ni 1.4409502831244545 5.062187764831179 6.341228915495274 0.46723012244025336 -2.6330649477006713 0.25682518078800287
Ni 0.7151661425125622 7.006224040898675 5.717349482434307 -0.4609905692884448 1.7541276755881339 0.29034902357706127
Ni 2.8791024420780995 3.463148114102796 7.574347363821172 -0.7724126114857214 -0.1480376922689386 -1.052598835597168
Ni 1.1970393794909213 6.4064679707056476 10.13398769043517 -0.9973856807601339 -0.3834113880513848 0.4485839680939758
Ni 8.630781468533607 4.7169773293394766 12.382409677381325 0.4770764191067139 1.9973375795855473 -0.15008686148848346
Ni 2.8573681752629767 5.285461340693294 2.224040192676392 -0.039799391385125005 -0.05789610098583577 -0.9780831237767801
Ni 2.3392689911709073 6.547145755014141 7.903430006542318 -0.1679413731714011 0.7025032880890933 1.2324441592950066
Ni 5.170831210626022 8.96363739564323 10.225445448008832 0.1992998328780245 1.6068227477201618 1.007491144625252
Ni 2.5340314479902597 7.008390030705315 3.855467433474873 0.1860949041519763 0.8520756718350034 0.5843274163765937
Ni 5.04166199018285 6.592092367525313 10.147797037464198 -0.6470242811851824 -0.933208888971909 0.16026405913180142
Ni 1.1138021574795387 8.784018275283175 9.624981945093552 -0.9039769886899851 0.3137087813489242 0.7650913952339599
Ni 4.397033676227376 1.5341901018394606 5.880169632066557 -0.5218400964756497 1.91505687910776 0.7984920821815925
Ni 3.049676463374376 8.254847443724548 13.60037084510754 -1.2760726946182346 -0.2773358991468449 -0.9834356463379451
Ni 6.5282932772121445 4.752246708422701 9.586627192547565 0.12311933176070407 -0.657866366106009 2.940665559269329
Ni 4.662641662301669 5.5567585360451135 3.797439358062827 -0.33403900826584404 -1.362096921298854 0.8353552737565292
Ni 3.0859126361910354 0.8682105201248019 8.931631875019711 1.7997855826365647 -0.7358646371583585 -0.027566853874675105
Ni 7.115443844496143 8.447276581052629 2.9325205846785023 0.8427482237864905 2.053411796871296 0.6623148887956658
Ni 9.08411476857907 2.139681861777968 1.6240396352219286 -0.38873819958093697 -0.14732164003852047 0.423391013768116
P 8.357773791961094 5.579087752850043 1.2339262788589318 0.98828808933424 0.46479528774651563 0.256771444731932
P 1.5669309434660066 8.80090927733753 2.939051090425989 0.9846749180616848 -1.49016254132124 -2.165077121158787
P 4.050270793106024 6.66836681543724 0.829327749462862 1.4678746764573172 -1.4554361935836482 0.865027089789349
P 0.29463782713942016 2.917365163297538 3.850841697304126 -1.2107363353042695 -0.6313045564570805 -1.0059711084362999
P 6.949434205152915 7.8589454098826055 11.631901646255532 -0.3922811797371889 0.601433479929261 0.7002564010364456
P 6.3936114732696705 1.7671502072231158 7.368151641494584 -1.3683436735395145 0.5448432422390423 -0.8405599578859201
P 2.691730379663377 4.820563700220964 4.514054761566184 1.1754955098241047 -0.4676389278428979 0.01420123120104651
P 4.268859137798413 1.8570527283390506 10.591467977831458 0.4097178871563976 1.1626533637541137 -1.2067768364358895
Ni 4.604996585945562 4.171436076967578 11.23672191888559 0.34432907733794244 -0.8848662360024632 -0.14147418011880794
Ni 8.5268139578149 7.2113702342588715 13.17693192283114 0.35625282535872194 0.3113893891871282 -0.7464465264392628
Ni 7.818944319161701 3.8559359565918454 2.797728157222299 -0.29261905055816056 0.9560246013148437 0.3485991654682061
Ni 7.229795091755694 3.6739928128341077 7.792025620951029 0.4445375659387441 -2.04582652832487 -0.8241640330264
Ni 4.957634600216255 7.653204266532603 12.423702925111341 0.7958212202176488 -0.09108132948855283 0.2998335660287288
Ni 2.1519062248497756 2.7034899380556485 4.905411935251621 1.6671498267449933 0.46715144668351805 0.3831733038986498
Ni 3.2293420642023847 5.873522925149186 12.45880590411929 -0.7042516382387678 -0.07835951104651022 0.5330516489207529
Ni 8.370546624554756 5.342399913936506 6.8988885554720465 0.9924213947763232 2.8170703163134707 1.149031402095305
Ni 1.1945294342214245 6.978614642934212 1.1023521590038385 0.5746418136577135 -0.9419562961472357 -0.714331391072273
Ni 6.334488318032637 6.367117606536094 6.041820333125092 0.3652786830064161 1.4820190862784992 -1.8805382765056002
Ni 7.297535725751333 3.8846051092256517 0.49529772573273007 -1.0509548722358415 -1.6745342921345225 -0.395368560413261
Ni 0.17659045306819582 1.8700765554596612 5.820495218479594 -0.43094697173850294 -0.4972112421833759 1.0650542877517013
Ni 0.7902032803675633 9.136442479401282 7.363062959863019 0.4858377102391116 -0.5691393957822456 -1.4995632658098497
Ni 5.900565261404615 9.115953889127315 0.5057195762572957 -0.4186614695029306 1.466082874664217 0.4164315517311473
Ni 1.071002942587825 1.8480448136496348 8.606263021688061 -0.14066916771900936 1.9061233240635562 0.3620144104328475
Ni 7.78499498536836 8.315365013000191 6.96527103019408 0.9667440446148771 -0.2705024211647793 -1.1019192790988508
Ni 6.693475564225798 7.031146867815418 1.044675475929523 -0.768273135396051 -1.0930790550994012 -0.31283692026693216
Ni 3.9477441768938797 5.8784312625650905 6.240315171521122 -1.0116977265074318 -0.22782930777628504 -0.27632545560445954
Ni 3.03287842225593 8.439458566342825 6.602813552263501 1.50832172872877 0.454826606569578 -0.24620163963588565
Ni 1.2679592774945885 4.5106226438124875 0.6018523392977367 -0.8491065619043505 0.02164791728707885 0.5596491969036232
Ni 6.509933492370456 5.659108526479034 12.433050147216818 -1.1942730475419239 0.18073775360512098 -0.4107951793809764
Ni 4.904163469882385 7.852103484999828 2.675412016974212 -1.2735586699471293 -0.38962831549537413 -0.6019320168322343
Ni 1.4135361031253961 1.3252603983878388 11.689291080037894 1.6785853222754445 -0.24461372632347547 0.4623367989036941
Ni 6.576307600608256 1.7065489731051569 9.677514169974758 -0.39191711152955083 0.7808607422530746 0.8233729045836724
P 5.490291466871405 5.282607439960941 7.674988732253116 -0.5587014882783733 -1.143802806706514 0.7569433122055287
P 8.488114320196697 9.303902309344663 5.0381768846956865 -2.034590807510051 -0.09299551579213015 -0.037831983246109036
P 5.436281163109273 2.0764219448930605 0.7350709381090299 -0.44855954261394365 0.4193410120684585 -0.07764448725735659
P 0.18013319433562244 3.84196392792498 8.07405980440014 0.5066186515402049 -0.4859310412838663 0.21290148282185914
P 2.445895184656563 1.4509900642024411 6.745429572085661 -1.0948844837392562 -0.734873991110315 0.2930150004449986
P 4.040323972963944 7.992251391973651 8.74949165407785 -1.5659483781033032 -0.32815992377724773 -1.2173001045647165
P 9.185116825442336 7.326539537754406 8.366774269775638 0.204409386190448 -0.9104787943642447 0.534227414396409
P 1.7624649760533888 2.357879770539546 0.4714727674690521 0.2601164499447649 0.04514445774712225 -0.5750069103066161
Ni 5.1836505236876365 1.0108758092429935 2.8453613407811917 -1.206190110694484 -0.037975965023141045 -1.261241286032357
Ni 4.91584865952593 3.2129623472955213 8.622236499305009 0.00903717050160379 -0.6227900912281661 0.16019438223613058
Ni 8.09956549638502 3.8120212104692444 5.243433701569611 -0.2708271514940497 -0.6309453733454488 -0.8451375499542736
Ni 1.2981529894772745 9.11664180005303 4.930052160923205 -0.504303373143467 0.7599088225917557 1.4050009197512319
Ni 7.152897805573189 1.5513228023271732 3.2337790896732397 3.6786595840658642 0.7730250482587397 1.296629949944296
Ni 6.752793937428236 6.246398535166895 3.266202004898982 1.4747973717190794 -1.1086697104488068 0.7964704237658734
Ni 3.3826904240750415 0.3065944627158151 4.071799616252791 1.162868050868081 -1.118259411019771 0.7006739481898384
Ni 8.552666394090716 0.5045603533865319 12.453077651248684 -1.1826236362284537 -3.0869317614601415 0.35207452561131625
Ni 1.4621360804177246 3.8811004819419472 11.967977740184983 2.0900315049768587 0.47039463621116406 0.04225350935257239
Ni 6.1373646534412405 0.30906722361094885 5.546080113337443 1.9638924125532238 -1.2664559974640768 -1.9593312755451031
Ni 2.8910293301550043 7.952715105932283 10.930374732259285 0.75914546206317 0.1955020563984891 0.33294217565723955
Ni 9.055547872974762 3.3971365535150335 10.52758894111341 -0.7473021895713388 -0.6409351375683091 -2.091011095281308
Ni 3.6596024599556602 3.0551146781249523 2.892138354120378 1.0623011504865965 0.6256944093591547 -0.07136533911686418
Ni 2.5146769811343628 3.239093666379059 9.92451323589913 0.7714972987603036 0.04447854202834921 0.6024881464460204
Ni 5.376600242256796 4.870316393118543 1.5894674631580095 -0.6892996449146258 0.19191922414323723 -0.5850069589421215
Ni 5.73307754318046 9.0985237136447 7.727357345887126 -1.392802577912827 -0.8455165305602471 1.3279639841708872
Ni 3.310785140150757 0.46350508565243875 1.6544480869665603 1.3256165669846331 0.06137788888684913 -0.9423774428450544
Ni 1.8346398466918044 1.584574929101209 2.8133204950020274 -1.9376782160517014 1.82305355202557 0.17889915773448545
Ni 9.258286378094958 7.343170249188218 2.9834603887276168 -0.7270444677635671 -0.00035661200847035356 1.0212290630366347
Ni 6.147488099361544 1.381260066178387 12.24167146846449 0.7457788109482769 0.7354406622470624 0.06125653281763644
Ni 5.721754901186952 4.080882829300292 5.751051540138134 -0.5537557142373237 -0.6522749880611605 0.45493870666741004
Ni 7.478093751564051 8.738597561998876 9.641866439882392 1.2560018920102884 0.36520334968379037 0.538420369431834
Ni 1.1256825650884899 9.40671710445812 0.8338261291514155 -1.5310842192362664 0.6199541644412677 -0.9310933852908029
Ni 8.048306836325745 6.475891197641208 10.500608888685036 0.5990063585450071 -0.9567239413747138 -0.045415709130637916
P 9.043304917715773 1.100611000674295 10.422675088067166 -1.1060626118432628 0.11578474577250382 -1.5390726367583816
P 6.794905241394236 3.4485904315397153 11.67178002854104 0.6704904826279227 0.811389506969551 -0.11110148136422157
P 8.199795977480255 9.309758848306824 1.2405088427305266 -0.8995737174159668 0.2808842786197356 0.021683398510704593
P 8.371420457352283 5.968807884454153 4.8007156107954 -1.9380127165729852 0.8850336148182629 0.15342081095772286
P 3.0582381655714372 5.397776743456475 10.300168377900468 -0.08173074151158828 -0.07113342561171619 -0.4096831772637202
P 1.1523530576002896 7.8193719394668735 12.331401082239639 0.718402218707537 0.2681992269528994 0.01805068685412375
P 4.635413404174426 7.476188052377952 4.825165266548375 0.09701337870227163 1.3378856141599733 0.650528437683699
P 5.557650961029824 2.8797810569102227 4.021308813524109 0.2090589691473174 -0.22787687318476882 -0.37691780990724116
