# total energy = -340889.3715831712 ev
CRYSTAL
PRIMVEC
9.06651405139835 0.00000000000000 0.00000000000000

0.00000000000000 9.06651405139835 0.00000000000000

0.00000000000000 0.00000000000000 13.26975977150503

PRIMCOORD
 96 1
Ni 6.366505964466184 2.707170344531413 11.605147589964792 0.22441411144714898 -1.7538394549237537 -0.7303485924361357
Ni 4.7673089343574295 0.4569096810467996 5.769770694861722 -0.3601670728114636 -0.7938116459867878 0.013016723974642097
Ni 2.5245888903696065 1.4452657594384235 4.610790080659101 0.28464914497880656 0.5071554978802815 0.40569873869467543
Ni 3.3384807643715506 4.654603101768025 4.752338306831757 0.39361044007157375 -1.7493467092597228 0.5788949325071127
Ni 3.5526862185391352 2.621564321579989 2.774918961974986 -0.47047691151232524 1.6281004261520156 -1.1691605687450122
Ni 5.237652468847051 4.410650415943628 2.692898745216878 0.5036230592469907 0.06617325339296347 -0.0473967441164087
Ni 5.256547083529402 4.693480312784304 11.206935425671839 -0.5340896032669641 0.15686968873827176 0.1575623439299222
Ni 5.797273964362161 8.03633113678968 12.38964219974118 -0.8631663824315262 -0.09600833447652497 -0.7928281990275959
Ni 2.339441612812837 6.562514925511178 0.09228985689759923 -0.07358085871094425 0.2620352642340326 0.2700126260125543
Ni 2.644847128923693 1.5136000736710948 0.22698289201395652 0.683283777737849 1.7129483731363466 1.106970982590145
Ni 8.320983402896745 8.935448240164996 6.492362775269 -0.49019213055306543 -1.9588473939301492 -0.06029108358057359
Ni 8.924813219520852 2.3931244408042986 1.244544024539358 -0.6308024200096813 0.42042730315410165 0.04960197929784361
Ni 7.051481079270258 0.9076486928264166 4.698251112326461 -0.5122090011437889 -0.535859036462561 -0.23262287251018646
Ni 0.8043992340919521 7.40048746006798 1.8792099611232282 0.04760474636215673 -0.9848968042645038 0.47527381868033625
Ni 7.855345389050185 4.105389964052982 3.7108751240726305 0.11921716849282049 -1.1251862200465912 -0.979166843759262
Ni 8.078653623035947 3.899471303464893 12.56171193784602 0.4677463999550396 1.0958992981570157 -0.20813748577431251
Ni 8.10324200836154 7.5482081688105716 8.92582413580544 1.2824346322805205 0.4957986781065654 0.18516673591075208
Ni 6.785451432432652 0.8638719377725451 0.3730299223158749 1.5558362293699657 0.2820960395396497 -0.5429501389813874
Ni 1.6713846126907543 6.8139112191350995 9.394830359515 1.422544327951634 0.16383095054745334 -2.3732333759861772
Ni 0.17442612503187507 4.826549535285686 1.4211379530119959 0.189989354110376 0.6343597983436365 -0.09801508049390863
Ni 6.518632998897655 1.9003866173197588 6.941410882231794 1.6847708822608662 0.9660233643987685 -1.9619558576521436
Ni 3.7449144433449058 4.479583120084666 0.3601862989190324 -0.6779698217241032 0.5847272229181736 -1.1005414249147176
Ni 6.288815008029968 5.617675393228423 4.706173432052679 -1.3462069895414752 1.6111622556357799 -0.06872790149401713
Ni 5.56973166844902 2.9428906358588924 8.871497585336797 -0.24416635437341172 0.7361495153886289 1.2705754189490892
P 0.41343121429573504 5.880114700615833 12.622327928912142 -0.05820129093108042 -0.551848727022598 -0.4433440598512751
P 4.321862046661348 6.306857370418587 12.325151180692698 0.10487658350043227 0.11009592291784265 0.8034897925065001
P 2.699808335355755 8.462829010720831 1.4360931674642703 -1.0331602672565818 -0.16464521891863257 -1.258786139623645
P 6.344084475929977 7.893751141350782 5.588121278314766 0.6456875646516299 -0.46913453855181786 0.6784660446342315
P 4.948648276133686 1.359741335110868 12.540732024998148 -1.445500422527175 -0.9228105764567204 -0.7958590154341196
P 4.059957663585964 6.285922790139532 8.080580257210611 0.3129708747416352 0.020355680838216556 0.14516602714809837
P 4.52152481275288 1.085207298363451 3.7044660054934777 1.1077839654097439 -0.4766976956110564 0.2939241425228293
P 0.36425263034179384 5.743926597379935 3.464071019669731 0.2855048081108825 0.31162258824385686 -0.7299325879446397
Ni 0.5825615886385689 -0.007764562386740018 4.511651379264838 -0.02468953232688006 -0.3388719108781132 0.9286989169166975
Ni 2.162970988927377 6.665202260392329 4.546591003353792 -3.145010924991061 -1.7285971354171972 -0.21785471306207643
Ni 6.01520575568639 5.708467462052354 9.118275396849784 -0.6115245456166759 0.6565003389964177 -0.8452468218386282
Ni 8.802832343351772 2.6151542963494596 9.878765504786923 -0.4419011567571615 0.2713722253642423 0.7580635418529009
Ni 2.4568438995315387 5.070230225697189 7.263030044905246 -0.4864028387139624 0.6223383484027282 -0.5438474539846763
Ni 0.6459555595217134 9.527636653117252 9.082791781935043 0.4784337044655567 -1.3015638969108034 0.4803116382145599
Ni 1.3206555942780371 1.3642745919924304 11.25315379288212 1.3250619800327437 -0.2899037085095265 -0.6016782489502154
Ni 4.549150480189122 6.766783480594378 1.3260483566643437 -0.9748332493809148 0.4202750938469536 0.3714413601737022
Ni 5.7435639368294105 7.904259230802244 7.924594514521555 -0.6028352453727941 0.5816876647609015 -0.6315624381041575
Ni 5.221985533064371 2.9346038422793965 5.016844779357158 0.3238990916183648 -0.09026603267610907 -1.3949263091240491
Ni 1.1300230758945768 7.278016992155692 6.938239415717454 -0.36709362472796775 1.148733154128596 -0.6576028280319771
Ni 5.348581264738882 4.704768122419394 6.9237094207606695 -0.29658909094950214 0.3497718456200686 0.24630319821075644
Ni 0.9392636263184324 7.710825159665977 11.32059052225224 -0.9856925606929218 0.10511749586664476 1.3075987902509738
Ni 5.007517149997656 0.8209592214802995 10.213760495215112 -0.8890741034362237 -0.8891898030784815 0.8004494630182796
Ni 8.163316728556007 7.283574765092487 4.489956118481056 -0.06219035748581547 -0.19654643850260342 0.3178788535662138
Ni 7.580385226155902 6.3454807190494975 6.909112333602039 -1.4933031438327509 -0.19928646314158582 -0.8699564087701662
Ni 2.640449869748578 5.280936005552208 2.3537104921732426 -1.053278635273012 -0.11664272289742493 0.41497039380458856
Ni 2.813828812440812 5.458240748703875 11.046742820596693 -1.0074528351881489 -0.9613267302540476 1.1573970004511809
Ni 1.1561709015874284 3.275949018947279 3.5117753884857876 0.16136706238799306 0.32103025471100194 0.0016527051120745731
Ni 1.1198323144248246 0.7780945577109983 2.443293994712549 2.6651152912679974 -0.11784882739038414 -1.4192782556058525
Ni 0.950415438247076 3.157377151953134 7.815702057620922 -0.018482632185219783 0.32368131918060383 1.2467513199462978
Ni 3.7885062415180095 2.9120735555780315 6.8591250166204265 -1.2124959983078538 -0.5365478349994696 0.26314906612350164
Ni 4.147150326445934 6.88752224437791 5.751273193482196 1.3231542214870697 0.4980985298843358 0.6293425476347033
Ni 0.7854067010609584 0.12947888305118424 13.311028474221482 -0.9900904326503013 -1.242834244280079 0.5447118588675006
P 0.190221805309991 5.859959840520405 8.108592158133161 0.11848543253311852 -2.4370880085482933 0.8648905642114846
P 8.483990253843965 1.450524337421036 7.722083956457025 1.7770521455947912 2.753018994359517 -0.4550811457825453
P 1.8066569980365752 3.4140864226422476 10.15261320644247 0.44457818936869237 -0.2546446281969163 0.08711565997258545
P 4.288043950324893 6.171802581403081 3.5155443382571185 0.16055048002396866 0.3992218727210802 0.6899527051175924
P 7.189636615992752 4.10622408331919 10.117209376848844 -0.1390671133392121 0.8755189904596083 1.085572719420027
P 6.391828737406591 7.979665425770152 10.054709364222745 -0.8387239331184457 -0.1089857205727994 1.0835865422279338
P 2.373975963736579 8.469565430446833 5.640882041856518 0.5372392046395392 1.0815810817621307 -0.17733129902673328
P 7.042051904956608 3.956037282833028 1.3053993715688275 1.300984884478882 0.25417488764934937 1.4186419075734342
Ni 5.3063947761990615 2.978839362929682 0.7351038694003899 -0.4091051932730632 -1.3312233716484494 -0.9794422089078358
Ni 1.8288427572149415 1.1259068786461182 6.897620527407279 -1.4078916110354656 0.5001114465493065 -0.5681924584879441
Ni 7.133179434789775 0.8969864726409819 9.143195616579108 -1.1226932784214085 -0.41262169106675384 0.1973329389596408
Ni 2.8918552298862634 1.8023866700541435 8.995132193616271 0.24001325143698665 -0.9890319094787999 0.6069829489925805
Ni 6.189264686910859 1.8918731608961845 2.634697166765875 1.4321970205500496 0.4391372208587792 0.2372220618450947
Ni 4.059685668173071 7.295642294911206 10.333864603035225 1.5902190777252097 0.33774576769347 -1.2734648246817424
Ni 7.958957508335175 7.2615884692169095 13.24771791526496 1.020419679761462 1.1739783018486296 0.2936202381291653
Ni 7.679763283513512 3.962329443384637 8.04646387257135 0.5741576749324434 0.3866944296780308 -1.2961728078022194
Ni 3.1716659776438187 8.72024546948347 12.322033206609559 1.0126837445697852 -0.7746283881901175 -0.9406180369517865
Ni 0.4638201778370533 5.118826739467538 10.50756631361743 -1.088269292415584 -0.7017234725002753 -0.1260871561397764
Ni 8.77758210252147 2.542259525693937 5.680439241405031 -0.1692392660472182 -0.35019324942820335 -0.3021269900485958
Ni 3.624465808001794 2.8031121931727987 11.329720501611707 0.3885307115558212 -0.217761896237954 0.43701708919198284
Ni 1.454731199807126 3.497326085501496 12.552741529128783 -0.25567384079237904 0.8051952052333812 -0.678015073139742
Ni 3.256356282705167 8.57592470340205 7.622720405521437 0.974841734021347 -1.157392886686123 1.6634276406983997
Ni 5.6312570308455845 8.100150327168317 3.343952405427596 0.8160732855984656 -0.043491752635047676 1.051359306763112
Ni 3.3510560189610046 8.246692389121701 3.5987187222172725 -0.08099566311777663 1.7581180276944497 -1.0993461190550355
Ni 3.616423810293902 4.19257356039919 9.23370934343051 0.19127541991165126 0.8346009120890078 -0.9331104157208316
Ni 7.371166354558036 6.209220083703497 11.017483367380336 0.3506563051075509 0.020703293985622408 1.3621892239023443
Ni 7.936046428055759 8.68954625388153 2.425234405947781 0.4644489601506904 0.9566151837109913 0.4999818629499776
Ni 4.5934947990045645 0.4916090425210306 1.2918585332636006 -0.13702951408389305 -0.9457633285981518 0.8286171837017472
Ni 6.301154533261582 5.56175313633747 0.1041207507071007 -0.6996323942992015 0.04601529038784978 -0.3653977250827836
Ni 7.837783551891013 0.1334953486482485 11.25080556581747 0.5011725408239691 -0.4119439482734389 0.6970890590520575
Ni 0.2876378690892609 5.284127418396827 5.600939515473071 0.08884755506202763 -1.0146776350713622 0.36847096469146867
Ni 7.204442232967935 6.184024241955774 2.49321512614369 0.25162461042366985 -0.3702198290617753 -0.9166864658368535
P 8.572116767621537 1.6417552457128626 3.361734558871213 -1.5448529908855846 1.0728884390841391 0.926812755637578
P 2.035187543949897 3.314463569413033 1.3430453500160737 -0.10743226004275047 0.26580373013752934 0.6894626528550513
P 4.891683370159974 1.1572860827802929 7.871103896621872 -2.0931883054382854 -0.8580357460731802 1.6117970610063015
P 8.687841749294062 1.752402979678037 12.428085124748206 -1.1190736793909501 0.4371307319517117 0.14750598813518467
P 6.330267108954975 7.908330095481886 1.3326288323536197 0.9402426558902387 0.23100641995268603 -1.4080451058941943
P 1.690252027831817 3.4746870006349733 5.855082056115845 1.6816035402764782 -0.5559748333758295 -1.1175148195442626
P 7.042840691653999 3.9699271819181354 5.760309787749902 0.34915812329546964 -0.46842208586582557 0.8003774721297635
P 2.5137362733951463 8.765795634629407 10.107575299324148 -0.1849373935087654 1.3024853802838086 -0.1396828925463401
