# total energy = -340857.9535290237 ev
CRYSTAL
PRIMVEC
9.38132459977174 0.00000000000000 0.00000000000000
0.00000000000000 9.38132459977174 0.00000000000000
0.00000000000000 0.00000000000000 13.73051683059054
PRIMCOORD
 96 1
Ni 8.331666828319957 2.2898030553839646 0.13701049120030093 0.5331989731318946 0.3886065590990791 0.4082536439060453
Ni 0.11889984433135684 0.02920875370445866 7.265941802800736 -0.7494246352309804 0.37833474485942586 -1.091324791412456
Ni 8.418472223543132 5.452247530660346 7.118586525119014 1.0398873015677703 -0.2853790811662956 0.2776611436967476
Ni 8.913290182156164 2.8668107975861274 3.1381233916152897 0.5813071414930311 0.40073085316643886 -0.8785801458834352
Ni 3.876353885315116 4.115558896381853 0.488096239637844 -0.37728702032120187 0.4325230579763712 -0.029803456514677702
Ni 6.0321071954981775 5.055886572249112 7.284162211165856 1.083918985866688 -0.39097403088999116 -0.7058544639495135
Ni 3.304815455272805 2.6774393820479223 6.703279043829499 1.0295743496775365 0.746285061160734 -1.1694793855370118
Ni 2.510498713292232 6.296866934392423 9.70866982819799 0.10602792349605612 -0.326326984333567 0.3191584916095858
Ni 4.728553399210418 6.462606793617306 8.631071798442905 -0.44046648119316406 3.605634083637758 2.0823801590791877
Ni 3.7741912619518416 7.094035599008666 1.1683792302841707 1.7927399886436932 -4.859253077238167 0.37970951371976536
Ni 2.2322298671763967 8.361405626856374 0.7731515358676362 -3.1641162783619445 2.704389149166955 -1.9594726862189737
Ni 1.2861983460378001 3.7764146358487283 13.225700224067733 0.26791280606073214 0.4821520338574083 -0.6480013003864711
Ni 2.9748555113854693 5.2891250609596465 12.023826851066032 -0.5859767790545586 0.4326917223437516 -0.08588255889643273
Ni 5.416054380895837 5.373707082285936 2.0942333987754087 -0.08677576013466345 -1.1921516303235467 -0.2567706734009836
Ni 0.058502877461498196 7.22486754991998 5.540442300035964 0.4471042982246558 -0.95224996476376 0.46975751684779743
Ni 3.999136659840234 6.080693074873605 6.65903953207613 -0.8270801782319304 0.009014544793784475 -4.1710551500281525
Ni 2.0061305663794937 3.571263832569749 4.2641769003358165 -0.39293346860920714 -0.8776314088169207 0.516162329364582
Ni 5.700064597580847 8.096073627170103 -0.11003636898208027 -0.582746445042719 -0.6207195818523826 0.503301928462146
Ni 7.708493588452903 3.5099474959028654 4.96824999167883 -0.7933802148763238 2.1251309197831527 1.2911522146591763
Ni 7.138352975755049 7.4826757273897835 6.697087369686271 1.3056851181680287 0.36961793381171826 1.3673172891575291
Ni 2.029471301634574 1.3211906862715022 13.47309700765245 0.022779459788360767 1.2403377031104703 0.7323031450593452
Ni 3.500932043097346 5.91132264308292 3.832173475905841 1.515483279474216 -0.032937888378601336 0.08192897356532342
Ni 8.44785453175009 2.253591142970536 9.03480366348192 0.3666089717820654 -1.8389851356541618 3.1157175753435826
Ni 6.65248480067632 6.519288756001227 9.638836187054386 5.031489735350812 -1.3493493918251986 -2.1708461624320807
P 6.728642392638035 8.861111255512773 5.031987648188695 0.35061259635380904 0.4289471676996548 -0.8091117666789678
P 8.887857411546628 6.883199713107267 2.9239683931201426 0.728429778146868 2.179479669737363 -0.217591946318993
P 7.164723878810527 3.3011192134357863 1.8903490742984537 -0.6059012858926275 -0.3788715911995023 0.7263443563727491
P 4.910082027500534 4.097077687196761 5.474947521454847 -0.05642028777125767 0.14122324045026644 -0.5580520276198325
P 3.935521898680788 4.67583035574838 8.29801038868928 -2.081438621101525 -2.950082738818171 0.2590442999265087
P 8.620611621670632 7.441782534071095 11.671529973640775 1.025302204664744 0.1947178699342969 0.23272237420252825
P 4.774493745088284 5.939597955003665 13.023738132972516 0.9946122317800548 -0.24055626842465022 0.5320183225602322
P 1.139952879039629 1.5251219173707544 10.061516451236571 -0.619756446608165 -1.521042518729548 0.8312857316728457
Ni 4.9616042614317655 1.067688536728582 5.09754997230592 -0.14448237081751247 0.8741527062397011 -0.8853400903150881
Ni 3.2396996821998494 0.8964502832380233 9.59211156245171 -0.01662578148213911 0.24453865011116596 -1.0168641011997195
Ni 6.706793287972005 1.9556778034366387 3.6623133389783735 -0.29983253758746425 -0.7701215014586995 -0.7695579156457455
Ni 7.43703558389462 1.6396960329938646 10.96351578789235 -0.8757730154519434 -0.8725018008998393 0.5639213419164159
Ni 9.097032803018706 8.824111311844751 3.947248554255085 0.18674127948672356 -0.9930407735278769 1.0110618926956456
Ni 4.0446736087663435 1.7376652043237706 1.0792472665950548 -0.9293609759807285 -0.09939344889867398 0.8575834890271101
Ni 6.13829440705455 1.7812508377623173 13.086967321696678 -1.2286016456204647 0.020770142667815843 -1.4165220330169541
Ni 0.6122815221696479 6.148782727800202 13.121458699204247 -0.8470527646991154 0.09412628696246371 0.6389134791525899
Ni 2.7346373172771123 9.349915785147303 11.707091760269165 -0.5133693400004772 -0.4882221513108882 0.05533168269276922
Ni 7.137921434829914 0.6860571958511104 7.096288055011376 0.593497770021952 -1.6498884685613844 0.5338890572203837
Ni 5.369757544688512 7.26207388272611 11.043646370762637 -3.1505974179399026 -0.46154927000539225 1.332308634292828
Ni 1.1864185790872228 8.578498856172217 9.153641591071844 2.917974288319401 -1.1170209106269795 0.35428310322686085
Ni 7.572661391604707 5.398680167996957 3.2103595899529584 -1.4659455777554042 -2.102533494098611 1.973259455590421
Ni 7.959819270721233 9.291892293365683 2.168817742625275 0.6657313706763824 -0.20025602614370672 -0.12158104073930674
Ni 1.5070253424884996 2.23434066517977 8.085448339087344 0.1188700695660469 -0.5822599923246036 -0.3304340645234051
Ni 8.464403188096538 5.103374836662784 10.603954012805707 -0.7168994089097653 1.3986117283954365 -0.8565380784817314
Ni 5.833354455500536 7.437823615149212 2.8065038914310794 0.5216264378029468 1.7694020852487011 0.2356727150801038
Ni 4.699368098817109 3.3134744177488655 3.0437810403214023 -0.6352722828555769 -0.3947509814339201 0.6711641116561796
Ni 6.808683852925955 3.7075932396142948 11.616085407953054 -0.6709237135105994 -0.13001862998369867 -0.30086483550672055
Ni 8.993875759262732 5.0706527769482665 1.3274564728779605 2.668597850499959 -2.4964511809979584 -0.10015500965504688
Ni 2.599968404661887 3.119721923688103 10.525566480019984 0.06988284103406675 0.5992094756947487 0.4028180747127708
Ni 0.21389044514539124 0.7058799344339017 12.093275857906802 -0.6801120648780867 -0.9961073282683424 -0.39209426053736346
Ni 6.987107262819997 6.07393852126281 12.260458564833547 -0.43894053146694084 1.6909592704597651 0.08102548791444755
Ni 8.775900685447702 2.6598681613353956 7.087020244577897 0.5092892563938326 1.8831952545124728 -4.1803777129806585
P 4.5461804517189535 8.862724843319796 1.7792282242088624 0.29801116810800937 2.183569266425704 0.23036724370679035
P 0.14344795604436694 4.542512353855313 5.369442332186676 1.030600991169838 0.36833366778265597 -0.21974318833404088
P 1.0871735476308337 4.829543357016264 10.874816303260815 3.031669755663043 -0.2655916141267232 -0.23337620573644324
P 3.4572619777386646 1.1786133171369708 3.464360825957121 -0.4169840818005076 0.3076857150832959 -0.8433452339405413
P 3.459926273885145 8.289479012225868 8.855208526162894 -0.27420378127576645 -0.7163260529047986 -0.7006433520622192
P 4.814036027684813 -0.36271483823746187 11.900897727879345 0.268626287187989 1.881691673383753 0.49638874628208063
P 1.982489628741711 7.386460863733792 12.286464534367552 1.5786221169162296 1.4431182954482435 -0.6627080104690264
P 5.983277401686806 1.1493717287969043 9.149851535990232 1.0747206071968718 0.6944464792228878 0.24576815164289284
Ni 4.930946093098323 8.437929090472005 6.252835688042054 -0.7380089371948709 -1.442557023628135 -0.20207225341683907
Ni 1.6749979569347282 6.732338634475053 7.415302807651886 -1.3530461239504956 2.4083988681437165 1.1595896372271255
Ni 4.943873558203427 4.950318528107061 10.518907615918675 -1.0694218206917776 0.3444961990434261 1.623118399556392
Ni 1.9726392380593014 4.69333590718969 6.846612547715461 -0.06322728339076207 -2.5268331357239258 -0.9273429171094352
Ni 9.398867536176649 2.911569096582104 11.496272760751793 -0.30760318267181863 0.41912092563785236 -1.1814267877068751
Ni 7.799182852002285 9.080709298459286 13.646362565358693 0.8639469693512927 0.13938978678595348 -1.1706304684223194
Ni 5.987733530805039 6.639125794646081 4.977051550286674 -0.7408628617038983 -1.5767459829394392 -0.45577071565040217
Ni 6.21919894919274 2.589799048947857 6.657667044307714 -0.9606672422931779 2.18977976611179 -0.4909400644626835
Ni 4.969128083648234 2.167611304299791 10.841189883868408 0.48305012019164556 -0.8472365985751472 0.013660271095911957
Ni 2.537892180713789 9.114951132736232 6.868800318194477 0.011775395368373269 -0.07267531617753936 -0.0532082085918632
Ni 4.598415666309101 0.9567262310223552 7.429472360115421 0.06745623387044512 0.2505221213881105 1.4790720878350334
Ni 7.0645688588815725 8.770637762425956 11.346349814565523 -1.3211202217761764 0.5955772782588 0.5040586041225126
Ni 5.854781400565891 8.533656125256107 8.463119822910489 -0.11109325383410545 -0.10975216642517874 1.2232532368243578
Ni 1.2308579130515782 5.851404123760493 3.7275745225804506 -1.3007452576642502 -0.11788765104811956 -0.02454169389510612
Ni 1.130815469016137 1.0975961991052687 3.2574547768717808 1.0530145829783477 1.3897722757269355 -0.08922267901325924
Ni 0.6658198027272119 4.347305754503338 8.755895949170396 -0.423161157145497 0.4766465306581468 0.7973638821144203
Ni 6.184731963128766 1.036101617273656 1.439576434022482 0.1843144152127858 -0.4974464981226336 0.9244691951060661
Ni 1.5909319084537086 3.2014707850276416 1.5941956712331469 0.6875849762163643 -0.10546845144816029 1.6433912908728148
Ni 8.616605796126453 9.296817488706887 9.719104675394224 -1.3544833706176544 0.213509034498871 0.06762129869339968
Ni 8.502566415997531 1.340469308035646 5.203700596696901 0.8055998968709674 -1.2680781064485322 -0.28157487692885697
Ni 5.5867100541374635 3.4350282387697972 9.095382628046291 0.7028835542466475 -1.2733735505195165 -2.1437757885778503
Ni 7.497770278445018 6.583747836362022 1.2702378987349594 -1.5940934730789513 3.2090229090666478 -1.6850238788119367
Ni 2.3121212262729665 8.42319102974623 3.1479953593439562 0.8645246962316336 -0.7690082137898627 0.761518847391353
Ni 6.631949081434612 4.504912005421888 0.1751831004257521 -0.7946909632679475 -1.1099447205064885 0.8042482679390794
P 3.893577997022643 2.0384586104667153 12.573816378825015 -1.0055450766424747 0.7675401138847685 1.5594846247558305
P 1.5474025629619186 1.5096896386349798 5.858592094561314 -0.8537731141420845 0.1650069731334255 -0.07730330186785397
P 8.512369900057642 4.595892090029513 12.70465489666345 0.16746931863098902 -1.6186225685685671 2.2224512882028824
P 0.3379659661810197 0.5291545442670181 0.7386123136053252 -0.8387537579151167 -0.3624376140131952 0.8228921082925118
P 2.453403972632095 7.236453485627386 5.480082858463943 -0.04200591211814056 0.24770573498523793 -1.1696624480820952
P 7.654973132411812 4.1447817220730006 8.842754817942991 -0.5079386559032091 1.4988317869604637 -1.237263949281153
P 8.713289726005415 7.402249632799025 8.358053679627018 0.34493482924274144 0.637945715922682 -0.7301866129369746
P 2.2266292164741124 5.422358630932578 1.6702491304933607 0.0552316667797952 -0.8162815449545296 0.28575034846278524
