# total energy = -340855.4470929457 ev
CRYSTAL
PRIMVEC
9.38688597962349 0.00000000000000 0.00000000000000

0.00000000000000 9.38688597962349 0.00000000000000

0.00000000000000 0.00000000000000 13.73865647215033

PRIMCOORD
 96 1
Ni 8.240277973329041 6.909902765348172 8.420051861389652 0.5358562082490836 0.04016937313003405 0.43926294780336606
Ni 2.284664823888571 9.359260506069981 6.943860764546573 1.3774224959123311 -1.237973830863984 -0.7323450540408742
Ni 6.910785132642691 8.269837277695405 9.767209883049983 -1.3632832282974714 0.669623249531621 -1.0314772231272042
Ni 4.015221760591844 8.151496804482717 2.214891160730227 -1.1883574533884373 0.34564856748031436 1.3142319792967754
Ni 4.274337364824657 1.264019310055866 5.805036231942303 -3.287293717054093 1.7369719897444535 1.0977656619417933
Ni 7.963205255964168 0.6748983376731917 7.145613107749581 -0.12779385441823798 -1.723617937035051 0.06301876692438178
Ni 1.7296557956365315 8.974210437759956 3.3650362779854444 -0.3227582931457022 0.0482385232914137 0.17542945401833016
Ni 3.814351784683354 1.8473297999352758 8.358928213783424 -1.7852413662738027 -0.01506512186323857 -0.37296730989992544
Ni 4.457879148970585 5.6803990355257525 5.272126749663503 1.3487156148959416 -0.5631438403204431 0.07852303320756798
Ni 4.072847854432782 6.8687600435197265 9.161430942573135 -0.3793181918186177 0.3082459584621401 -1.2080011957612937
Ni 8.541934945420971 7.411481637851293 11.148452626871222 1.3723368538593075 0.10130660676098681 0.607453975091728
Ni 7.046829273062419 4.912870905700358 6.8437336664567985 -0.107747220180008 0.9411543690712307 0.35505854794030467
Ni 3.3482553416832057 5.619618947951218 1.0254628637853305 0.6290751529059295 -0.4580021760840822 1.6754421486607727
Ni 1.7202501357524103 8.748296249704921 12.390550741789975 -1.09470424940765 0.3836541001898102 -1.6720693755337976
Ni 2.4678499063622468 6.42250747776013 11.151983973426516 -2.096126819241319 0.7619765037540619 -0.36797448467102434
Ni 2.0834569200800526 4.812703444000302 6.843471772334276 0.9625860565824454 1.4652243833186636 3.0321734347723392
Ni 4.719942235442534 1.7662928121312664 1.6964356056865268 2.9853006814802003 0.7752025155260327 0.9752065735599332
Ni 0.5505127098044407 3.6155093761750337 3.980143905880295 -0.25730340597600204 -0.7770207996816941 0.8472695086956118
Ni 0.14709626012787538 1.4399107820205976 10.89976960786317 0.6178525447172326 -0.123944912985793 0.28930155614915337
Ni 6.228677666435562 0.3753778208603281 5.4689059206044295 1.8654811250621617 1.0556180820394658 0.3873469756603652
Ni 3.399526513626389 3.471861858004669 3.0123925565995204 -1.2390724632448014 0.8701559263754821 1.2435857777341228
Ni 0.4310730322280483 5.130449538888026 10.455227332753163 0.7128666336012883 1.246109572597241 0.7629347539022732
Ni 1.5205347468356833 1.9961588792394076 1.950930045886453 0.05521546882987909 0.3055046482715771 -0.034064288673560685
Ni 2.508551444543433 2.230971835328518 10.703580872058685 1.1685298771395487 -0.24894783492245515 0.9555733727100382
P 0.7092308736274561 8.52356480929999 5.715803553873997 0.8791959250905633 0.12579739281349947 -0.14898000157754987
P 1.9556544656665706 5.844153263747802 8.786461451258674 -0.02138103677893737 -0.6602904021664693 1.413916991293939
P 6.561912123407916 5.708456438114214 4.68386561604868 0.9710997504804115 -1.0278329415063976 -0.5471364091485932
P 6.173679900705957 2.32988145428958 6.797433789398475 -0.17211941580849066 0.30840459552719146 -2.1528903492846085
P 4.412277656238988 8.644242617154541 5.712491860453718 0.02665205536988958 -2.2402278954600128 0.5155113260441444
P 8.536011820284365 8.264571234586631 2.7099085998411305 0.43424364021190376 -0.0748638391884259 -0.36507685140825513
P 3.7091435651412095 0.18495451050576836 12.28420013820801 1.6251477712815945 -0.10028279348216278 -0.967853732739288
P 2.435286798440075 4.864265609412955 4.853056728706738 0.15919319466512583 -0.3363812832457755 -2.403269003116319
Ni 8.909910267893459 4.700802374660375 8.302146939692555 -0.3342457249600115 1.5624959007783283 2.193224787237597
Ni 1.9616996203226325 7.8608881973444875 0.6925729055332831 -0.8150988375003382 -1.9414615943535338 3.0682943488646126
Ni 1.948295146954843 5.1773182612447295 13.239064231545763 -0.24160656406603556 -1.3819676920808521 -1.5065569235188634
Ni 1.5575566256610063 3.443278789793942 8.978226147638624 -0.9726652951953185 0.035825237228725396 -0.7487299231568009
Ni 5.332389619813273 2.887678387716853 4.63240013556298 -0.656564873685766 -0.021828408729001117 -0.6802904994374801
Ni 8.741631560565475 8.45228079616624 13.476523350829817 -0.39399096333944406 0.49598636863733936 0.33191296306177676
Ni 4.896706687815671 6.019669260268057 2.5443577216172653 -0.371190934725793 -0.35987936636771567 2.265582057954085
Ni 2.8614983623507717 7.269167057508818 5.465842040977505 -2.0732640557105326 0.7435231821448807 -0.24705370322353581
Ni 6.409713151989614 5.376798978008658 9.375588994461626 -0.5624316447447669 1.863910438140932 -0.6853954247642132
Ni 1.174721862473387 4.7131179692391845 2.183979206075138 1.70076674346849 0.5644011097663117 -1.0577325572793075
Ni 6.351542618754186 0.07650875394363009 2.739900639657254 -1.1039486508240535 -1.058511858647493 -1.5924358828708705
Ni 8.667766153750955 1.3951541090390713 2.394743898634179 2.9852086359870267 -0.040626515272110676 -2.8611331109606404
Ni 5.96807893419707 7.733320415083804 4.440787506738043 -1.6586549019001047 -1.1201573993734322 0.28417837598997514
Ni 6.4742010595783475 7.730222742666878 7.120704066763051 -0.9441767008373223 0.2724286916532147 -0.6340278689255145
Ni 9.303737074718109 6.539683977094944 1.3773002516542425 -0.7941898552618128 0.6154228522298175 -0.45406041782751483
Ni 4.7457561722502515 2.033697036800885 13.0313765602542 0.5582721140504385 -0.030618753327121467 -1.728128680421211
Ni 7.007226000556324 2.7204603985195144 11.633921725429104 0.3187607419505349 0.56699663840763 0.7032625348526211
Ni 3.775968807371806 7.2769393992094695 13.166977639649447 -0.4038596286034077 0.33969800632383435 -1.6007017224240885
Ni 7.401813145156039 5.331357062340964 11.375305503537442 0.6379642278654432 -0.6451502040909212 0.17908350583114965
Ni 8.861577191303299 2.6320922526621136 7.718116475648364 -1.1331607536116355 0.008581313911107802 -0.2825236139953715
Ni 3.8885269587395666 3.639511643963155 6.323243973192649 0.556061479552365 -1.2755037094886421 0.9803490369928213
Ni 6.895071485291375 5.074466150116671 1.4826755577691793 0.000416518712128315 -0.6579293581334603 -2.9047498192093264
Ni 0.22276301038726828 1.6178016607271632 5.510314291309841 -0.32385666841620353 -0.6679923987964174 -0.2083735130445185
Ni 0.1604566151309388 4.237437515518789 6.249302532600623 -1.899763186173483 -0.39416014192745663 -2.621917158613968
P 1.133306920947696 0.44497031711671226 0.4450472895828298 -1.647146387039873 1.3078582145599476 0.11795321417873235
P 0.6958536222293913 6.740469471028426 12.997964877827515 -0.6093046551472215 0.8105114752399718 -1.9392951828298344
P 8.675200567551578 6.354837415779462 6.390563904321343 -0.23549273785881375 -0.1738497682360361 0.2769538332170779
P 9.014339375888316 3.670319404182402 1.2273851096269643 -0.4955875905370239 -0.4391696167586114 -0.5870504717347116
P 1.7280787987697328 6.861288082174657 2.752855481180283 0.6861981231711666 -0.05619068825895484 -0.8824820520410027
P 5.0700449267579675 4.03098234237372 1.9480998997237158 0.6706869149094449 -1.1453069020558662 -1.747777307890074
P 4.495370372101503 9.035375387665077 9.161540769140645 -0.054703047969834814 -1.107886038205247 0.8561300444100353
P 3.7019062759489363 0.7815943786640724 3.2102840735447056 -0.4662101658161713 -0.5933938974542361 0.5659766817835479
Ni 2.762203881059122 8.966869892820451 10.250342585654613 -0.6009925357371004 0.4040648026356783 0.004448522689656854
Ni 6.492824641624352 3.2451685584023497 8.648319341792938 -0.4046870096007095 0.4137020686151262 -0.27483215888838475
Ni 5.868277561055377 0.7725397883205362 8.28725370618742 1.2173967780435808 -0.7832747510112058 -2.454351166504115
Ni 2.2604654314920998 1.916426668604952 4.3306173791971485 0.23232616720537408 -0.15136649953185546 1.0693752837245583
Ni 0.8564998524597904 1.1380097508897566 8.50635770836827 0.4616785964944049 -1.9095691165203115 1.5788974820648032
Ni 3.697926236237492 4.212421464030583 9.105211942960372 1.6456741733697207 0.912270596157345 0.44212484273219343
Ni 6.568586199433475 0.3830018497604111 12.444708381212566 0.5367519805904756 0.38602208620135453 0.6252575789320521
Ni 1.2056516522120886 7.851473150574255 8.450166869413842 0.47180900006018744 -0.3471626901319957 0.04531826432082518
Ni 8.265387893678366 5.382769037575826 3.1772563147599953 0.9387460167400543 -0.3462370929939327 2.2112106822920565
Ni 5.34059375827507 1.8342914151258505 10.254753483438593 -2.0119735843311672 0.20914587243416882 1.776539724734747
Ni 6.769137021214161 7.0754686625898175 2.409718798048489 1.8874023506152848 1.6873964928091714 0.03202643230792549
Ni 7.477649798054057 3.5274603844454373 5.134603235992541 1.7012686228055733 -0.9659994531393684 1.8578338929295488
Ni 0.8027073629069518 3.2018386921098316 12.842497392665049 -0.5533916460296856 -0.6123208162657262 0.22789178558310427
Ni 3.1643850165233616 2.9921356563700465 0.6365397662655347 -1.2431798005449557 2.3544105868527194 -0.9770973628247431
Ni 4.588535216762083 6.003598911244488 11.194312258970895 1.757377292873683 -2.7013735022690826 0.6880398043655958
Ni 0.6276456916745119 6.266309692858159 4.655522852122417 0.5712204466809905 0.06043352269570882 0.1447147985432927
Ni 3.231510639109539 0.4063629932270899 0.6689076269565789 0.5979385794021251 0.4726829180247085 -0.5081579710028667
Ni 6.960272796224613 3.3244971329339936 3.091128818617504 -0.1301986072049887 -0.17804298038177727 -3.542173344079951
Ni 5.882048122981531 4.5722395824718305 12.93935503832205 -1.3835334939060753 -0.16795911378321396 0.32004835041370683
Ni 7.0335092816696365 2.7910497820809823 0.6198245381660792 0.0004820818427411052 -0.2752664182123259 -0.6869033767683073
Ni 7.5080069877399325 1.4423607592958025 9.610918229286892 2.6283346321045378 -0.76390791644882 0.9174241153338264
Ni 5.550850620295459 7.858532088930401 0.5849222182248226 2.118951530445319 0.5503608296231618 -1.0068105736184594
Ni 8.103022924600879 8.689290283605535 4.844181427887939 1.6606369653271398 -0.09759290535482547 0.21162390166101616
Ni 5.406583567641709 7.9862031269383165 11.431524503150207 -0.49838777898998043 1.6611704692331066 0.7982606828970767
P 8.678983482654672 3.418459862914086 10.428286030923406 -0.5541020418331489 -1.1077335717877825 -0.12243593254043429
P 5.097801948990848 5.261612498529567 7.57449242469328 -1.5481774272731272 0.42972364085436315 0.6682821621226942
P 4.083736642322583 3.939216143743812 11.463755315304017 0.0042194373979862814 -1.4093072604360697 0.24472402664909468
P 7.403437076453397 0.6693694617532843 0.794040450959837 -1.4078682139966978 -1.063822215116813 -1.5048060022660277
P 1.9670501454064138 2.0252769999585127 6.893604314992085 0.7225933739707491 2.243381867707962 -0.5730564714484646
P 7.427974396749896 1.380904815921211 3.835640303696526 -1.696563761130736 1.6531386000675659 5.951495752479201
P 7.171008389436708 6.7306977225859415 13.058565675877311 -1.0232118977946185 0.1025463927053589 0.12224104292080881
P 8.938164795090268 8.820199797322056 9.339236400616082 -0.30603223864027296 1.3630189188924913 0.6354597162760346
