# total energy = -340858.962569043 ev
CRYSTAL
PRIMVEC
9.31937220297460 0.00000000000000 0.00000000000000

0.00000000000000 9.31937220297460 0.00000000000000

0.00000000000000 0.00000000000000 13.63984323563464

PRIMCOORD
 96 1
Ni 6.4361167989088175 4.552625101421691 3.0550933354211183 1.0787271572531036 -2.003455519557827 1.8189259030104417
Ni 7.499503751937039 9.133264235364331 2.0007741314424266 -0.22277606162309374 0.33917427260988037 2.063834791976833
Ni 0.3069791849091125 5.137341145476699 7.999454515154541 0.8767487491016513 -2.267641768696591 0.42862603691481016
Ni 9.292783927533685 4.323107605438351 4.126134288751885 0.428507766169391 1.3733231290319767 0.17207082195874235
Ni 4.602763323298838 6.2365331260982275 13.217430595755742 0.6935874736567023 1.8557687828704041 -2.4781261574365256
Ni 2.9370373935818397 4.652277147245544 13.543532200268892 -0.8196967412836658 0.37541757121263086 0.2196729972177378
Ni 4.858589406709536 4.641941963590943 9.531044858417609 -0.623679692921971 -0.8138382256203597 -0.37406928471485257
Ni 1.6008165030674952 8.573039501177938 5.324080859664411 -1.1867147755786918 0.9898850015077144 -1.1204623322083607
Ni 6.331441611525154 6.701560474322715 2.7459185064461593 0.8872337077933752 1.5392225320726847 0.009920344437505495
Ni 5.93418473718368 6.067200135111656 11.000328675657618 0.23632397551085751 0.3059797881357827 -0.2780524655978953
Ni 6.749219743222294 2.8808974960747893 11.017678550688974 0.8582406629951348 0.9475543590603034 2.667400487757748
Ni 4.415201640492248 0.07293340602426585 4.63139523018976 -1.2053313622386146 1.2582143262805752 -0.04148294973513501
Ni 4.43279661500973 0.7721994441359902 2.2029169038306122 0.568358294641847 -1.0659981397222091 -0.736967383304234
Ni 1.9601435329777452 3.25246086154725 8.253755949290312 1.217011369679704 1.1812372974038885 0.6453232393336757
Ni 2.7885052411138167 2.208001553246257 12.990149749075472 -0.8330891034301717 -0.5642468435766347 0.003214393172239625
Ni 7.419189403212642 4.788740712849087 7.281902937053012 -0.2143541561079857 1.1552434444432877 -0.559168914833095
Ni 8.771374378127646 1.5614328365892756 1.0722058748427825 1.7836115439798639 0.7723696740629278 -0.38504275300722074
Ni 3.7537032897372757 8.82089752144645 11.258299146587637 0.06444855739237287 0.005416028809248737 -0.7972849492473689
Ni 7.697661560816921 5.446157178625957 12.777805060053659 1.6000514904345993 -0.3894516807081938 -1.615581210639082
Ni 9.247463821030234 6.145007572742194 6.033884311805222 -0.26943258513936824 1.6556068591024002 -0.5514054688375923
Ni 4.174603411086617 6.993191585326721 4.886910046572447 -0.1131226255593084 -0.6201832497329383 0.18855724964953977
Ni 7.468749824019829 3.682251663876294 5.436868560457751 1.0115097788663419 -0.484542645576772 -1.7649489345733542
Ni 7.998379059614648 1.4159853962850693 9.69636026809354 -0.06710245007545217 -1.227034815353977 0.1595688328369897
Ni 0.44813225855142474 6.8910605865253 3.6408018926043635 -0.83240981797496 0.6766840130331442 -0.2800900648532144
P 5.953783376701828 1.3574970170097955 3.777841395403446 0.2744081839770887 -0.1499091982600386 -1.0859457864887299
P 3.1428557263247368 -0.02525177063165739 9.110896810396424 0.16085001354225847 -0.6023655048252272 -0.3242284499333255
P 2.9780799082931697 1.2591962801398806 5.815019790064961 -0.6114486980734178 1.794223515167755 -0.8220865816720809
P 8.427414992803905 7.396804271437753 1.6994834912607881 -1.6477128010663042 -3.4952653666745026 1.3321883066648799
P 0.8008546494571519 2.701061572735886 3.1240427098742916 -0.9480474966466382 -0.40868404657524454 -0.9006934328427068
P 3.1160625315483803 3.3297930112008864 10.391050494506068 -0.139192840283799 -0.9146735491718828 -2.7606592845135944
P 5.709653105271765 3.1908225345034866 13.39461236192167 -1.3167637445796936 0.007070019472903954 0.39659703350372344
P 5.820590910704025 8.994713130411256 6.8834699579530065 -0.13856703377434199 0.4744819189066603 -0.4425845559774314
Ni 6.637350000580422 1.6516350391076589 7.725907645703064 0.29890848311129814 1.806543727296005 2.4540200084169412
Ni 7.792532768755463 2.3799998846523205 3.242067897785653 0.3639784761377538 -0.31273613302300984 0.17059835117827393
Ni 6.385195749775597 5.273636962382511 0.8871762654347094 1.5486093726042232 -1.0160655165578243 -0.6201274567943384
Ni 5.722495200020224 9.13627439255138 9.251196229554731 0.01618252329713342 -0.41809736946934445 0.46772403135753643
Ni 0.8325302632746676 -0.02013729922530458 9.289578995469828 -0.005030620445371981 0.957454391782835 1.2356580382466138
Ni 4.39838949323084 3.917295547512635 11.888064103418097 1.0125425910062305 0.3387248437772876 0.12886497599522967
Ni 0.8515473739740179 8.057631627401804 1.088621948790105 0.929304154600864 0.37992111550993923 2.578079335493412
Ni 2.5008441826227594 1.3933486414635843 3.1580733290204974 -0.8752726787767571 0.37764671765346575 0.4582235480662689
Ni 0.27687015754095534 3.0365962456847315 9.56109330986714 -1.1794686355392396 0.5137773740721732 1.763781396627814
Ni 3.613996582644282 3.5752373140965026 6.8555901243902415 -1.260297948282481 -0.6549466213560526 -1.9321881394714076
Ni 2.471339050566431 8.517719708415346 2.7742894709183896 -0.8136855020925794 -1.5643021007491318 0.24372695284314796
Ni 4.227686554546139 5.925163584994631 7.549939261784051 -1.2360876695848648 0.32808150513082857 -0.40283555821426753
Ni 5.620093939428014 8.202687654077973 1.0329722502553107 -0.52181284278214 -0.6697178661279563 -1.2023241999811745
Ni 9.084654390510948 2.442980201277926 12.202653487580905 -0.7365660341007573 -1.1461779918069097 -1.9339604008804825
Ni 4.3244495950201935 1.3202754448578766 7.689857518623627 -0.9158043203422163 0.6656231272332924 0.28316793244758975
Ni 7.170576513804344 1.1433098881245793 5.733739954391407 -0.27042400251836013 -1.9687325142543446 -2.6659596415461633
Ni 8.215483151965952 8.318266506814101 11.303965001795852 -0.22703175157565417 -0.15478735228794635 -1.2790484894171068
Ni 0.2642666387181573 5.209967012221792 1.7534016504601226 0.11575003587982646 1.2628153153876962 0.14723422253103677
Ni 6.319978783846921 6.903492628901528 6.64810082823051 0.674512202192806 0.6367804919699871 0.7486746444388331
Ni 4.342957868003095 5.394667647794873 1.6034594769939559 -1.4592172578926355 1.2336921727694947 2.8523111417936358
Ni 6.3417115595750815 8.223665560666348 4.530309864937522 2.0301829082503424 0.03174695339429371 0.5810999105782314
Ni 0.21404827024098397 9.243391255424228 13.02119444140208 1.2027255491846511 1.258032549287072 -1.5273077829129698
Ni 0.6555609787925318 6.575525286094735 12.918090500153822 -0.21317813352201348 -1.1380054832984465 -0.3756001195370821
Ni 0.07891271516113896 0.38595806761213397 3.3120405392949803 0.6599060222438571 -0.16951643096800484 0.8231253073492405
P 5.458980634630224 3.731122451148367 7.604076426227644 2.060738926660328 -0.7608935551025283 2.2453305067939007
P 1.0846537601515753 0.8473434052214565 11.171835876154217 -0.665298396904022 0.6051055294642095 1.300046946045645
P 5.936663690161248 0.3851584654862865 11.535884099968364 -0.6222203347676252 1.3071920417308585 -1.3078057640554575
P 2.1037270988627266 0.8826405270355259 1.0487210571605503 0.16833295218286493 -0.5387435570992076 -0.7308232180797091
P 4.415201640492248 7.850201043286278 2.845857588930573 1.6346508256760237 -0.13575810357063717 0.22069398228308443
P 2.3673068998574 6.732333040984116 6.131027582660798 0.4507370098812366 -1.0255289759635693 0.1309696810430583
P 6.7361260254272395 7.336945944464348 12.56115016143739 -0.8246371160080767 -0.06180494912193872 1.481210988554907
P 8.70685636510618 2.8397245101541135 7.492038002950833 0.18233003779290533 0.07624092204161063 0.4944604189111162
Ni 5.234840416346347 2.0474567301463305 9.801004701549287 -1.891193956447233 0.3014690447496227 -0.24186058905837055
Ni 2.298660404997351 5.789464207902971 9.247895307958284 -0.6675483692804632 -1.2600326104362363 0.4405770386290993
Ni 1.6489976568044558 4.676721860253678 6.142225740171502 0.5188902698187063 -0.2260742727583913 -0.3954683192159189
Ni 2.572668583367587 8.136790373986281 13.356802737390485 1.8025019531264632 0.3674247828151414 -0.6304226680727594
Ni 7.431127518867777 4.498134732775655 9.396706109651982 0.43618970819468106 0.6308780104426231 2.7802737163104116
Ni 8.506750807458209 9.252682669404063 7.62716796640742 -0.615375801041966 -0.27778224265564416 -0.43087626640156756
Ni 2.525139785677354 3.308106832333206 4.382331283172009 0.8541634076019677 0.06102436220217232 2.374584747807749
Ni 5.516276134277193 2.6287246065257723 5.5203039668971385 -2.695592891031564 -0.6668796253482128 -0.4301846396511817
Ni 2.6024160190984142 3.8122662239893184 2.0869913704525076 -2.5518440559459665 -0.7678964687829227 -0.7861569576550074
Ni 0.749322249514425 3.5893654821942267 0.13865827773217984 0.7932961398029499 0.45298646803704573 1.518638794384062
Ni 1.395958065650499 7.549595376953704 10.815263652635581 -0.5096057591929868 0.903095100305664 -0.7141524422922474
Ni 1.228032299850442 7.83774104279376 7.684797099575432 0.34188730066566925 -1.6282978868748021 -0.48638741209499464
Ni 5.39385686242251 4.92794417384889 5.854738953938642 0.35053417770738987 0.6857340390505544 -2.9968737310297806
Ni 6.424309154463029 1.5794378634789867 1.1466797730745377 -1.1312691930158776 1.833870697245732 0.22626607705422322
Ni 9.250902669333703 1.9368451027374354 5.566720031559093 1.570706975834211 0.6498023581509518 -0.7141226174955766
Ni 4.484258187724526 0.47842580948708513 13.255731351196392 0.5750729876578612 0.6530584031944043 0.7177301323411768
Ni 4.716385107894781 3.118364416456123 1.9567307789161448 1.2208705955247943 -0.7242633054740043 -0.15151999439058422
Ni 2.5409361213802844 5.582052262531636 3.614422477949075 -0.8833127754724143 1.597928016333693 0.14566430694075558
Ni 1.7299736809476767 4.268589278676027 11.650349287739006 -1.1969521370359837 0.7108714575481305 -0.8547092528031086
Ni 1.4313623602436738 1.236009682364724 7.372048291401609 0.20364679699281055 -0.6431190325935053 -0.5831699057333828
Ni 4.037273143878134 7.204023740257333 9.438320833810014 0.7792890268905804 0.9975314623093788 0.522762608289919
Ni 7.279724999794148 0.15391222597911547 13.231493528248793 -0.9844566314032915 -0.6083263503943523 -0.752547240020362
Ni 3.498343174931384 8.70618537031526 6.778947608271719 0.41561368381554226 -2.0819165891792077 0.9858859076506505
Ni 8.891193545167512 6.739210737591056 9.194482258726559 -0.9698741056034265 1.609630649482602 1.5520729056727915
P 7.7791315116812365 3.4033508151555925 0.1615830011514351 1.7612948827605344 -0.2346311611894669 0.43375230239778206
P 7.556901764677065 6.003791127369628 4.775445696616757 -1.2808757724338327 -0.4490719634739879 -0.8031252100782297
P 8.618545995123311 8.927921190598337 5.4279890627245635 1.5769208179544068 -0.5667343858851788 -0.9330181131173416
P 2.7827272304142197 6.492359209508926 11.895089046104156 1.3396355069715447 -1.0465217761651524 0.08630087738077395
P 9.047805593242874 5.0649669017782 11.054655955291976 -0.17898220436659498 -0.1580696225836439 -1.040212546117673
P 4.411520488514279 4.56116164626174 3.7174434767856765 -0.3197963823039009 -0.5870106196357117 1.204102632037836
P 2.318044698957289 6.330258051268946 1.253493756354262 -0.7930531705542084 -0.268702391841563 0.5373343354565069
P 6.660890734495231 7.149803633402084 9.123472371102935 0.05568263827428475 -1.0031215548026466 -0.1991795052500763
