# total energy = -340862.0285850529 ev
CRYSTAL
PRIMVEC
9.31181320314068 0.00000000000000 0.00000000000000

0.00000000000000 9.31181320314068 0.00000000000000

0.00000000000000 0.00000000000000 13.62877987530080

PRIMCOORD
 96 1
Ni 0.357195572207832 3.5693018552795888 6.608731734343264 0.8128645488531808 0.09516501263962321 0.011163472815987226
Ni 4.763635032841713 5.509380915098381 7.474022676116091 0.4091062217143277 -1.6364881359950785 -1.3645602952376823
Ni 2.5284459850040624 2.914048174952975 3.2873029004277927 -0.4740929109983577 -2.6398680866654343 -1.4784745634603504
Ni 1.7700639720601044 0.5671434402460876 9.445098900144057 1.0936148729982134 0.49295143846575745 1.1929363310083714
Ni 0.3523524980954816 9.114654305267432 4.2823669974772205 -0.0923501688986474 0.8574783309078136 0.02353202168366915
Ni 0.2762945380065242 2.831620003365731 4.3222178337994945 0.41583402735646446 0.05649639242483174 -0.13804509983260096
Ni 1.8361312876285063 7.433778881271339 13.464471422592393 1.5727116649690656 -2.3036611242139937 0.39118151891510694
Ni 2.876549502677576 4.164941306674714 12.791891251204733 0.5569464532604795 -2.1148328802912544 0.2498991430921309
Ni 4.3982953486964425 3.650472932067434 0.7234412957900023 2.423680991113768 1.4628479126666871 0.009215862171313162
Ni 6.205224789725582 7.5330428113571966 0.5288197413097498 0.316017631987759 -0.2780663495549663 -0.6167503127919893
Ni 4.4813194763367346 4.018615472024697 3.7619660665981107 1.0508124331207063 0.7197034540174638 0.1635339881323248
Ni 4.938780929744613 6.224621296889638 12.61086028827798 -0.7392075854886625 -1.07206157230747 -0.7277931730041337
Ni 8.819386016421982 1.1386671574820801 10.370983673610572 0.09861183353764308 0.7353067077723595 -0.14927439288951713
Ni 9.095062250023469 1.9254036420124772 1.9889567679820819 -0.10687921575275786 0.6452599901959081 1.2373567661052753
Ni 4.533856727138275 8.797475319659128 3.8576123572056997 1.5211134811768 -1.4581623342655596 0.40138828424477974
Ni 7.422772317916603 2.174271165040119 4.197663949893731 -0.03482327832677228 -2.090535698306787 -1.293988398556391
Ni 8.3885563491347 1.8187088848901725 12.598771692214429 -0.46778059562708474 -0.9466835264195761 0.15269036054960156
Ni 2.8222057600902333 9.244218875925466 7.208684417672328 0.5321137104875159 -0.07473759802320676 0.5038732275845837
Ni 6.721406537985375 3.6433121476175256 2.6151035822052835 -0.3987500752909843 2.0958491400999004 1.0190060872433868
Ni 5.574852274613735 7.275552549187013 8.701567367096997 0.4805846893702885 2.7157310565423356 -0.9492181199159718
Ni 9.209215769622206 1.0155649852742892 6.4443139775765665 1.5881827640214714 -0.2794730000945058 -1.0641775415737025
Ni 0.8619452072437604 2.9078930663425853 0.15621311804262183 0.5339263382162224 0.551904777071514 1.0300345771434067
Ni 2.7685790271292143 6.1024223705747485 11.480597973506548 0.07279487247453915 0.8818266778451909 -0.7902864064423486
Ni 3.2807101365909457 8.289664891581998 1.97626849114015 0.386848695867708 0.28562950661420483 -2.0041744000017228
P 7.6453712155434745 4.202654150656677 6.916905265281208 -1.2104401442200896 -0.08816389873144172 0.3989472789034548
P 5.022503443384571 2.7292086803747106 6.278070174216076 0.14384165190972 0.9069453272896897 0.15026246783439928
P 0.7674172654169699 2.311946325107607 8.899102587967857 -0.4375017421378853 0.5159689824068533 -0.07942394775528257
P 7.8181239764208526 8.14317144429206 12.514859217582561 -0.6398550171302528 1.0371099959329493 -0.7347672903291217
P 0.7143389982610221 7.983660081968349 1.5959442369860464 -0.28987002705811366 1.6302776363089926 0.7013843439933017
P 4.458123749334495 2.5149438556771866 9.338985200173475 0.4126132064263216 0.26070317568617035 1.4711145235508534
P 2.8253904002487102 4.4814219062833525 1.8086484017696507 -0.5698755026173218 0.8331428394862426 1.0547418500820995
P 3.848553825199365 7.923673380503705 13.355332314471257 2.717681495400487 0.4000549101453368 1.094464365482702
Ni 0.6441921772732377 8.56387917049085 8.102582181172805 -0.22768455466830467 -2.182967885396279 -0.8255863672952233
Ni 2.515111468317106 2.918070878311051 10.526065406333734 2.403340994004835 -0.980026620656396 -0.1345291162595425
Ni 6.736175073924979 9.263289469623011 5.442053711186581 -0.381296141480595 -1.6989003796837128 -0.5194811093251699
Ni 5.9578564686438895 0.40888637917777665 13.273736618995617 1.4556889330244025 -1.286876470101958 -0.5104205417847983
Ni 8.103838344790871 7.181680159018576 4.355472181559589 -1.2002889147187006 -0.08003201365292668 0.7585551367773388
Ni 7.1978082197041955 4.5496495625440545 4.830312272183156 -0.7484890107905884 0.48728164177448985 -0.34684875843600266
Ni 2.8414625900543564 8.784047684838884 11.771231772858213 0.8515313692957592 1.5307057528509251 -1.1215643070232877
Ni 9.108545755723688 6.633214353947555 13.40949261433602 -2.57501715162832 -0.5289556244745084 -0.0014179633934491708
Ni 1.9934171265666152 4.787659511230222 4.297263105259429 1.2501431192366663 -0.6768259379276472 0.5078635796908996
Ni 3.9450893939798624 1.569422330262731 0.9217521907111568 -1.3158512600677532 -2.641817497082321 -0.18813507451045663
Ni 6.864156636317103 6.327190920707249 6.57554536282047 0.2141091299767151 1.1349756953331873 -0.12678701042027843
Ni 2.7240220003505247 2.8778904037969344 8.186099834919528 0.4876552230638247 -0.8071099057575907 -2.67227967022692
Ni 0.8699282248106092 6.397169197873781 6.645079466491214 -0.4260927289699952 -0.1186165587943441 -0.9001105637560434
Ni 0.6216231353080317 3.14193618255065 11.489511241224951 -0.8049746045821428 0.8506847050247477 -0.7708887186420272
Ni 1.198802847959986 4.565265473496586 8.682091709519645 -0.04389978670674375 -0.39391485868587 0.7365449510548348
Ni 0.6178350896458434 8.670583239426483 11.265427109372121 -1.661376671706642 -1.2065487795854835 0.2662246197250318
Ni 7.982067761889111 7.750725071546421 9.459613223579783 -0.44058423771795086 0.11654604941856057 0.6853802552555616
Ni 4.684149394266394 1.7182716663248747 12.176101966947245 -3.3202218352406816 1.0767468935982811 -1.4755944136990782
Ni 1.1223156132765673 6.8377483337164 4.326578555981409 0.10232707760570119 1.8185685196710228 -1.009636473103029
Ni 2.0618123954672374 1.622862826957172 5.774214473259719 -0.3202293560762614 0.5012049367238014 -0.3058741157958539
Ni 6.186545292187849 3.63338575460894 8.608141943968347 -4.309325221387365 0.9145028279219735 -1.2085755802075249
Ni 5.866554138954223 0.08348133767474034 1.89822990835614 0.1357154232581598 0.6508619097637178 1.7898341278508079
Ni 4.735336432135247 4.180808636587126 11.416706828713103 1.3346365110950562 -0.8021191374112187 -0.7461904445643988
Ni 8.620792973556963 5.725126318115197 8.066234449024856 -1.2928401438845605 0.3703015901423042 1.6909482147161714
P 2.3465955825043685 1.7852980986661515 12.561646423653517 0.22563101457338558 -0.2030649563474116 -0.011584619513805856
P 5.301103586371326 5.892329238248562 10.099593667684369 -0.31486089267549644 -1.46808833513002 2.1346977375359817
P 2.8295993398733637 5.157338500386751 6.2633649586071085 0.22984556687536548 -0.5913478135584849 0.2195966354538476
P 9.253279270294465 5.078877161277609 4.577948163250521 -0.6487152957343603 -0.2804998986971234 0.46006240104722057
P 6.241931957868026 0.12939043974878353 9.437534914177009 1.2119421826869128 -1.1101432096705397 0.14347706948144967
P 6.137034380718195 5.879395129534749 2.666743174201919 -0.8862492323929188 -0.16472620866821308 0.551560763468534
P 5.085367495167839 7.938134626603456 6.609413359078938 -0.4174821044828488 -0.27175146308053194 -1.0683681826162827
P 2.6073077320863454 7.771974629562925 9.726410643172182 1.30863905859003 1.69416466477094 0.6567129692278562
Ni 6.999531778492358 2.1771578271720715 1.0466031214621114 -1.0697378092702996 -0.6551286554598718 -1.5997660979836965
Ni 2.961277692157053 7.3342635322256005 5.705852726887081 1.5765364380317946 0.8769917183503929 -1.3591879751821754
Ni 5.3014760589044805 6.54996674278737 4.684088867479757 0.7059102568881134 -0.052048641066123266 0.19359609762502789
Ni 8.225823099399197 4.269336045904786 12.54868531068105 -0.31347789628504075 1.0778380697799308 0.3748573278337866
Ni 3.5025082182715344 6.4487100846491305 3.2626480122769177 -0.6950373187293514 -1.1268988318623236 0.8847883315766761
Ni 6.54531083612293 4.954871743176917 0.6087113749462071 0.14613430459863866 0.5212155755177734 -0.7446909772007367
Ni 8.228747008784465 0.15642822093051892 0.6621202114753301 -1.22556491567667 -2.1111852562363382 1.1007908219213625
Ni 6.525160072079235 2.0858834329223916 10.596580975129344 -0.04699050981692552 -0.3069246685475553 -1.2406997144355794
Ni 4.231986362642649 6.201500064394029 1.1151222374800076 0.07380814423040191 -1.0339315982049677 0.8866654939947309
Ni 5.21694341750491 0.8631780913285041 7.442363441979233 -0.332001409010525 -0.8088191751392135 0.21867206675704923
Ni 8.157064669778748 3.3202574077986986 8.933106536700926 4.175812205097163 -0.13307618586309986 1.209529459480362
Ni 4.131791251223903 1.5995181109416707 4.6699153564118685 1.3742343279923366 1.2976427074795265 -0.24122038437121038
Ni 1.733282309411029 0.6230729846433384 2.259215388588826 -0.7658352153785198 0.37919015088118563 0.1353734665377088
Ni 8.056310849560269 0.6119602666166533 8.282222890369557 -1.9145388018207607 0.29118900297985334 0.27060526529123075
Ni 7.167274783798798 1.9398369526722408 6.363195978124696 -1.0540515088832942 2.9689476940434743 2.0670090759397564
Ni 8.009221009556125 6.902186081952249 1.9429051951641065 0.2074078066971396 0.17207930659917461 0.31465083354721946
Ni 0.9033781206506111 6.614730404489729 9.889791995115376 -0.6372854566308637 -0.04393912458511142 -0.7659804827071325
Ni 2.795359802263073 6.609338864572307 7.901871631956799 -0.7203673128537078 1.4812135596580682 1.4518286787380479
Ni 0.9973790138429869 0.11675151551749499 13.496144624449245 0.6360934932052916 3.083569015635496 -0.39269152780173017
Ni 3.404734178318296 4.962172204826759 9.413520678783161 0.7872681884413152 -0.6742136971157808 0.822820631624628
Ni 6.9704789209062525 6.294571638616184 11.569498786538697 1.609976205747479 -0.620766633040234 -0.536398968126431
Ni 5.364787077727534 8.127983876752657 11.187361522329459 0.5567952723945959 0.11105700127953132 0.08276946718874777
Ni 4.164084619848458 0.3661879903395312 9.853131386039577 -0.4917530472822822 0.6367378116575099 -0.7560740222266978
Ni 1.0938400881168528 5.947864892942001 1.9699718429671615 0.3308084171436883 -1.3210831978906536 -0.004522827571018017
P 2.5971112964912217 0.08173816621957403 4.207326818585109 -1.7158915149250706 -0.2357580757050585 0.580995009569251
P 8.710093263380921 5.246964703677219 10.375522251427068 -1.2883150023206973 -0.9921851103958009 0.0731082899498999
P 8.526361874588792 4.4408596474227515 1.4970127386360288 0.6097404571330596 -0.6095527666022857 -0.536179138806141
P 8.579709253149945 8.187355998537594 6.385738015831248 0.04733683741275073 -0.4005819862934004 -0.07455839213286515
P 1.2111037533674363 5.218181888677651 12.737512123726741 -1.7460544116616963 0.47753124725594537 -0.6510567993833433
P 5.096970014575623 2.1101593302707813 2.606776958726599 0.11822832221698995 0.25587541528022384 1.0895473877970592
P 7.630323325204005 9.213536451006807 3.315691825723549 -0.4401954869199645 0.17002576650425555 -0.38134910620571744
P 6.466635325307225 2.761176135532755 12.606321710461485 -0.0531956101863729 1.4751573261616595 1.0033897208623688
