# total energy = -340874.1901205437 ev
CRYSTAL
PRIMVEC
9.22764201858828 0.00000000000000 0.00000000000000
0.00000000000000 9.22764201858828 0.00000000000000
0.00000000000000 0.00000000000000 13.50558683854925
PRIMCOORD
 96 1
Ni 4.0070204345481555 1.6556235048432326 12.144290924272482 0.4786964712086401 1.600839276443217 1.560505866931493
Ni 7.895650223866467 8.540117959914602 5.0486043524192805 -0.7488674771759296 1.0559690376209814 0.6611357808859001
Ni 7.677674867543835 3.8646563757324084 4.898881249209862 -0.06531553337835849 0.2605954464637125 0.6572529008917262
Ni 5.43969488409924 5.933032301552331 1.553398765410595 -0.12436554546297934 -0.4134537000497461 -0.1484945773006991
Ni 5.784605682026062 9.19052829732891 6.396016313828568 1.2419251022022482 3.058995954281822 -0.833963278505009
Ni 6.844049700742264 1.7485458585037572 3.9957091911403038 -0.6240741001469123 -0.4389528727621149 0.2717332082480869
Ni 6.439888214349284 1.0109896712413857 12.867514738177801 -0.5964085159108438 0.8560061172376612 -0.2903294831930355
Ni 1.26224913179972 7.194386352090376 1.4502429569129778 0.2893990009589661 -2.4017523093614765 -1.918332207424922
Ni 3.003846575973152 2.6547464286360145 8.085213670862313 1.0729090079094297 -1.9033321344716638 -0.2418870714209318
Ni 9.04533135245817 1.0139701995663457 11.603027903223893 -0.7597743538964206 0.4555801969061508 -2.6435072260799184
Ni 3.5656530961234725 5.200034569375194 11.907686804536755 0.5087256705808787 -1.0834621008349277 0.7876908778010305
Ni 5.4062539099516975 3.708054065506712 12.781470668769368 -0.9588173335686327 -0.02281365546040587 -0.7701600680061187
Ni 0.6194239160049698 7.5504256861159655 10.973802386021484 -1.10078233728093 -2.550614811524556 2.245685061919842
Ni 7.147150053342787 7.370495897235473 1.2511215184651396 1.248170826001644 1.1619671363203665 -0.8585759348473665
Ni 0.9662909740088551 5.226794730806725 11.946380152438376 -0.1358630045796176 -0.37086131930051613 -0.38504840943417556
Ni 5.612427112318838 8.509878977496971 8.709145289922215 0.5823193848076295 0.8879685290768707 0.28401768204239475
Ni 1.1554114941947988 2.844965038204839 12.570824828386412 0.833711567505519 0.20421603923271928 0.027136708315791975
Ni 3.2183246560259406 1.495210178524011 2.5335671900321675 -2.861144680924866 -0.11095235738086698 -0.06892304822395871
Ni 1.8933644700577072 4.779374059313391 0.8183737203139713 0.7935409088239043 -0.9657125180265691 -0.07192995337108259
Ni 7.855879087394088 1.13888478760036 1.5352479938465184 -0.7363292354996028 -1.8983171977555757 0.07563414169554716
Ni 2.6097247639379315 5.92960884641747 9.99062298185677 -0.8418840760139824 1.5643350108695961 0.1917731854836762
Ni 3.1328766922824984 6.102802456730716 2.7477250709119647 -0.42312387614965835 -0.5624373011717216 1.092368659295938
Ni 4.295485747138192 4.551312890423633 9.104845028717708 1.2455678411611582 -0.5900859161269257 0.8388368045472262
Ni 2.762848253177529 1.6254214329930938 10.282383485359635 -0.8582375776713413 -0.5339402221732933 -0.36928754705549305
P 1.977188368831511 9.110773788621072 11.517104715923995 1.291009261323409 1.4162142719685482 1.2573303810137249
P 8.216070860262501 1.5926356214185313 5.775299605197199 0.496761556240467 1.2372960880706692 -0.7645854021318187
P 4.504307282722867 6.727882917203799 8.79555385118463 -1.1324128197020176 -1.171097380756409 -0.1635987799319892
P 1.1680533635607293 9.057687164926039 2.140122686910421 0.9533609384397518 2.0360627640698867 0.4928316250584416
P 8.964081965766917 6.640423327532057 13.006555000390916 -0.09819968570088894 0.8244869635834575 0.343976321984214
P 0.5903651489828885 6.661084017685574 9.039572381165266 0.011164758367567869 -0.6940279036282305 -0.48127708745162273
P 4.357117167207571 1.027451784342714 8.984537802270854 -0.3654961983338609 0.6353388744274542 -0.6147800764394962
P 1.5144959500384594 3.008967917212635 3.1527032036107014 -2.0436794000748804 0.16848824681380659 0.40022948804998815
Ni 3.967664541960059 8.035661234004614 1.8773443610020928 -0.6973070886001346 0.9678303357005202 0.42656401217945894
Ni 1.8807318283336498 7.3113005746205495 7.449424531995681 -0.6116237901987015 -0.7048867007196054 1.095243666850888
Ni 7.384226628342409 3.8805832856051063 8.906150830088588 -0.605612293897299 -2.144991406152506 -0.1606119293895234
Ni 2.5114503779911006 0.3692745407639501 7.413878732736921 -0.485090547660442 0.7754596258421612 0.2273323135352085
Ni 1.820392278126483 4.496389965995883 8.411725473658676 -1.4151230957868985 1.0358990063439837 0.025738285306368576
Ni 0.8410082030641105 3.8456658887578943 5.189494756827919 0.7756072071636191 0.8130298707864513 0.4126885397489473
Ni 0.9174979720773003 8.527014708455024 5.619971632314156 1.2559221878122886 -0.5064278756856375 -0.18410255631229583
Ni 7.9386971732037415 1.3246095355770615 9.176100879260565 1.8170299715393095 1.6445076638654452 0.14568307599383298
Ni 5.360014196526386 1.1545071852912507 1.9878472179589466 1.9398461702372976 -1.4981059645380328 -0.8498637517853491
Ni 0.9024753711081509 1.8928754050384413 1.3654012492405883 1.072215838497147 -0.030353415480876757 -0.49636560635362903
Ni 0.0708784399902539 2.838911705136189 7.58091566039254 0.05586287260589089 -0.6250500909069363 -1.272130936361667
Ni 6.11278676523724 2.0450207642395073 8.09777433697976 -1.6029306117546072 0.012048960744734088 -1.1009096068874136
Ni 9.084899480809344 0.47033752008478424 7.338044126296711 0.03547685275037116 -1.3646091461977465 0.2576867574573498
Ni 6.530503657541573 3.0973318157879266 1.1055508540985448 0.37380908907493043 0.8049771756853038 0.048812136406696585
Ni 3.9798450292323424 7.981651846122285 6.539770055510381 -0.9098771562245039 -2.57580879429168 0.23555984365132332
Ni 3.185898722484423 3.996390191110527 3.8403812182572605 -0.01500881470400641 -0.018370532087387714 2.3137460192538217
Ni 5.402747406039981 8.571713405687555 4.045490473516451 -0.36054348231427585 -0.019819605829088448 0.030342873957915486
Ni 0.5020538479662727 2.937675156102286 9.835551537417794 0.27327098504885194 -0.00900091794702966 0.9442684892201803
Ni 2.8390408921224104 8.492614059552697 4.026960445871397 -0.7221470304619498 -0.3709947595545869 -0.6551201708194394
Ni 1.985179506693479 1.6772346421096624 5.397034572956443 0.22431280998259434 0.26093251808815704 -0.20886022287294995
Ni 4.9814778716145645 2.8753332076086906 5.856603434975503 -0.590602193641712 -0.3214917677284527 -0.7204573014643527
Ni 2.477714119303625 7.259265902099031 12.544488215716848 -0.5101449195259086 0.37488123909318666 -0.28219528412167527
Ni 0.4022688970448411 5.1535733925449305 2.937208237423515 0.7052764799588563 0.04765951085949211 0.6888106210933491
Ni 0.34341684270759243 8.959717291161015 13.288160484012607 0.5344338739802602 -1.8066902801761984 2.1477064910908235
P 4.821018407085978 2.573091025702352 3.4214379723480133 1.433997564093898 1.2184324183969466 2.0289894021628734
P 2.373386400288144 3.655170449932882 10.82525396162249 0.02564829669572357 1.2791572470808292 -0.5837797714032398
P 7.467607600306312 8.899303919818864 3.0113947870252185 -1.0148807522211039 -0.9196254938605194 -0.2077194244002874
P 6.318314032673274 4.532885289603368 10.638026030784689 -1.6069219923021871 1.4360274500397334 0.8256874116494618
P 4.591240896807853 6.517511137784471 4.8865641928378585 0.62578902595549 0.31490460142923826 -1.632972666642652
P 5.284679728275689 8.734498235968122 0.5330264279128022 1.6535296648583975 0.7534892922186571 -2.2059594611954463
P 0.02040416170944909 6.079336563447825 5.278212996851131 0.18631781879605977 -0.12387343631790923 -0.3153167492659924
P 7.359293540001721 8.035679689288362 7.062543650538158 0.5869959643476923 -0.48434647040556583 2.4913542260910257
Ni 3.0351467372061713 8.320020245961192 9.431869888402206 1.2792608625382291 0.23973274408209036 -0.010412710692891744
Ni 5.6291199164669905 2.551000051058529 10.633393754564471 -0.28125528880590916 -1.6745831430945868 -0.99976549384622
Ni 2.5228372880623104 6.191803062595241 5.502851633370216 -0.8835657720234847 -0.9247142212373366 -0.6563239613195536
Ni 8.708854619203217 4.630522968260966 0.566292999628945 0.002080279567796417 -0.0788837589810964 -0.3426915417345195
Ni 4.624183578294255 5.297109361878542 6.752658212868461 -0.2758171485094734 1.0093469668870683 0.13807826706338155
Ni 5.826979013506611 7.012721766537769 10.682040959754433 0.43083615719225155 -1.2776786056527738 -1.002592164661738
Ni 0.15536949727147165 7.53431422340581 3.5143427934889795 0.6024428950303817 0.07839833470424563 -0.05899601891823388
Ni 0.062426842798826425 1.2604036034251316 3.6717229939245652 0.4462478637616315 -1.1604928657676852 0.9213666449213422
Ni 6.6669251149911455 6.154218877246748 8.293727003208431 -1.0843838413182487 0.6448884657891023 1.0083542639564957
Ni 6.990307824428394 6.72386889298907 3.652504584195789 0.18884392765202315 0.2527759504192937 -0.07111105701421301
Ni 5.689394873181047 4.730089224070008 3.5492408122882586 -1.2948317203932926 -0.8406435187386619 1.5820229150676626
Ni 2.6360050879920696 0.5038227869133157 0.20376940165923912 0.17330932235153376 -0.59546106439591 0.2089666665438272
Ni 4.374308264016862 8.717187179814484 11.524019910743577 -0.033703820010348405 0.4057221357334432 -0.06917938720913892
Ni 7.863205835041204 3.2318062408023085 11.5400104913452 0.5567901301882734 0.1778321499225518 0.15046018566750216
Ni 8.401518778983014 3.1370014481997037 2.4815574321437053 0.6672115547663348 0.6445663065629932 1.3952484683501583
Ni 8.10022704418959 5.656489102262137 10.250430007082011 1.496822726950235 1.2253150044493928 0.6000337713682569
Ni 8.79214331474839 5.136548393289353 7.688932590628824 1.316420759417978 1.558046092537091 -1.3162916900392814
Ni 8.035384404748427 8.117630376761959 9.414676946064542 -0.41901576751855574 -0.7034319705509497 -0.8303033131549185
Ni 7.1022298927053065 6.137120056856188 6.053852584887322 0.5374454071130744 0.07999756087056545 -2.180282368144316
Ni 0.8976114810769233 0.0037039754477988717 9.677239345153042 -0.3206348190447962 2.5474976060518126 -2.9879694865616155
Ni 4.2338727823525595 3.8875501552191776 1.7767815198707722 0.10094562387714227 0.1739706100846165 -1.2086028339010346
Ni 5.0045838868644115 6.90507209644803 12.84298858884371 1.3791723887239022 0.24198760155453808 0.4771021301383268
Ni 7.534738694931965 8.288692401802555 12.136795310779092 -0.44481524508016296 -1.6110097892183155 -0.2561685210406104
Ni 7.071234243654095 5.43975947759235 12.519584655830155 -0.4376354395022721 1.0959728317074287 0.05619763023749031
P 8.446125199796816 2.1038654364632574 13.312402421977012 -0.24598078187433123 1.2474568306537548 0.1955388231736955
P 3.4952830992004182 6.193399444639259 0.5684430401853404 -0.9230507174919845 -0.9505103563648338 1.3357060900101514
P 3.8339836941467498 0.5473495736279826 5.4172394176014365 0.13432779888201382 1.1942367949873498 0.26609632167728364
P 6.481744797884948 4.230274002022112 6.817998222206576 0.9442250375767546 -1.319209892127341 0.8128074703630002
P 3.142925594282132 2.7386533761866754 0.4083249984060529 -0.9179015691908772 -0.9226750793201206 -0.9915850149179568
P 7.444187845232785 5.055788071617366 2.359682429342638 0.4513805570025065 0.10288629254328087 -0.7227316993208263
P 6.762006736849939 0.3823187353155408 10.486493387003986 -1.5362238544556768 -0.7826600002453424 2.609568407240628
P 2.8075746333356784 4.087559292815193 6.561850879748143 -0.6089619270958222 -0.006014067404563836 -2.0858485772437625
