# total energy = -340873.5770367725 ev
CRYSTAL
PRIMVEC
9.20100183126442 0.00000000000000 0.00000000000000
0.00000000000000 9.20100183126442 0.00000000000000
0.00000000000000 0.00000000000000 13.46659623157205
PRIMCOORD
 96 1
Ni 3.9299963957416986 4.0463430664606035 9.108415110752233 -0.4044687229423164 -0.2921935329849677 -0.41484440974968556
Ni 1.9243619723880463 8.60576160933863 1.1679485152797728 0.31671080140004165 -1.4848372724535848 -1.7283495381827654
Ni 0.24613784560977256 8.729229855631788 10.180746812895519 -0.58275235857999 -0.3723844408132619 -1.1617313661604767
Ni 2.2393582770192615 6.4985573245325465 11.21397149609404 -0.7733387228444165 -0.5407011950462106 1.4698973633143007
Ni 3.593120108273824 0.3127135360265999 12.565169928181954 -0.25585973155093994 -0.5091995248935036 -1.2263933251152364
Ni 4.45504237580525 0.28717615488145787 8.434290815334313 0.29655335261556026 -1.1490784532831566 0.010697588923162223
Ni 2.958784626051384 1.5962358378544288 4.416841655560825 0.11309999985148908 -0.6283120494876598 0.3572211028092622
Ni 0.7924685036783882 1.2726273953194653 2.872964119780412 -0.1350752185709996 -0.22609715557652674 -0.24254013162389843
Ni 5.4038221025368705 1.1577528849259873 3.80563289195064 0.6221735406900898 -0.023154326629276252 -0.4610581893015866
Ni 6.9280048934636795 -0.25866685007936 8.979782342017435 1.1539686914959222 1.1209045619521019 1.9065861226325873
Ni 6.676145864789216 8.106506037976153 2.2838267198491917 0.29274837704717327 0.740694454446834 0.49474066915569626
Ni 5.6309304357400904 6.3896542644590815 9.021070918544442 -0.6303175099534628 -1.091986593366171 0.6166958054049702
Ni 2.0358505140330423 6.084779062065178 2.27636654740009 0.839717921600599 -0.02917893555680136 -1.8498565311510269
Ni 1.9512565013331915 5.816910289851695 7.142897976366671 0.35575660244859375 -0.7402704795355379 -0.3586465224018791
Ni 0.35225024176634967 4.653719612723662 11.238022915410705 1.2813074606546127 0.8422669132746978 1.4426680952847026
Ni 6.810057248390872 7.676359192890444 10.9527596488521 0.23285992822165705 -0.18527240825068092 0.1910915860356193
Ni 4.132556455518424 7.713200005034255 10.716717142673943 1.0916860314066166 1.3576345146521265 0.28093621490359355
Ni 3.4025029491371255 5.245794892604311 13.256773367163708 0.16756470655827269 -0.2929885180824373 0.7363377201400352
Ni 2.0886090596955333 5.864626686399599 4.475353587795126 0.8165114015771486 1.317514249592473 0.6918725478481246
Ni 6.212010518190208 2.1274648912847733 8.682911091292837 -0.16976839907781086 -0.11882996035673084 -0.7039947850329553
Ni 0.7225372078197906 8.48916651156481 12.492248306662333 0.2670219188153466 0.22920459085725686 0.3771247837117247
Ni 2.147035422610919 1.7009524420024604 8.904059935478688 0.20144876090022723 -1.6748397391900833 0.06067597772381809
Ni 1.8593016870062056 3.634929461515952 1.1926734479453198 0.37143467530548285 0.8504224525022968 0.0454506761336314
Ni 6.5037466896796765 9.518528614109492 -0.11649296665124441 -0.7683101592815736 0.20634542687089621 0.9024078444306523
P 7.605897919314692 2.233745665778571 4.992929274307338 -0.6777883018409165 -1.366089330287699 -0.42367023557143163
P 0.22859337493149592 5.297026071929173 3.252479690873874 -0.41902682326214935 0.08543133029162707 0.6694872381743889
P 8.28655124577588 1.341561302557586 9.464579458783811 0.08322609511019215 1.3562026673016063 -1.544070089972973
P 1.2027733878779527 8.838252528731694 5.447467055684764 -0.4292546716377446 -1.2132359617976718 -1.1154268266669822
P 2.9415603502438876 4.373650311813202 5.608245365225464 0.24304252518161368 -1.1925918031847589 0.18022301875223154
P 2.0985921469023356 0.6073609045595999 10.780603380196254 1.6624562779240657 -2.1888976206171527 0.7547712442548743
P 3.197845060896666 7.4060337531339036 13.11492979970861 -0.3022455179043311 -0.2655466198214007 -0.24597332567516345
P 5.542527208198198 0.3498110561271577 11.18865401889751 0.28034666094871075 -0.5357345950695547 0.032058313987125435
Ni 4.467224502498158 6.246900717902829 3.7739326796431794 0.34882259433292184 -1.315914766315837 -0.07624632135824934
Ni 4.326706799436148 3.557484627396456 3.8742190013118787 -0.1942455582835687 0.48516176721800963 0.20193469939771028
Ni 8.920233456853913 3.317301670303036 2.271451372113571 0.7725154556121728 0.8318200069097609 -0.3321543896486215
Ni 6.881493828182219 4.240373797351887 3.150119463346728 -1.143169543997889 -0.680856399243279 1.0438946229549506
Ni -0.1819277328158658 7.412382444537309 2.1691187475925275 0.7955800507411201 1.506238106726864 0.07777227108447252
Ni 0.7636822487150693 6.164229714628068 0.058837647706301496 1.1478124420865394 -0.5561244715798164 -0.703368464302866
Ni 1.4551568736683493 3.794005585680377 9.148168960139982 0.1323436785724495 0.883348513806356 0.007218372125310149
Ni 2.324338731804537 8.158059252372201 8.96148154897197 -0.7043010034194644 0.48039597039825 0.41287623027972115
Ni 8.15425003753016 5.48888536634045 1.500299749947366 -0.5953620769242005 -1.9652988059824477 -0.795441725391043
Ni 7.342832070162914 6.990820134349244 6.505873961349919 1.1904171641309433 -1.5765719192554202 -0.37983601199530065
Ni 1.64742101216912 2.9595667112242676 6.973179053149612 0.7159959232588895 0.18023536004740573 -1.7608549670096383
Ni 7.148782937267565 5.040023683117748 11.350644100406077 -0.818883758464067 2.1167951462239483 -0.4657936471040429
Ni 7.97342274455755 2.9055936332932983 11.662301361399184 -1.8534162234778273 2.0365199062119634 0.9488301404489335
Ni 8.543737654627982 4.181910630428366 5.155605750567634 0.0322460045178993 0.4350836196146958 0.2561448668915266
Ni 0.6398257201360795 2.078092314370764 10.834348273276783 0.7507250992099587 0.5130860044321034 -0.299018269216285
Ni 7.518966852098226 6.457732478508048 4.039440474734758 0.13817622609382654 -0.12889377235063607 -0.5873579756728013
Ni 7.725759372810554 0.7527394969961295 11.521252760519815 -0.09564092383477721 -1.852891204212293 -1.6011277542179134
Ni 4.126235367121122 1.6661634533122127 10.226209884045316 0.12791443915650227 0.9893576682493348 1.7047403834042576
Ni 1.7353089835971136 8.337984847145487 3.3576664662258384 0.7959312634329518 -0.4013643729853797 2.26382779426714
Ni 7.754153665087228 7.193168571079189 13.325035601253354 -0.22248012764922975 0.08605739391140017 -0.14991434046636115
Ni 3.612810252626411 2.481068600450312 13.371037851122338 -0.7094671210014363 1.0701882665441569 0.6852668696061488
Ni 4.6653128752864 4.2450203033790155 11.334362927307057 -0.7680818453208514 0.4233164517764387 0.12005997610909003
Ni 5.515669483261188 6.83552562202076 12.651678669405063 -1.4728091376444572 -1.3299285640964258 0.4428900030329921
Ni 5.6544665989428555 2.9099181042492406 6.072653981584879 0.42064019049585627 -1.4705681641290802 -1.0704806009735952
P 1.7260711775550592 1.4768252334582288 0.9871111012049266 -0.3522902411665481 1.5050631125821563 -2.0249949362915
P 8.378009205993035 9.047639732017588 0.7787930543553744 0.5747192038628682 -0.5161679857915369 1.1701442728145204
P 2.5096653147717323 3.488265489095284 10.995098979811381 0.5018114599595487 0.3046029623929141 0.9064437050629228
P 5.984938988995123 8.099458070418171 7.490591881925823 -3.0305405271546064 -0.1963402360290683 -1.8350163808144009
P 3.2498123203842404 6.27225867950831 9.293541111875088 0.9108757726923474 -1.1020365214030052 -0.9182550958755541
P 3.9963080174001524 4.791108975094139 2.0662340629494493 -0.9385760668210932 0.24593990133406676 -0.28858601813936746
P 6.1013592677303 3.991707516383193 9.65371801689366 0.08584733478312312 1.60359652747338 0.15637886514478228
P 4.250439693576993 8.338362088228877 3.3998714625554243 0.020341796881145614 1.6141887011669298 -1.2287335432126387
Ni 4.581804580826551 0.5553991656732461 6.034139507171098 0.704453984057561 1.3444074744388912 0.6837887423987257
Ni 8.34595291490686 2.4327909427783396 7.302827953519842 -0.4000081160678014 -0.09083656046759839 -0.3046615835449914
Ni 8.066150443055385 9.041392251636557 3.995189175552828 0.6740630304705295 0.2568539771434093 0.8712368181444866
Ni 4.627386344902585 4.723242384091953 6.984840403127399 -0.47507738639881403 0.6591730007325745 -0.5919947031138643
Ni 5.812797441942533 8.017532348308158 4.9882432039714635 0.2966538827491665 -0.2562088873602426 -0.5082785557411311
Ni 5.641852025154353 2.3075285010885667 12.334473204185503 0.5145844433545009 -0.7222275059908981 -0.4209919174083201
Ni 4.844134349815614 8.39281361826561 0.9132960623878118 -2.1129945415309352 -0.5888024214288118 1.2402024630841866
Ni 2.3824154566426334 0.240393660039997 7.055823373518475 1.4169424083838242 0.9291246916002063 -0.9716949608622492
Ni 5.834336987703938 6.02364760455182 1.585462384572913 -0.6864534337150823 -0.9120618225806486 -0.5806633372614451
Ni 0.9086072317513267 5.987165631487331 9.306172247467252 0.27797121873799874 0.9281373879862725 0.2433798539163744
Ni 7.515424466315166 1.5374138318515849 2.164203572306008 -0.022752977425799525 -2.801854270694665 1.1737980675170236
Ni 7.226798233513163 0.4102331163837 6.337703566775168 -0.7531357655339803 0.46390979981776875 -0.3223944820483802
Ni 1.5772173666503182 3.5786653340785373 3.900451978210785 0.26123925069529846 -0.29425530061000293 -0.06242664186633765
Ni 6.862061311886582 3.1589708273033588 0.8367796093735383 1.100569964159808 2.1019609094245926 -0.9152859859449011
Ni 0.2815966672480894 6.6895149207445 5.509777161558667 -0.5251125965793344 1.2110878051064176 0.16472620866821308
Ni 3.390063194387267 7.9599708795839605 5.341175239988527 -1.9109243449966251 -0.5261986305546615 -0.789557498696124
Ni 7.0684673905134865 4.482857004953787 7.282398968703932 -0.5829140809688348 1.3044707861449534 0.18617897922535032
Ni 8.276356535522298 3.8065741544587097 9.42502895154101 -0.6297968615633025 -0.3993072333460349 -0.7587939922610222
Ni 9.107685471290942 1.6311904445812868 -0.2513161695544622 0.7121091866099736 -1.000209266251858 1.3618354401073514
Ni 0.6619532099274512 1.6447251185731817 5.110128877914787 -1.5071248802071915 0.5421739229369953 1.1808333770972503
Ni 0.14183896695408094 0.3736536126976519 7.4488588970005765 0.024427279804428898 -0.9917271969227758 0.9868055912514424
Ni 7.943620698969687 6.661415060532911 8.934224500546689 -0.710780440496221 -0.16989644001524287 0.7570371574709156
Ni 3.426526765447688 1.1615713007700637 2.055339156441086 2.183073300625892 -0.6195674705258104 1.3212264083367375
Ni 4.0950715732322385 6.99395767604281 7.262966452408295 -0.18019782194125097 1.08942911705164 0.6539968558482736
P 0.2723248174985093 7.401276835082368 7.700967272830159 0.5459498450396598 0.45167931918984794 -0.8366552235148752
P 8.832087857368968 6.875991628965935 11.362629325655458 0.4949535564974508 -1.2058209002805234 -0.18661246721834313
P 5.444665350565436 1.750343420920537 1.378252138368245 -1.1704967710579326 -1.1827876726101436 -0.007525104732451557
P 3.767893141908115 2.1850999680252414 7.482782071399432 0.891082135005188 0.013584166442337895 -0.4991390553337081
P 5.888862125756941 4.546849974099693 13.077236974776458 -0.6266259200344886 1.6911919552958616 0.16056153576756219
P 0.000306393367729501 3.74639960115688 -0.1580575732392699 -0.07029061799544667 2.1617295448427933 1.0046729584501666
P 6.1412272095432705 5.236391468525647 5.258382783486916 0.19532799271447007 -0.2923249163565095 0.015822311744237264
P 0.03142326214623999 4.425792390339422 7.396299092982018 0.36640431197042705 0.701932503187288 0.12494250101237193
