# total energy = -340889.1864595008 ev
CRYSTAL
PRIMVEC
9.09184513134862 0.00000000000000 0.00000000000000

0.00000000000000 9.09184513134862 0.00000000000000

0.00000000000000 0.00000000000000 13.30683436751883

PRIMCOORD
 96 1
Ni 6.551892591472553 1.8200600725424065 11.433830561291712 -0.368489733744546 0.0790825052554638 0.4294570174565378
Ni 4.728486719989683 0.4061727178962989 5.650440710908761 0.248981516373868 -0.6270563227036879 1.3696778189699055
Ni 2.8836604618118904 2.036927850061084 4.68513680328281 -0.5761595358538207 -0.9075238255009789 -0.02173404924298192
Ni 3.377311275049392 4.65246071254361 4.620611979694579 -0.21473853603059792 -1.0849219732099058 0.9977206955020493
Ni 3.534536549716331 2.9171820941311526 2.6417391963575034 0.8903653114438215 -0.2153370888465453 -0.9405445034013737
Ni 5.239793896114087 4.629194681324464 2.758466666077415 0.41604125827126415 -0.7866835195824387 -1.4303039172923948
Ni 4.911396456631646 4.889230538651077 10.893160362726762 0.20197429438639408 -0.3922909499292018 0.9948577721319576
Ni 5.814843997161286 7.784664939669217 12.325348692066509 -1.0007980488757926 0.6960994414452786 0.9269665076066228
Ni 1.9239162173709754 6.813237674471521 0.2536997505831105 1.091295223726101 0.08179476198030429 -0.5141843797026048
Ni 2.666938153812363 1.4834617889178525 0.12805954526174182 0.139398785647018 0.8550926042844563 -0.3067799154395749
Ni 8.15773970522078 0.12112246756724843 6.558686018016885 0.10053630425386556 -0.18064313700878568 0.28060711369894903
Ni 8.595539314949406 2.682512484206422 1.1882168528498303 1.3212022399670214 -0.9234443533859773 0.1638468913870533
Ni 6.9860463713774665 0.9436425870399346 4.522208214280673 -0.797795056114568 0.006801339192549577 1.3681140740272115
Ni 0.8252276708978765 7.399779867531616 2.2534728670841466 -0.43411045706814916 0.49697341514095694 1.131746389762612
Ni 7.773918378941968 3.7876807885731845 3.566750774732227 -0.2343509109448867 0.7979056135505033 0.11205638907832315
Ni 7.85200823519099 4.0312240391661005 12.53015431889412 -0.7378171328990389 0.01607479407467554 -0.6976960965084371
Ni 8.489982995115763 7.101940118915746 9.638552130521102 0.280015245751221 1.1481330586507514 -2.2822723741255726
Ni 7.025059478044663 0.6314104478731032 0.343445352054073 0.5480684340445593 -0.36530593669992567 -0.5719619528327052
Ni 2.1824246447465074 6.508860889338822 9.188262144204412 0.05100734428580248 -0.5378351863523254 -0.6840895614685961
Ni 9.514797573841722 4.980967254165413 1.294184124075072 -1.223255550817203 0.35453789955014425 0.12854204543817216
Ni 6.319623228613808 2.3745353284747455 6.8870716381008945 1.4305438012173428 -1.7187984041592204 -0.32872273825925324
Ni 3.486595251311267 4.9114873750811165 0.5736772324602158 1.470107679552894 -1.4109635650925703 -1.7689714254691855
Ni 5.974269498305377 5.565345588128143 4.935903524686047 0.43633137597886795 2.2130585341340723 -0.22629358785804898
Ni 5.8281544581635645 2.6739752418012723 9.23156296494857 -1.1607931706169234 0.39196287716582173 0.8435465513180699
P 0.3325669595750935 5.802942772125779 12.547599750978254 -0.17274419387668316 -1.7703263968351832 -1.0372408650838587
P 3.9585801980402784 6.313158926856553 12.315089454228414 0.2514873135148572 0.5435929147717089 -0.3432296736261766
P 2.6241610233371446 8.657500238262607 1.375035173634471 -1.045217198421116 0.6164955164687059 -0.35048198431321576
P 6.643820235730774 7.866291523602588 5.410532379925621 0.0010358974636820871 0.2851597660666379 0.9959558902921428
P 4.651851558932167 1.1374716294631388 12.488610042593702 0.7169423463325588 -0.8346968142369238 -0.8814960339786496
P 4.164010434615742 6.121120977887891 7.984286396508099 1.0698645646561509 1.3623938837139826 0.8955975063770383
P 4.833306600382625 1.4592047465994928 3.8369322218350983 1.080644171770158 -0.043623650227221644 -2.280973709918807
P 0.1589418149929158 5.671792908766582 3.527548557690135 0.5941767983668477 -0.07745756805753111 -0.20232910662265158
Ni 0.7020422637121738 9.363963866172464 4.568435699913245 0.35611115757453504 0.12569146336325449 -0.20310737954957275
Ni 2.0822688808113314 6.780470665282852 4.555461637174002 -0.8853717148839718 0.27971802622577635 -0.35510071403214977
Ni 6.424179445503288 6.046486022718695 8.779157306312733 -0.2606219288262737 -1.4313614120226317 0.5277983709416136
Ni 8.642789633138504 2.5227778603341355 10.358678073832683 0.7587194302693449 0.14795515985746133 -0.04307729080544839
Ni 2.5176591516290245 5.365525019884925 6.90250777245176 -1.0262830805207745 -0.7187493176343106 0.14451270983481562
Ni 0.5984670568924644 0.1854172674783218 8.940142968049715 0.6874242822687839 -0.6150353869834118 -0.2895537813692755
Ni 1.5290846668614537 1.0541448705246959 11.066681860276546 -0.34635304974650677 0.7912194597795792 1.5203256951681816
Ni 3.9757001420753126 7.005666572772902 1.5637655094114473 2.127654714646271 0.9894368582267024 0.09381132682520618
Ni 5.992707759857714 8.133591765041784 7.677244791621459 -1.1850067917486495 0.3610972979352168 -0.9510163494669749
Ni 5.370125493428062 3.288420307003439 4.809648710646266 0.3220067596916584 -0.8160668578405624 -0.19214316722858524
Ni 0.9709363055705627 7.529375025404892 7.126341721568762 0.49160855128461783 0.4964404254556224 -0.539710034777535
Ni 5.290135441585135 4.4832796617714825 7.174313023062151 0.2840984146816591 0.9359993072328525 0.11288736962005073
Ni 1.0616001833811632 7.345437910283928 11.242744528488991 -0.3909940854946492 0.5911215564802916 0.6601302224395211
Ni 4.5944001907126335 0.43152714589975066 10.249189531059503 0.9046079374057645 -0.21219700055566681 0.25383473070111123
Ni 8.723088807709624 7.27804915553742 4.934094247541611 -0.5589092334138052 0.47467320898185994 -0.8608703873084981
Ni 7.842989125003654 6.525835363854704 7.033593083711834 -0.8148080457327969 -0.5391384785447811 -0.700049170121646
Ni 2.4594986195036324 5.389000163537849 2.457652065794915 -0.5887180892451216 0.6780963199996387 1.9485760939111276
Ni 2.219373902610755 5.150221039697116 11.341308310373963 2.358478843384822 0.19155489882528298 0.013997599830672667
Ni 1.2074788355543569 3.461856341210721 3.359443072175227 -0.8076017577923447 0.4009923343579416 0.77620884530336
Ni 1.452813179601814 1.2313358366950522 2.1766258660393674 -0.36908957211207405 0.47174009449546495 1.337806681292922
Ni 1.3257000953990457 3.429943965447062 8.184301530233181 -0.8552502129082431 0.6961506063981882 -0.12445707673552114
Ni 3.8213751659464386 2.799833651401367 6.766578326203972 -0.2593374056868953 -0.2491740920006483 0.8374630641281512
Ni 3.952252273957228 7.027259704521816 5.914129671535043 1.4353723329542376 0.2157734050530155 -0.04497065117341933
Ni 0.5806224928151614 8.99712610625448 13.638706607950121 -0.28013865870296273 0.1739418137292101 -1.0084457952290373
P 0.3903783648545244 5.593484848238834 8.05103417618585 0.4687481017466765 -0.20099084742720222 0.8616175498871677
P 8.733062561616387 1.8133684746614795 7.92453933743947 0.9241370085776279 0.5920006166511352 -0.9578757955909696
P 1.917070058125951 3.093827549604694 10.300142048510985 -1.2541478695206851 1.410799785821196 0.5132464412693678
P 4.261547747206207 6.2872471687578555 3.654043396436513 -0.976269467606809 1.1788348586099826 0.09612917632510541
P 6.895109738218458 4.150090820002021 10.299582900046747 0.6118875853830494 0.03549665024471307 1.1285083424412887
P 6.590141983164209 8.053619896888751 10.24455905442804 0.7852367598335832 0.5981080151004537 -0.6059532221764854
P 2.518641070883291 8.789668388255857 5.6693099259115805 -0.44903519669878156 -0.44936789744785194 -0.15935080328891266
P 6.918193932538666 3.9839464454421614 1.2535899455716073 -0.06399964278041236 -0.1918336064079664 2.0481304938676987
Ni 5.256295594692731 2.820499414965697 0.35830142669732623 -0.42346994663516746 0.8438501986014175 0.10782255350263366
Ni 1.8096680937680867 1.4110907031404376 6.82884109876941 -1.5694548485946649 -0.5667495553938304 0.27173295113777074
Ni 7.273430498304389 0.6356663404927524 8.865970787788317 -1.1388410918258645 -0.056575325291883215 1.2122208902695961
Ni 2.9085539332765338 1.6109840061432317 9.119718725149644 -0.17766837065117788 -0.184266849804302 -1.4123709869630579
Ni 6.604570741094958 1.907941845799252 2.3311044943478443 -1.0413129782707036 0.9261126442467598 0.6005263947339593
Ni 4.736951227635258 7.106495133234149 9.978142540317686 -2.415335190252234 0.0379152869885347 0.39926558147482205
Ni 8.158512512041268 6.974799759178136 0.3311795440361948 -1.3216082171561885 1.1407701905277774 0.7635690450521624
Ni 7.819750369319348 3.752886297961355 8.392993011591102 0.6559424096104187 1.3720843715288693 -1.3630572283295943
Ni 3.065270064626445 8.536715078142889 12.078200524952143 1.3550919507359307 -0.5830948295210732 0.8450313633937124
Ni 0.0361228091585737 5.077040779719426 10.53464800522667 -0.026520157777715617 -1.5250020175979284 -1.2324477588394323
Ni 8.817934934195804 2.5255781485777846 5.555230910624704 -0.08536473871974976 0.2311925678215631 0.6856494497565482
Ni 3.8091102671130552 2.7254623597356313 11.189623606017673 0.5429943619557616 -0.06064435315493427 0.7810780004702033
Ni 1.0422981965588705 3.5166528907057564 12.506228219731828 0.72825365758032 -1.3941436653217538 0.4509866639981975
Ni 3.2412881827986504 8.597275857334264 7.713838558348282 0.6183947903739478 -0.2768713008056006 1.265678238757788
Ni 5.5970670351479175 8.056656573101018 3.4192974150142286 -0.29354207659306225 0.21418112086523114 0.8938103325696284
Ni 3.1895464932057775 8.979206079864118 3.5536030577544984 0.3363252331968595 -0.5243700619863549 -0.5453942296465059
Ni 3.5491653282359112 4.3134530900081245 9.191030610990746 -0.3235067412759525 -0.6090891967023059 -0.9823992346536307
Ni 7.028487103589649 6.073597904350385 11.17873884924723 0.34175540307349533 0.32221501904772254 1.4552230491315776
Ni 7.977602981287624 8.976196679186693 2.6886994846927954 0.504761286616492 -1.6661905481555177 -1.1969601074557836
Ni 4.799966804962301 0.6240442350971156 1.3360329771812105 -1.091648750410778 -1.3000849983724319 0.8413639418444542
Ni 5.921873195876327 5.252286091071143 0.014631506073064522 -1.2246622013567425 2.060785206517232 -0.49091126810727714
Ni 8.400737445116881 9.122484464382497 11.122463965763826 -0.8295867467038681 -0.4921623669055589 0.5766202775403231
Ni 0.37468765884514466 5.109189543451705 5.719902406303164 -0.5581296749353033 -1.0296121448940072 -0.2051038411543113
Ni 7.214051658956111 6.085862803183768 2.6993842208744057 0.42467785090033955 0.4404181444537318 -0.5896935657845135
P 8.699077245204831 1.7904752090851566 3.3738145514828095 0.17454885118558972 0.3446388952688774 -0.17156739995976258
P 2.027808729579332 3.5263447974191635 1.2701625605408375 -0.6285575898395627 -1.9230337266656492 -0.7162340074116246
P 4.839980014573658 1.2255806988436573 8.069450617310313 -0.38524689859822686 -1.5114093665151582 -1.0774390345692992
P 8.768857155172377 1.6661442294361433 12.528197753861544 -0.4267488744967554 -0.16932308401027615 -0.3423459854696426
P 6.3249510497526975 7.819623083490091 1.4073975957230023 0.5641771666809638 0.2003516711813066 -1.0820541647438073
P 1.8413168060282854 3.4532645477358894 5.899944575048871 0.029418819481749337 0.230916431342041 -0.15901630276762937
P 7.18008452623445 4.187794700996863 6.027490431071113 0.8525644385459639 -0.06430997493197957 -0.24232081652424073
P 2.412457413748313 8.462989307468384 9.989892840727071 1.3143924161340395 1.0903238609517674 -0.9499529411994673
