# total energy = -340868.0247709055 ev
CRYSTAL
PRIMVEC
9.30492033045687 0.00000000000000 0.00000000000000

0.00000000000000 9.30492033045687 0.00000000000000

0.00000000000000 0.00000000000000 13.61869145938575

PRIMCOORD
 96 1
Ni 3.1683067409244376 6.370706709705566 3.1617830613255498 -0.045882621464727436 -0.9963189300585165 -0.8308663847472401
Ni 2.08665628453773 4.41537076488985 8.889260173336119 -1.7872342283341156 -0.9742850901869287 1.9259287888252572
Ni 4.686869728427648 6.587688145401566 7.590718538979996 3.0823611113703238 -0.8227427271988412 1.4270938949955292
Ni 0.05086348565311765 0.6188041819952651 2.8460745606172537 0.13865805082625152 -1.7588844735468285 0.8751487516043831
Ni 9.307990890251757 3.2150918800247203 3.3029684775141757 -1.0379191220978061 -0.4767354908275273 0.8048221381646785
Ni 5.494843869934182 2.346552012503123 1.576990442841018 -0.2611466909814922 1.2740543786366252 1.148753208733254
Ni 1.1912996368078956 0.47110439112801805 5.247445580378811 -1.725549606840125 -0.11209392718447792 0.42570140706884746
Ni 6.546793020830018 0.02326416165046279 3.843003717976898 1.174506663548274 0.13622321613251379 -1.6662555970654982
Ni 3.352134745710672 1.3400480921891844 5.74527649398848 0.5976143632934869 2.013904739915609 -0.8407337644596231
Ni 7.997792982277709 2.318144090929304 6.800983902179981 -0.21793493148070855 -0.2343005173229255 0.4039059084603109
Ni 2.339368614057336 3.9460026718835723 13.555214301988585 1.2677294648598618 1.746148256927083 -1.0076117293635163
Ni 5.418236461379562 1.6874286805008103 7.912677154631344 -0.07257581448519759 -0.21370803788355455 1.4268974627140072
Ni 7.482039861742611 3.6052844064828067 4.672954220169002 -1.50014767755841 -0.10536920686613464 0.9126976563924346
Ni 0.6203097180943951 8.35314788725778 9.468285821191824 0.21382656573928985 1.3639015786077608 -0.6043953907710623
Ni -0.028778257400428494 4.7367720158172295 6.129078401207489 -1.161685600524206 -0.684603267880221 0.3700002568518015
Ni 3.1562568691792374 2.0280632016191777 12.118510420038444 -0.9794062134635778 1.165396730827206 -1.1252484407430943
Ni 6.5614017456485225 5.851008302977444 1.0525502487450562 0.008112344694489255 0.20563965905312326 -0.1388753090433802
Ni 2.189168591114463 2.025150761575743 3.491042317418043 0.35705012444903667 -0.8727555687818582 0.6843757252504471
Ni 2.464352303077821 0.14647805483624718 7.5066225305948455 -0.19782247700154962 0.6963863765580781 1.7552155093356738
Ni 2.946635625414088 5.95270177657072 11.477070158510708 -0.17566213885442652 -0.6503399758219768 -1.0122415148260437
Ni 7.094452712959163 3.5873166054480716 0.24265929366361047 1.0776820038180408 -0.8777903029922882 -0.33377238486801875
Ni 5.796407030853248 3.4766159690367626 10.799417938781588 0.12353533625220015 -0.06756370598258686 0.5939549121640287
Ni 4.441489676078095 5.803264757089706 5.286489956309338 -1.5559071918172172 -0.8508567118262379 0.4164786029189989
Ni 5.401524824580814 6.132202993433001 10.221018512059821 1.878684254015997 3.1854433219744944 2.08538320757157
P 2.885548823864097 6.832109790963663 6.822624355243928 -3.6703554350755434 -1.0803518373407202 -1.0022473797278093
P 0.9610493848117746 2.1013580585589007 1.6490468148932613 0.5356492344446001 0.2659453979217162 -1.1905737443134656
P 8.265960784360077 1.3023445552690678 4.759841704634121 0.0764844055109844 0.8012675880442007 -0.6178947108090778
P 6.438921080179744 5.166789601016209 6.043961643069097 0.042836635549552034 0.4976334173224591 -0.38749018610644875
P 0.38746339334390284 0.7647453429321316 7.613188990931721 -0.5925096950770699 -0.16505325299032866 0.1607299430246264
P 6.699021516391002 5.243490058773494 12.549909785897007 0.40991791898234564 -0.01908067078053488 -1.1521851172329383
P 6.98105364967055 2.7914109455272715 9.079894727297345 0.2060561777652516 -0.25477806845098705 0.06995380348131823
P 5.604092938783908 1.253726346876272 12.067604131752098 0.8801593174450971 0.5650168889734398 -0.5713454022946289
Ni 4.874838422732504 3.285837188811405 13.208346414783648 -0.49445399115321303 1.023816878368469 -1.1331214157332679
Ni 4.615919711395099 7.870529587791916 1.2357259786206043 0.026744615083695876 -0.70855900736487 -0.20144490424548533
Ni 3.9666875096361442 8.414513836415768 6.119204950312639 0.4284368037221396 1.1656540982536505 -1.1773773002278496
Ni 1.8998134855851287 0.38958956762481267 13.019523528798322 0.3563826660683668 -1.0665110748028857 1.9030693677285808
Ni 0.8340530415376319 7.805236962281438 7.139380589974239 -0.3813910151872464 -0.6061794792546786 -0.7718107162356643
Ni 6.53606444776267 4.910560011635842 8.268969995574285 0.7568926614732513 -0.9216384105254902 0.06822525082598573
Ni 1.6968452598105728 4.212700296563824 2.254942281002722 2.4376346250803826 0.13840916804023906 -0.5900630333087903
Ni 4.37978874979051 4.679016375722669 9.200720047450702 -2.0925583851637706 -2.376036135542295 -1.7784145731599568
Ni 0.47231961371483133 6.132054114708737 10.105109911775317 -0.7437612662976157 -1.4659736027798624 -0.0650936471755395
Ni 8.077229086593364 8.953315244451145 6.18148278165675 -0.5922173606476316 -0.24871952096173297 0.546046518518524
Ni 5.916775479421517 7.481676969852216 5.274886720736934 2.514721440062056 0.543876764560715 1.5880675785998457
Ni 7.760005744865672 2.054312381691154 11.563698966192417 -1.2404747429089669 -2.468481692368226 -0.4097937346996556
Ni 4.740949925016917 6.0749125993517685 12.906760922055943 1.213304353141762 -1.7627305867657965 1.3879709608521387
Ni 4.924098670623692 3.4927320909384503 6.255227996737376 1.209782970252065 -0.27643909836418845 0.4931306443560991
Ni 2.7280537434322385 8.612262001920783 3.8921811520777148 0.6835601713276873 0.9775244230598328 -0.367701947735928
Ni 7.912820450403449 6.502110793709979 7.010398576715213 0.20891447314965308 0.5907482323012729 0.8579025629294256
Ni 0.37210562244393924 2.9497713835439208 13.346467720728494 -1.1153034137152404 -1.0463721379611657 -0.409686776808146
Ni 1.494798221142407 7.670743644748525 11.661453667036856 -0.8194247185692016 1.2386595440770989 0.41884967425433667
Ni 0.34785327826116746 7.650347259524217 0.2642457781900118 0.19174361779732138 0.941344630705166 1.2606103373165773
Ni 8.389502210739245 4.055744901507426 11.345282711791311 -0.09067535229938578 2.8630650378760305 0.30052442144816627
Ni 8.993428755720302 5.007535890653969 0.9106557976321183 0.19363183595896974 0.8708388113751196 0.10465983950393587
Ni 4.286776766805938 0.88548971027917 0.07977573390538466 0.7802714454085078 -2.5788113285634293 -0.09934022706323536
Ni 1.0911228652180698 2.723410588219223 6.447388557622317 0.7866374968358517 -1.315504932471928 0.49155327256665016
Ni 1.5017396916612633 3.747370538953235 11.097190275184055 -1.4735192763376042 -0.3290428406028333 0.6542845622920216
P 6.157782219245785 0.3093783634509528 1.242569747476662 1.3662250845346149 -0.6369645829563353 0.05039079374772612
P 0.5098165814050301 1.1791660207802963 11.743343478826805 -0.6868663528827847 1.1388994558676258 -1.9000022987674825
P 5.2271040941840745 2.253781957445482 4.119721811292212 -0.14292531074303774 -0.8137135271170373 -0.9742550082799415
P 2.3708843790001874 8.379257493525758 1.185560361987479 0.08072055507951906 1.6504319997696804 0.7190205690178262
P 3.7876794535479896 5.0061308476937185 1.4752309043138496 0.733602323486743 -0.5373037393288875 -0.12301828740646555
P 3.434557729431894 2.699375979170689 8.073147018072422 -0.24053081450335345 -0.40976545256488145 -0.2626489865586315
P 9.263736689463979 4.858759520511882 8.3356602201088 -0.08604145307180021 0.758467719269855 -0.2749380883386297
P 1.6165344929898608 3.9656732733270883 4.602110279227492 0.11840907076922833 0.49301057383846714 0.6364889288714974
Ni 8.385761632792086 8.799290899278715 11.221924592341395 -0.1892787011965966 0.020941378138357482 0.809895696032844
Ni 6.351715367441508 8.209182160893505 13.00707633695774 0.5039732434975579 0.4744600645297894 0.659701876652851
Ni 0.6397411830870603 6.0552047782271865 2.900727009802916 -0.8409368816093646 0.28293087673611916 -0.22282954056884846
Ni 2.535460503754901 6.799551874950956 8.94274113306022 0.2934819127790881 -0.17610025483310962 0.33765552197250887
Ni 7.926089266703569 0.6658507893550383 8.96562007101165 -0.3633012475650711 -0.05500258148812463 -0.1077338504435693
Ni -0.07493438389069151 2.875881011707137 9.220507890889577 -0.46327036646155695 0.18722773220483885 -0.2695922506456841
Ni 4.369702216221555 0.5781937879838741 2.5986092756359627 -0.4025812761116163 -0.08622502983751601 1.1647719527590132
Ni 3.2610116615402127 2.4116492346880034 1.306495480199982 -1.733123305422325 0.6575982000462868 1.0746367892338138
Ni 1.856396727621342 1.4373775581774415 9.718679364581003 0.03843747804059186 -0.2883060250051035 0.3272502674787848
Ni 2.7566105437303228 4.479137383476612 6.854736565575867 0.5099870537918056 0.7946246288063863 -2.8562027635385583
Ni 5.818617875529535 1.1045126454816552 5.765431881777883 0.9153749461142817 -0.5751354654646804 0.357706527086113
Ni 5.981109698144539 8.873013782550698 10.63119986823454 0.7690750624720561 -0.5664212255201342 0.19556890508068256
Ni 8.515100024497324 0.7979760046801109 -0.14940538275210816 -0.46420213424720697 -0.9315299586075892 1.3663898922472533
Ni 2.4469241874185466 6.477955220697979 0.3980635585115723 1.3212027541876536 -1.141329148355041 0.6310101651451132
Ni 5.69154988436934 5.975973382157395 3.2671101062829186 0.9007248003012747 -0.9951863591159699 -0.4167956199387854
Ni 7.585873466997197 1.9769140549138764 2.082856155100865 1.3387075958406363 -0.6975212614934696 0.4063422858159454
Ni 7.973488530541444 6.574540293064912 4.55376377450648 0.8819824866967648 -0.29961862180444526 0.019267847090676495
Ni 3.78101713063713 3.7202466963762015 4.217422543599105 -1.2933852177547531 1.2743734525389407 -1.0354030405441714
Ni 1.3592813623801716 6.235450388710794 5.210715338118576 1.6270840690723591 -0.3682822457194303 0.5109525030288684
Ni 3.971553982935557 7.982504998279745 12.189273408173634 -0.655938810065993 2.3916098216108357 -0.7797469403636055
Ni 4.388321361674949 1.252954038494147 10.291250189247792 -0.7671940433992595 0.46648938761948694 -1.0037900416245809
Ni 8.492461153488772 6.575796457300898 12.276419569422165 -1.125343828670378 -0.6258561317479996 -0.7762324994524438
Ni 4.4042048605699735 8.541963329306892 8.939962683868625 1.9396127140702533 -0.20031387596483566 -1.6600700370800763
Ni 8.076177630603242 7.399765756745654 2.2495761334849953 -0.24029324457125067 0.45753603508094104 -0.22422539247511059
P 4.824042862997332 7.86986893845299 3.5658361970127093 -1.1405207935211326 0.7283449317425456 -0.4154990126145489
P 1.090629704443942 5.54906364032745 12.724038341797376 -1.9710436788860246 -0.6160890250589066 -1.4952744086265086
P 3.548468563335168 3.971507458334224 11.185412085215399 2.2139869594856125 -0.5992197601073939 -0.2208996705359873
P 7.2990772145411675 7.362294842832202 9.770389597978378 1.0351269040646496 -0.23908971118145275 0.17292854197334734
P 0.7653213174966319 7.833886811782188 4.013414958230774 -1.8668821191747464 1.42712706222631 -0.4034832191005954
P 2.8467286965119927 8.63961846750448 10.143419199004786 -2.1879745945822515 0.8679599471654278 1.9971583736952054
P 7.453027120351466 4.2268996048906 2.5619618471661014 -0.5620143547016901 0.7898012392758139 -1.4975860874788207
P 5.870362537131896 8.707497860849063 7.297603315170944 1.0019283058254937 0.11485220665590543 -0.5932625140826944
