# total energy = -381169.6123161015 ev
CRYSTAL
PRIMVEC
9.24577962127337 0.00000000000000 0.00000000000000
0.00000000000000 9.24577962127337 0.00000000000000
0.00000000000000 0.00000000000000 13.53213305345739
PRIMCOORD
 96 1
Ni 6.203548160822881 7.834383455688544 11.21336079641137 0.7210609964866227 0.2325845630730833 1.0932559469968977
Ni 7.486705166312749 6.322263968598256 1.9845279637553126 -0.6225962300498051 0.10236718681501725 1.24263626933666
Ni 7.978294012388211 4.682700657958453 8.956878401322404 0.9024818922016974 -0.5666649660998241 -1.5261235327968814
Ni 2.038842294968431 0.9145471960811544 6.834362727165004 0.5263202437341903 0.4279516365556049 -0.39886397516102917
Ni 6.0774079921718345 2.1055413477169944 8.879677067728666 -2.388206966576874 2.7602975302988013 -0.54828157849663
Ni 7.179911713539968 0.5683103237172112 9.71216057481818 2.167431223213261 -3.9214863936922466 1.0697074702529965
Ni 3.1079595068445967 2.6479727348327047 4.78638282839405 0.8181329963409716 0.5176132028784957 1.1809403349887597
Ni 3.6161167896438493 1.989479078635664 12.429101276669547 0.3365121523966849 -1.1924894732789397 1.0972226449541296
Ni 7.508358781718506 5.661042807471797 10.992002968385346 -0.6042154135497723 -0.2351880621342014 1.2731670909356652
Ni 3.8004961228725507 6.017587799313058 1.525517546050358 1.1679734904154464 -0.5077872179270094 0.19089541086441317
Ni 5.590395806910143 4.0650918383644274 7.234020788449924 0.32198953330047775 -0.20735458486170097 -0.17952007914793597
Ni 2.4218671990736076 7.601038474642211 0.6093014867835762 -1.394521874596779 -0.15968324692766692 -2.193398850921616
Ni 5.204005439095446 2.456520380346358 1.1346531455734723 -2.5806877196505362 0.9773806983931168 1.4240396815502376
Ni 5.329785022349044 0.791108644177145 10.943827834708275 -0.8167674834520128 -0.05998615074564507 0.4548073232958683
Ni 0.18441724092433123 6.4076394957787715 10.002181259141947 1.260853306565319 -0.035605665018751585 0.41199999832235495
Ni 3.250640374881169 5.555280336666304 12.777756844930222 0.43626658417920344 -0.261948103836865 2.074894392225104
Ni 1.7068540932713592 2.105763246423117 8.990776202416397 1.3680996758495083 -0.0285425875243831 -0.5139025867961279
Ni 1.1185913775619938 3.3357570202378755 3.284289464508716 1.0398250808712672 0.9989751367344408 -0.7006500369304385
Ni 3.0459018353657554 8.183263696389169 2.7007698336427124 0.42385046990303776 -1.1994754176784697 0.9394466423515047
Ni 5.667570327743559 8.24101283465747 2.5442572795911897 1.6464161937420678 -1.440054054700623 -1.6646332309707268
Ni 1.7731370859459439 4.414665512521683 9.436159265831622 -0.36744920829517363 0.35092961337359563 -0.22548908967888262
Ni 1.4700419449418665 5.207185987216531 1.4001290592662998 -0.9460656903299189 0.6462573211121708 0.5587495679074892
Ni 5.751263123069314 6.2867509298392825 13.063487487602295 -0.39292472685845875 0.4452695590087622 1.2107964991182438
Ni 2.2291666643653234 7.751578255187278 9.197357425770566 -1.8465927727980904 1.8845962486250576 0.23466047176550556
P 8.634060163655832 3.958321577601964 1.822642687281806 0.34864364555289634 1.770192185250164 0.18961551571072505
Ni 5.134449440505558 5.662272496134891 10.978605834003218 -0.46912476835980493 0.2766404157417171 0.16024888962314981
P 0.48995419227369486 9.541551905460244 9.014200384581422 0.10200877503433399 -1.017948335402834 -0.2355729562774459
Ni 7.455454431867207 3.0520132955635377 0.2547434129400506 -0.6538551880640868 -0.23451160489246708 -0.9785716333774244
P 6.112578937092202 4.236018562534471 9.802460404118722 -1.1902693256991694 -1.661480287164042 -0.2804230227126009
P 8.74569370439414 0.7531112644875454 4.273622996598646 0.1902428648820788 -0.0004203753668702438 -0.5760044983331951
P 3.811193489663525 0.45856384655888355 5.567335908454336 -1.8169880625577803 0.3731681130568218 -0.6002852252574307
Ni 6.75480926728637 1.2455821579198427 2.5068544035184095 -0.9852238485866196 0.7868035901000708 -1.3269514837459726
Ni 1.322895365444585 5.198596658133717 5.445302715022434 1.211533120173952 -0.4348805024649543 0.3794470040869981
Ni 7.985108151822047 5.547439915716654 13.52229449815997 -1.2896172660718888 -1.0766427639202492 -0.5593159819339206
Ni 8.495493667461943 7.669170623201148 11.695375637895602 -1.2399247839427678 -0.1547035343248884 0.9828833733789007
Ni 7.109338679213688 2.8600801605472594 11.116241280209339 -1.2101578370929804 -1.2604031064017776 0.7929079032255957
Ni 3.8812025314450787 0.8287953656781736 8.583134410600788 0.4275047788261734 0.5170015374364257 0.022239013903858473
Ni 8.782168304212977 1.8167401816989555 1.8038608109644463 1.5655542279886778 -0.6293029526460194 -0.05483854510643459
Ni 3.0740182505873226 3.548280506026409 7.270815292236753 -0.7218750077474858 -0.4666392829337899 -0.22645711001910673
Ni 1.0878953898817567 9.217367141595135 1.9180850190967316 -2.195819801658283 -1.4812860647672166 1.6087503037601776
Ni 2.741641726154537 3.4920384298038543 0.4940676395384351 1.6442556957556391 -0.3669830672920325 1.1102080014702043
Ni 0.5584080939565081 5.733178378520354 7.72847120325642 0.6048589606710423 0.49281825532200285 -0.3166658070947192
Ni 3.7606837966824602 5.590405052689564 5.968794122992671 -0.6113170575915602 -0.03437950592113434 0.44890458465818817
Ni 6.757555263774632 8.38572777416683 6.1327763422390325 -0.2051346943922467 1.4566356132083882 0.3004948537618115
Ni 2.936265382982547 6.213801730201611 10.729452419301564 -2.322904031604006 -0.3010512404859138 -1.0141047932870277
Ni 5.035038820162814 1.8083635055428426 6.556399463785151 -0.7988152698489662 0.768914882745108 1.3558396275352327
Ni 5.930150463321492 1.2867628594643536 13.159417071992747 0.9383698643475581 -1.5254553030852631 -2.2059090675734847
Ni 8.686391275182984 0.31559266104846784 6.574464792197323 0.5592478477001466 1.0199525103170561 -0.7700538814455578
Ni 9.198653684045498 7.606474992942205 0.7709657891289026 0.456118328797808 -1.7930559772222152 -0.6879439022176798
Ni 1.2494191563798724 8.42275712075097 11.890861001365721 2.9121044598021846 -0.8345543751217885 -0.589840632885339
Ni 0.6537394764183726 1.5030401316981215 11.042382295876564 -0.42941973646069914 -0.5920510102730966 0.836679134774275
Ni 4.1230074006623205 2.683938816783344 10.376398633769957 -0.29843025792329897 1.399802406269428 -1.5146415002992109
Ni 3.369199004406375 4.877111661859763 3.7860745561304925 -1.1411041768284282 0.5905535997919635 -0.7642437025216838
Ni 2.43118694473074 7.820847634615091 5.054224737040905 1.0759958743648694 0.10122047480508374 0.5543912909387936
Ni 6.987349865523011 8.357907223886759 0.24743369972920856 -0.17258221437752214 -0.2695678251656519 -0.11299124218776668
Ni 7.2978138927262295 2.0584433473425583 6.937072241605432 0.728123816870675 1.0789179331076708 -0.8792802572742535
P 4.912060708074009 6.35409718714737 3.315927597112031 0.6104932761386841 -0.7087322997179407 0.5991757942433358
Ni 5.881998444092974 1.1262653744820532 4.517716196222773 0.45744141848460573 0.15180795794464821 0.6566103822117207
P 3.4032697015755535 2.9169601955499163 2.539615898321467 -1.4297120493446667 -0.6669577868843158 -0.22201244398419187
Ni 2.917413238741582 0.4788574078117006 10.662440859208544 -0.2530788263716932 -0.33145504958875177 0.7130640943240752
P 6.344537051225271 3.3202980770446957 5.198693738817646 -0.1613315811643673 -0.2033125535818434 1.6723876781051652
P 8.131884900142458 6.658366542138011 6.173791544331895 1.1901795941988407 -0.6628000559622005 0.18070098682991462
P 0.5632491840617407 3.4912710301118484 7.580132842791674 0.817066245639354 -0.5472616218725479 0.3000413111641607
Ni 2.213421102010069 3.6987648118949457 11.738164180481558 -0.3204877519439706 0.2125834373608081 -1.2929319322674184
Ni 4.392318463659294 0.7549252864100943 2.65109410996549 -1.2237198920481311 2.583150836479048 0.5286977428274314
Ni 1.9217537443712853 1.0594183892627416 3.720375896715363 -0.44046056765589303 -1.14702208497476 0.45780522958192765
Ni 4.558511348765397 8.620968139994623 0.4323918187497126 -0.01686566540708708 0.06844482303595954 -0.3042656336581534
Ni 6.918736936434143 6.852000900567892 4.31837441815584 -0.7554037356325506 0.35924636076940714 -1.5833809717574536
Ni 9.430232721222273 7.8360939248815695 4.676407055906062 -1.1652074976345352 -0.12699706954855547 -0.5121835472224922
Ni 0.5447252649902482 3.3440689759380358 -0.09285906104448628 -0.5205943969940067 -0.4100490452435712 -0.19476954910783875
Ni 8.309838416673038 4.390376849980724 6.338180577872813 -1.5133999145826258 -0.2802888111275818 -0.4814146414707516
Ni 8.239773900214955 7.716148428443101 8.267104424185671 0.1437881729639653 -0.2452678149677066 0.42185837917367347
Ni 5.185966923443595 3.9009422705105323 12.51887409654305 0.21549726857349338 -0.7378305026354777 0.5818532438044882
Ni 1.002649303613146 8.05890796316652 7.055450578431913 1.234764837008383 -1.2069976941974438 0.08835184637253171
Ni 4.442578520595971 8.17306560168697 7.193898728649205 -1.0410496973069878 -0.7194216611109868 -0.5048276210780532
Ni 8.033306399947673 3.07731899384089 3.811663175258151 -0.9170037399669562 -0.1501557670532059 0.25177553417923737
Ni 4.464296856457681 7.767027952601036 9.811134794372217 0.016833526617571006 1.1075255695420345 -0.9055769861872532
Ni 8.56389394362411 2.227123347113115 9.155665432624033 0.4660106482108555 1.240089077434774 -1.4932308958339187
Ni 8.693482787999473 5.4054894642544005 4.203270011822603 0.36838200452208814 -0.14036294933250018 -1.7367930409644283
Ni 5.870496694492307 6.261260315973495 6.371956334678438 0.9393407129012596 -0.2940467841436226 0.17210296074825845
Ni 2.6183677491242348 0.9010520564371561 0.8906903114391918 2.0825763342503936 1.8814656734158761 -1.240453402752728
Ni 9.091458117429633 3.792202658731234 10.907589002264695 2.077711549958925 1.191658235626896 0.9991975371578921
Ni 0.2083573375810897 0.5088710569706121 13.328217266895788 -0.9942198814376427 1.3045507474532694 0.15144414684732627
Ni 4.861523277754679 8.155933172418452 4.648016965613612 -0.3083053509451658 -1.0953583380518814 0.6645190955358362
Ni 0.6567369581069066 5.878549768368658 12.709812385693546 2.4599607993814088 -0.027504890288488116 -1.8584417017168768
Ni 4.0731726495790435 4.91890258484611 8.999558768289125 -1.3084138299531016 -0.4368530528102928 -0.4629181253284608
Ni 0.4899828541899023 2.34662504613934 5.419497744656306 0.329918044118935 0.3914208886194227 1.031038850038205
Ni 5.929697420129825 6.113337091004786 8.714165596565945 1.5500952131211303 1.9632637778302897 -0.5290954924864824
P 2.754576571565577 6.528139738982546 7.63775254014807 -0.0014413604322168726 -0.9999621832380585 -1.1291506040109778
Ni 5.2902315779827624 3.5487705323357623 3.309499931258024 1.202337055496981 -0.4885024015554684 0.9788577971592757
P 6.2631741923138 8.430153744288377 8.272517828037111 -1.1147076891127705 0.08761471109619104 1.3170293395362542
Ni 8.006114562668282 8.68674261480101 2.416825475554923 1.0923388344992673 -0.387110691279843 1.678967902425844
P 3.739390766674151 7.67091807551186 12.148566762032502 0.17471108779506683 0.6499926197848871 -0.26567671764136186
P 7.561549750731881 0.4090305078847562 12.025613613548135 0.2639998441595711 0.2407359885356241 -0.3689139657661582
P 1.2071012239664851 6.874033592929941 2.8196363476226622 -0.2661372022175481 0.5722314044440081 0.21032523745425066
Ni 6.024124565364241 4.517228943647247 1.2936380210423732 -0.13109155133290326 1.9832073108317523 -0.12463962505997243
