# total energy = -381170.10589359736 ev
CRYSTAL
PRIMVEC
9.21907636126563 0.00000000000000 0.00000000000000

0.00000000000000 9.21907636126563 0.00000000000000

0.00000000000000 0.00000000000000 13.49305013322764

PRIMCOORD
 96 1
Ni 7.961944428848815 3.3906471156996223 8.483674070081813 0.03586611776898984 0.16132901006120604 0.2718771900251189
Ni 1.8206476781013177 2.4908284138437984 7.638253448552312 -0.5255154884447079 -0.004403528384334351 0.10991620280686876
Ni 3.1875416505487504 1.0326932454180544 5.831871368779462 0.677165323544937 1.010756445640085 0.3184162141269226
Ni 7.80916590002669 2.0644000496953914 1.5785787097997206 -0.7126856279387339 1.1205914015870573 -1.4933057149359121
Ni 2.187723630437219 5.765932849014353 9.851288974278818 0.009450861000254692 -0.7017964918300559 0.9388943693924605
Ni 2.3521366332741596 0.6551057025340606 2.896661362026201 1.6767043032026478 -0.156896171100833 2.0137180778260997
Ni 7.018436525442905 4.691311245577773 10.52112491657585 -0.8394001332498641 0.31268162563599056 0.49710377007123413
Ni 6.708297586986163 4.31331990716141 1.2319801692559809 -0.503643628072281 0.6599533305420247 0.8155930035279374
Ni 1.5257202151790026 2.628017485012158 1.6899239449888939 -0.04406613708127895 0.09302174104437527 -0.8782839547992551
Ni 0.24377173165384483 5.588308910152667 12.41254006649375 2.318323868432491 -1.0105931805893433 -0.7618883149156298
Ni 3.29726709407041 3.3091597022155064 9.682032268868673 0.1847281057114367 0.49662374511102214 -0.006699780617678785
Ni 0.8907093327797228 1.6861044817683408 5.323332381603832 0.547763758319947 0.5296547074240621 0.6553076042398971
Ni 3.147825870789777 8.38334839653282 -0.00830546564179656 1.7912896293504117 2.036692941454718 0.19707402887129932
Ni 0.2715082439525563 6.715608314318768 6.023392142926357 -0.3064366731675432 0.34645897919675167 2.249178676895397
Ni 3.977395212904797 3.10990781086669 6.822220475847716 -0.29820322951415745 0.1286646870589655 0.3999628646521628
Ni 5.623498123555638 0.0725937707883213 1.2304470369036322 0.026952874439760032 0.11848054743711207 -1.9934094481757347
Ni 4.21430703004642 3.1444240317157144 2.2122933901019457 -0.5825217306264227 1.1426424678498257 -0.575298473405106
Ni 3.8739203029663747 7.831872484415351 2.2341518194911116 -1.8822326334888873 -0.15249444248871158 -0.22212480119234
Ni 7.2667062443168975 1.3083067439496896 12.79775270720473 3.070540721696628 -2.0445633453417305 -0.8423371043910008
Ni 1.8276541759232352 7.043005363200022 1.0326287118854842 -1.8061115248545927 -1.7787321044003752 0.8797188874735689
Ni 4.371630563376709 6.8150729261617515 9.291192304117564 -0.29700175300688847 1.5584669821245933 1.217265394672039
Ni 6.073794675678972 9.184375479099609 5.11740126963399 0.27293854141009766 0.28732566336970516 1.7945063365154965
Ni 7.786127428899095 1.623119753979736 5.017188068813192 -0.9404051496100321 2.3072334149462845 -0.3041460773611536
Ni 8.513254397596818 2.631520733923116 10.875951482522302 0.09708819780426506 -0.45898253771948044 -0.7261011300136915
P 0.16117802903995276 1.9310922095573315 13.272950905731722 0.4999376399756035 -0.11731480926378506 0.04506732465228368
Ni 5.415340604712121 3.6039857553009256 8.647101553685644 1.4895621887330799 -1.2314486281509565 1.1857120453457903
P 4.139180779058519 5.18477151191455 10.764404349566945 0.08860638558549902 -0.683009955251172 -0.17566702395043296
Ni 4.421081687477717 8.081534283777646 7.061546769015075 0.02369605806535919 -0.40900209203629556 -0.6106717106980774
P 3.8226714590294817 1.3492394417514175 10.606656738736906 -0.8948043210517815 0.3321567036414666 0.28987516926443624
P 2.821166347995041 4.86240807857378 7.154946150704059 -0.7957955091860359 0.9096120754885754 0.09698098280243943
P 5.002436625175232 1.9317559830351974 5.054064373139073 0.7307260303802124 0.36645650536460117 0.2860012881313268
Ni 7.763660540488553 6.441930821764242 1.9351864012451123 -1.9351909308534734 -1.431829867018618 -0.8545552437237476
Ni 7.884384341775406 8.893485971500978 1.2591294264083026 1.594004770019887 -1.4072208102206862 -1.970001867885072
Ni 4.441631008063314 4.038904888520367 4.716724550703954 0.21151848643140345 0.16410297326191736 -0.9155742066092811
Ni 4.112454677498336 8.405077758856846 4.389666763822498 -0.3926380488559754 0.39246501361322084 1.2600626923432234
Ni 5.012918714679863 5.481699514346544 7.650910318104563 -1.5022300140087355 0.7595249568897758 -1.808655631432685
Ni 7.90592010350172 1.2547070356120213 7.210874597659905 0.411540285077117 -0.11179619343840101 1.5645173020837315
Ni 0.36626190791790764 5.4532310074069645 8.23036889185212 -0.5719364989114085 -0.4785280639515759 -0.6555145780443807
Ni 8.968722851401857 6.9814219349758 10.351314144693209 -0.9649399015266027 -1.6730859897237704 1.7902401050399748
Ni 6.414716109171742 3.2864162415225193 6.366964982700158 -0.5340620924631382 -0.7745196305263952 -0.009911602686757124
Ni 7.208552312394983 5.421987558566861 7.0585782265168415 1.1841678407871221 0.6232104665950364 1.1346478796801234
Ni 9.164711189817833 4.511133622641518 1.1607028825320935 -2.2791101743475073 0.0006492035482246884 1.4475120536405652
Ni 0.9978266996779339 0.3132310165744662 1.3107322828667243 -1.0541836635857844 -1.0828640622396124 -2.7539561614618053
Ni 7.5912914749933025 7.324012021239317 4.7422540161887605 -0.4439685808091515 -0.22779665476613672 -0.9349891208007833
Ni 3.5547374508737115 2.9609275413901304 12.51083662139721 -0.6378323302732694 -0.5213086494522119 0.880345208203658
Ni 3.709783872411878 6.279453824904411 5.312416073615762 -0.5606123321478409 -0.5121676063828922 0.7623547130290871
Ni 1.898871538652593 4.47171285331715 0.2847883230479142 2.446245506677845 0.20363059904289446 -0.317611201727124
Ni 5.275975831588536 0.6810970437305497 12.129873974759791 -1.257578749579105 -1.2996026594193748 0.27350366988494834
Ni 5.284429724355244 1.2209191217734328 7.453061570135346 0.41408593431710616 1.349158358860315 -1.5272458193267826
Ni 0.1543098173592574 7.531229194322524 2.65334044319274 2.621335317968569 1.9404794329459223 1.747779621882919
Ni 6.439017593722498 2.954889046556767 3.4491200276539553 -0.34465689299100644 0.359745926113645 -0.06425675309654096
Ni 2.088037760768281 0.9567741538871468 12.419246022435411 -0.5457338723741116 0.8779003462075913 -0.08776486352081014
Ni 2.0230709316221605 8.372193314474242 5.614187778620962 -0.6506299962585698 -0.9446664959895472 0.3370374287725357
Ni 5.596495449713013 6.703522105575961 11.663540839792738 0.28401228272575607 2.0373586000631754 -1.0614166909991138
Ni 5.659148290762683 2.4340389051819415 0.21272372722666927 -1.7886059118706614 1.0185234911800136 1.5515453153040957
Ni 7.104303000065718 8.623606738292018 10.746688051061183 -1.330908925731824 -0.4456243712450196 0.3731657990639767
P 8.592732052495172 3.5458871378355 3.382829339182535 -0.10181954184166335 0.4165757906184954 -0.12866005907327518
Ni 5.269494821103262 4.733258041748463 12.632678696612746 0.25374319942856943 -0.976227815735596 1.5975346375500166
P 5.657802305654789 8.902115026713235 8.699171817301396 0.7158653112182961 -2.4824211852674534 1.6050044635645004
Ni 9.109249228111707 8.815077729428072 12.199498281142269 0.2563803799411004 -0.2378728080552161 0.6913639836428221
P 3.7549573452110825 5.2361402038405025 1.3999849241342623 0.5279441524908586 0.4394215848684174 -0.2218846601570759
P 5.794917624214496 6.6865866628143005 5.814344061333371 -0.19918850411114083 0.4439379846815323 -0.01475916058704555
P 2.36988335473099 7.3118704980400215 3.7927076179494867 -1.351509118480679 -1.1013232973860645 -1.512124904524944
Ni 1.5416139023434574 4.957954583082136 5.258794239495499 3.887225415626848 -1.8884613880074186 1.9859627620897025
Ni 5.600422776123718 5.540895201865665 3.0373121962631524 -1.45420412094876 -0.9984022949501062 -1.0786515668201617
Ni 3.687307764925254 8.469777234796604 11.211226231915171 -0.5997476075864058 -0.8879746997244579 -1.0206222826905713
Ni -0.0009302047766203495 1.4644594546176326 3.140561238837578 2.164995102967942 -0.020875300787112437 1.2893010203830506
Ni 7.5925637074925465 3.5075818767169906 12.698470633068158 0.24631708216782744 1.7399822373256875 0.842195179496498
Ni 6.058850553350909 7.75085524381139 3.0267609636879094 -0.5812603474154958 -0.10957810274115967 0.5541976868707487
Ni 6.927140015008103 5.131531347544059 4.780183139003146 -0.06558987008566769 -1.7063720054704095 -0.3086110551110427
Ni 3.1909158323945688 0.35646940530416993 8.69810517019877 -0.20163465165878822 0.2336849952261137 -0.1811334463816429
Ni 9.239911193414384 7.983581600412026 8.383420305326256 -0.43479205651620606 0.9172389959062138 -2.650546906535519
Ni 5.464127955335261 2.924088113368575 11.252973896042501 0.10775467637917573 2.2539241620001826 0.6630628227052838
Ni 1.6461582251073301 8.108334137946482 9.955158460673525 1.3441297952974722 1.146439730108729 0.9504756464721568
Ni 7.497173927277572 5.895737440241454 12.868591165907137 -2.922701261481425 1.2477980160432574 1.402329800676972
Ni 8.780349469829174 8.932279843651804 5.589873387363691 1.202117740397323 0.2799517395031372 0.6443606183100903
Ni 7.373297201970857 0.23442174469201768 3.2453351165958795 -0.138747010995632 0.8034651099161518 1.0803145563448815
Ni 2.3524224246326852 2.936303389176523 3.8947959788452557 0.2568367507522286 -0.3023560753402663 0.9503864291924601
Ni 6.069812034811776 1.5190087277916922 9.885385727166133 1.4623714872509008 -2.168893923801716 -2.5418010698876676
Ni 1.5934712053017275 3.8098753814284008 11.488886365336892 -0.8029660587925461 -0.043240041635557794 -0.5105012744240627
Ni 7.057506969876175 7.910133221270952 7.251475408722701 0.0008096403854889282 0.9021946999785818 -1.069708755804577
Ni 8.910218594588846 0.5010687698268147 9.987987590599642 -0.11603645677199372 -0.11624034525268366 -1.0748296219709104
Ni 1.9728085288259845 4.9883222196945 2.780822749154919 0.3313480916972423 0.8904411589870794 -0.20191438768273612
Ni 6.888281609324706 6.7253160014325575 9.196350137021831 -0.4857042699850409 -0.0054252847806293665 0.30151738148905494
Ni 9.17247365187843 5.6234520281752305 4.15766779232469 -2.60443725666165 -0.6283339038645307 -3.6933169289677226
Ni 3.3461927308347725 6.144993600256167 12.779389229558047 0.17134242843315006 -0.3664300230020399 -0.7804200551712301
Ni 2.194831538096033 7.004414310722987 7.78231902856984 0.7580589138672106 -0.061990325659867444 -0.612052650206004
Ni 5.443255967086813 6.920944795881356 0.9567206832458742 0.8288971768360112 -1.8771230801764642 -2.3884584204660477
P 1.127548319220302 0.42759549918032114 7.1884353664776075 -0.47589808252789656 0.1279422070706442 0.7887946523881706
Ni 1.4655012102148388 1.8432897289574088 10.211054199282112 1.2126402371952019 -0.5760980864882659 -0.500676317913841
P 3.799033747956592 1.2586988955552978 0.9597454621082047 -1.0701720685942409 0.3930347700737618 -0.4582235480662689
Ni 4.793218912582345 0.9853164134353788 3.040699284815484 0.09165905636889377 0.43898064067625686 1.3800810165811006
P 6.762671697714674 8.303428225982556 12.982243013931896 -0.3447185994668773 -1.012608154136843 -0.7403818083024216
P 1.5085819527435493 7.230714971294838 12.172444902381196 0.5912539682930978 1.7846520694292363 -0.5327441449826632
P 9.086100128071136 4.644146452344971 10.167350247210294 1.12495250676923 0.02977388882832292 -0.07427402812322692
Ni 8.705601200960613 3.930350267661054 6.090128112772513 0.9298749395026694 -0.9064964126777291 -0.2640792912472549
