# total energy = -381169.31811900035 ev
CRYSTAL
PRIMVEC
9.25339429004707 0.00000000000000 0.00000000000000
0.00000000000000 9.25339429004707 0.00000000000000
0.00000000000000 0.00000000000000 13.54327789091290
PRIMCOORD
 96 1
Ni 5.9013522032092816 4.156263829001465 10.502757966851506 0.3556948959727229 -0.0009546506037854527 0.2099989644630835
Ni 7.535372085852815 5.886417224838478 5.608027932531505 1.2060438149246069 0.19710385366797023 0.18086759431476593
Ni 8.802624432743464 0.6317717932312543 1.199237122901234 1.9285947656931948 0.4429203420502953 -0.10578264025446941
Ni 4.565680258999104 0.6759937645039115 8.84227060054378 -0.48313162416185834 -0.42682626470191 -0.36198844229091853
Ni 7.6351051694219105 2.084512129858024 7.434636859683005 2.232852686041864 -0.9641639425925267 -1.5109226566867269
Ni 8.821843732666734 7.99365569105257 5.747889285742995 0.4714248772478913 -1.7586245350172227 -1.0539036704515206
Ni 8.517129458967508 4.373570540314937 10.84364190811938 -1.4205856615633663 -0.6224787306353344 -0.09849561967475295
Ni 4.074408303184782 7.797557759432952 10.997046529201691 -0.18989345196246007 0.9713378346331465 -1.1584827773161919
Ni 5.577205801518304 1.7094165392515304 6.456649319398712 1.4117780905740656 -2.7666345282604223 -1.2360251917780456
Ni 5.153687198635222 6.463162783633662 4.181731020743797 0.04958141047255332 0.8708799490257002 0.6819403763360772
Ni 5.8198945733467164 4.29091922259002 1.7850445307165705 0.022676615661909334 -0.4959845688651264 0.06623418853788593
Ni 2.033174298382673 4.441666268834603 6.113476088385525 -0.8959834289615471 0.054564465509441516 -1.9166455637511184
Ni 3.928898678103691 2.086279528165845 0.9894219595982962 -0.8533776784758788 -1.2593170724264504 1.6809972741510468
Ni 2.600777503627451 9.125188504012257 12.246305650911406 -0.38279689439583753 0.8712095644509769 1.228506000582865
Ni 3.7016538213315804 7.286178177844309 8.177404042663715 0.19690356473170606 1.4088112946362576 0.9626978995699614
Ni 2.1575769311070094 4.077619231000562 0.2190648562270114 1.8709210651308101 2.0292375136179377 2.0960818249359967
Ni 8.373674087416974 1.852298200356594 10.095281048295329 0.20948191561734888 -0.10177094799191505 -0.6193219301739077
Ni 0.8928442834792915 3.447074437851073 12.263289330776198 -1.659178892724375 -1.5768529408309488 -3.2343968690550624
Ni 0.510949298754541 1.6497136393454443 4.350209421111138 -0.26163211525834296 -1.575867179878912 2.384477838551745
Ni 9.348519175003172 5.584552996578042 13.052402139017236 -0.12468307670339816 0.4016333103760502 0.371962779894811
Ni 5.457466879511987 1.7650016787022211 10.789103327561959 0.5931969509520816 -0.6977449474685015 0.8647499248685623
Ni 1.6708946588564535 7.447316785867336 3.341898507765432 -0.18172582855000313 1.7349971254062702 0.9338326385988369
Ni 0.043747272146001596 0.13967350930756858 7.5249027955624035 -0.8228586839514151 2.356514777679916 -0.3422413415709783
Ni 3.77453355469493 2.8358229717791077 6.973609623078702 -0.4999594943524745 0.6863595884496954 0.3406521427069875
P 2.0876675373081133 1.657051581010901 5.882252272072247 0.3862892238198121 -0.920102690607254 0.5714420757734933
Ni 0.25817617783783803 7.75097617261844 11.918802117774996 1.3292518497443753 0.6739691852051425 0.48906161649304797
P 5.752483596003902 8.451976309829451 7.5173048335176285 -0.491486938105089 1.0590705593644405 0.9980662517669264
Ni 2.144066975455601 0.6923796750980988 2.927947914569717 -0.02330987837053405 -0.49636843456710644 -0.8818102227849587
P 4.536948469754157 4.385340857841369 4.826350226595884 -1.1798244762167616 -0.3413026318067928 -0.06599430461293795
P 8.01458686891797 2.345698436855727 12.092670620311479 -0.3599642127720381 2.590996814886028 1.3233701941526177
P 4.705656354299688 0.5063614658696313 12.845149240590924 -0.10163185131088949 1.006549349537273 -0.7670919706037563
Ni 6.520043398283803 6.588685077066094 0.9320934806649166 0.1157523498726716 -1.5383684116025054 0.47711087188907503
Ni 6.860457267122161 2.04932147140439 1.2847042485060975 -0.4001276723648012 -0.20107646516247304 0.875158521796396
Ni 3.8501800529485335 8.862706721815105 1.3607606721263847 -0.3003986945035794 -0.08405938964476492 -1.4550093904588748
Ni 7.210901815361976 0.5278478473919394 12.75546534321185 -0.9833849956056677 0.19756330980289202 1.3006840654090115
Ni 6.742263661960903 8.359775489205731 11.100666038369134 0.6803779169449637 0.7358168146395585 0.11803034727357092
Ni 7.444975677114045 6.884451318494833 3.2077122612669626 -0.5711034614871519 0.5521104653244169 1.1330671654565647
Ni 1.7612262938352523 1.7967408210887486 10.098070946671287 -1.0925134124039184 -0.15706689235074242 0.030828041124450138
Ni 8.195694301801094 5.259758857287339 1.8961130222808529 0.7473117026530355 -1.1718404295700204 0.011312596799341807
Ni 2.5358094223750287 6.88101830921629 12.913596598093296 -0.34109051579598676 -0.7149158028208332 1.2748154251723658
Ni 3.9705759659488566 8.519581608452182 3.5994510068286774 0.1638137241562727 -0.25713628427051843 -0.07742645770927956
Ni 6.485278395967131 4.625022276528201 4.022651292948466 1.476182167881748 -1.030551368878825 -0.6320738305229372
Ni 7.429790857097633 5.196114011417213 8.695543228775204 -0.2612986431783242 -0.780223880000024 -0.11975195795036796
Ni 0.28415600762338156 5.5320955043945945 7.349598166233387 -0.6432925820568921 -0.024915018074124832 -0.00750607856905804
Ni 3.5219343975907247 6.090991265620213 6.194099062083874 0.09428158159340536 0.1190374483818466 -0.7939204036505102
Ni 4.964723634006861 7.620725394708013 13.131033782266142 -0.015631021669037595 0.6489484947910888 0.163602379476415
Ni 2.3914287113963155 2.960466192754771 4.089433039480119 1.6121292475347397 1.6040678106828439 1.8545896749606383
Ni 7.785454319712376 7.456329591897797 7.752158756407651 0.0844208867492417 0.13812737513376214 1.0929708116563113
Ni 9.0542427300538 6.508347107911625 10.028593686385351 -2.4124604398076 -1.2758076138823062 -1.1843653015099087
Ni 6.46325531757648 8.88361939289194 4.310269920712092 -0.12643862594192418 0.5009689094535953 0.04277467196336504
Ni 1.6952310858175517 5.9558917091061305 10.837127518545001 1.5583047455151162 0.021460740976937235 1.4164299875237798
Ni 3.9958377323381336 1.4091809083846885 4.765527665981701 0.07933318781368918 -1.0159673004170633 -0.23696289464643708
Ni -0.09948786862062657 7.396386103740385 1.4600199819082513 -1.9693138406791115 -0.6632919079969544 -0.5257970242408687
Ni 8.725682459290411 3.4153075352816997 5.707055907456328 -0.3069979449876519 0.43497537617160575 -0.10789891526652384
Ni 2.746092807428625 5.435027398378655 3.9059493349454324 1.096997673427517 0.3250090368530919 1.1435919762472886
Ni 4.369517553619514 6.285423586269108 2.018544682023169 -0.9232669472678487 1.002514260235951 0.254678052538013
P 3.2214581784725564 4.539437632815958 11.934729060012808 -0.5133662546766836 -0.057585254613636304 -0.666032446856569
Ni 5.89751204458234 4.152710525597258 6.55846811803892 0.7914261764737466 -0.7346148239116573 -1.5342353632707384
P 4.712725947530972 4.4931058876470535 8.321599685756793 -0.5072359734092297 1.5106902289609467 0.965125020954215
Ni 8.899960887193576 8.911823738662827 3.455038834309406 -0.46102296518827696 -0.05864763443987964 -0.14185290361446537
P 5.394867667195702 0.8024488000799482 2.501904060387135 -0.0009412808673467659 0.2095557062780778 0.8294337660657715
P 7.905998287021206 0.594221519235765 5.815429810605754 -0.5382619894770987 1.7373918508906916 -1.4114569597892208
P 1.1244076993627117 6.408752825256757 5.346493697908808 0.3432211889857444 -0.34984537917048136 0.015686043276689113
Ni 8.863012083826403 3.422488169244366 0.7669675850458664 0.6818205629287613 -1.328363533602151 -0.11888241086122107
Ni 5.422424275366862 2.6761834136297287 13.156685116554684 1.4443449687664933 0.9842198328021371 -2.44580353404442
Ni 3.3886022393844644 3.9984286827370337 2.1953243024007008 0.40365162635765967 0.35207246872878717 -0.1313448049942899
Ni 6.366816442371701 6.145354957025708 11.793959948822275 -0.6879235905027056 -0.12511013693848774 -0.9047177235107515
Ni 8.36697462995696 2.630416125512013 3.0542530451583887 -1.0529400209866704 1.687673914840274 -0.9436390831662974
Ni 1.464220097572754 2.886198450249153 7.511020853460867 -1.6276296571631839 -1.3691219464664355 1.9471990110579434
Ni 2.6030445852264887 5.2304903711740485 8.306146517306209 0.19976443121926885 -0.23533152969060114 -0.22782390845964634
Ni 5.86285808299705 7.2448247587990044 9.477870522989408 -0.21527821058415184 -1.141027557954222 -1.5259448411271719
Ni 1.0241379189252742 7.6413512105621155 8.366996838103237 2.5814891325059093 -3.321763468696189 -1.3341590572380053
Ni 5.770120565504987 6.390967801447164 6.993965239819776 -0.5784372761444038 -0.11190957908781371 0.4417067813581683
Ni 7.020374427099994 4.5558994212432555 13.296329940339977 0.44538834397481364 -1.3660042267730603 -0.5603732195538413
Ni 3.989536170832237 5.654360603039839 10.28693179862312 0.9193275030041265 -0.4607535135769742 -0.7463724786682178
Ni 6.8652967923315344 8.729596645071606 1.4303869120602581 -0.8723817303822073 0.7331786056857631 0.8990157880299678
Ni 6.211331658254844 2.2621587932797595 4.058622012540055 -0.11522604505555638 -0.6189848585494631 -0.10485035824818716
Ni 2.354794523434723 0.2274086418508982 8.147094549693723 0.5445660773182557 1.3238653886214813 -2.014706152770982
Ni 1.5482964380170652 1.8956133389896364 0.457948632326753 0.22925061360384386 -1.7726933544054633 0.1849898440132556
Ni 3.643005808373618 3.1088998904289067 9.83321844485914 1.168544532427568 0.761302874725805 -1.124599751415502
Ni 1.9500325507608223 8.667163993852393 5.467163511379871 0.28742182262793725 0.4763665375238828 0.29903935226220757
Ni 6.8754755260415 0.48705796005839663 9.019024311417322 -0.03422369706956042 -1.426173697174105 -0.4926994703559514
Ni 4.501989146157568 5.223753900136908 -0.005490964166812055 0.3124895642298425 -0.7730381608848622 -0.8616396613743548
Ni 5.953781935209883 2.7937292811912617 8.476128594244342 -1.6379246113312889 -0.10269603090934572 2.7157002033044004
Ni 9.039196710951616 8.637654919487776 9.745350063438154 -1.4654853502895342 3.156869881212176 2.0277205627527786
Ni 4.454010296806506 8.153471063693303 5.764696225777004 0.5735496090347992 1.2924927878474708 1.322573409282935
Ni 0.34336014957767913 0.8781147304615438 12.038240304467154 0.40759929815149804 0.22362246878378905 -0.10425489075603336
Ni 1.3641261316266704 3.9807639530531036 9.79188445794183 -1.103117670282326 0.21510543245171343 -0.5755751241052603
P 1.2918293621030732 2.710513506415156 2.4430043551047085 -1.4253468303974357 0.36810612515288216 -2.1256788218668228
Ni 1.7093980324629667 5.793744481106388 1.924919764019482 -0.3265177601881345 -1.2400643948444257 -2.7280566679872242
P 1.620398886260745 8.42229142097348 1.2042478359048214 1.5975030129811325 1.1068102886425648 -0.4856929571311313
Ni 3.1511601421138247 2.3391470337042226 11.963237842455563 0.2955516508239232 -0.34602934785850087 1.2701434736179933
P 2.194340666588547 9.068650264950541 10.140596770772094 0.2282447980471488 -2.440065603119378 0.7970733474571949
P 8.803290677131754 3.3337851316591616 8.59723239190722 0.7472160576154357 2.4451396752081758 0.37604543460461687
P 7.737401443207059 7.368653681077871 12.892753327473573 -0.3680364482572113 0.1539491726573671 0.6668652271705097
Ni 0.3349071739012673 4.876409238981491 3.8483904464944367 -0.3653283052974289 -0.07512969125530287 0.4713073778334206
