# total energy = -340867.0830989256 ev
CRYSTAL
PRIMVEC
9.25508380644227 0.00000000000000 0.00000000000000
0.00000000000000 9.25508380644227 0.00000000000000
0.00000000000000 0.00000000000000 13.54575066893451
PRIMCOORD
 96 1
Ni 8.971026908184628 1.0953206746770214 4.8606627287368225 -0.766103638548558 2.053283755933864 3.886651802511564
Ni 5.8035114484767165 1.9155524892683202 1.3368709615642567 0.21722042191218716 0.5072943374509908 0.3993442572315574
Ni 1.7252124328634157 0.9308763431491435 12.805610872776048 -0.09622867801744717 0.8653831875771871 -1.7435373016667974
Ni 2.425600165455925 6.8366472141298855 8.349072309989133 1.5857021636914626 0.8529950983254794 -1.4347647812772257
Ni 3.6794881933559953 4.436082050744138 9.746763981203808 0.03359866189105182 -0.9606906393319457 -1.243552610503342
Ni 7.396931485968848 4.391213403780656 7.286720095339612 3.031182788724296 0.7195034221915156 2.424693234428366
Ni 4.929850034273169 4.882871228170314 1.9807813954015558 -0.2729336563140912 -0.8332325709865714 0.3780097574198393
Ni 8.434842874937438 2.6529605576392803 10.537564628851237 -1.2657492012050393 -1.8247738771507864 1.436546555767997
Ni 7.99654060948847 5.968807247727499 3.012737137851787 0.38765216560560983 0.40628752131861 0.06804373094279895
Ni 7.515285499452554 8.969657155760826 8.81871691721653 0.2099143751690772 0.046775565592642024 -0.32433232250104144
Ni 5.005325243841486 2.206078829373657 10.164040546947403 0.2296355077470884 0.08206138537812964 1.0357200575639582
Ni 3.075723537145243 6.576690416293604 1.1924000266972472 1.3071886992967487 2.1718463215618207 1.4466111390928504
Ni 5.360109631774268 7.12889499984892 8.43678088951544 0.7614872228224692 0.1878723077673732 0.160045258252776
Ni 0.9675172204858651 2.4741060604096403 0.6097184517123222 2.2278148665076407 0.9476723726954065 2.6892553788493103
Ni 3.00936458526237 1.617085287138506 3.16604852890269 0.9470270258019239 -1.8003620239653253 -0.9301672739321077
Ni 5.981967977096739 4.696927336639101 4.339706085103702 1.5199320592741887 -1.4106282932403382 -2.019594076990902
Ni 3.4598002657627247 4.583922761675381 7.290051925559672 -0.36094663128996546 0.318089169804807 -0.2781447682013855
Ni 1.2763593717175903 3.448823736204414 10.443272908115128 0.5874754750872722 -0.3042298953242115 0.08258229087860616
Ni 4.295182652771354 8.74205613139491 5.080564448769214 -1.299151173704253 0.98644846502234 -0.4672069825118018
Ni 8.416888012084888 1.4297346228477115 1.4338855279968703 -1.467894473951659 0.09749597476564499 0.8505875173252513
Ni 5.677901449180433 3.897769348189686 6.3558965061689525 -3.4071024963843257 -2.2020539554934526 -0.9791948687837201
Ni 3.9373533422207943 3.2129671769599044 0.42282221204320813 -1.321383502739892 0.624875255891969 0.5784940975242682
Ni 5.808907162416426 8.670421781663608 0.5007555719072136 0.8342972648056599 1.7260946807103175 -1.8486730523658872
Ni 9.36383118096188 8.92749099330917 0.12329530280173566 -2.004445394274922 -0.49364666476056923 -0.5688789430320074
P 7.546151204407838 2.9549632018359366 5.039317316153259 -0.061430853611971634 1.1494342939606788 -0.20463384349642824
P 3.7777401645120037 8.105056468739054 7.196031378783141 -0.6989106856418286 -1.5421597603241377 -0.1422848489455614
P 7.930968339740889 7.3610032500958615 7.018988101481462 0.5544547971868774 0.03482867764341099 0.13248740323916539
P 0.36638933769093235 0.9134915934675829 7.29003896844215 -1.5386067528655565 1.9524695154282634 0.24158188147568715
P 2.835674424873824 2.18700410136381 9.627114255967856 0.07906759285712835 0.9631216173709414 -0.3777796436869042
P 7.76557998965066 8.595039122934738 1.6909704732851378 0.7243041860142687 -1.2464098774464794 -1.3962645683194985
P 2.284284288705634 4.884925856806019 0.5747425639772364 -0.6975595709305729 -2.803065517393947 -2.0212028162389193
P 8.783620713390166 4.873754970484872 10.133670914491551 0.5939181453888223 -1.5545167392275938 0.6626977260563812
Ni 9.13381457968642 4.097290447867646 3.8802078264047832 0.37517974417021194 -1.0253837086349566 0.46775077083041383
Ni 1.8641497530399413 2.718125603693298 4.74098616375743 0.5431738249564193 -0.18069455907201137 0.3446237257602259
Ni 8.889202711030308 8.412380786203862 11.205763179484384 -0.19361538089873753 -0.21999284245100179 -0.09598982253376372
Ni 1.7466564623630836 5.595864385095386 9.967559742345248 -2.4729189022039737 1.5163548834458915 1.0367500414903694
Ni 5.984244727747113 9.120570554561679 2.74989553034997 0.20339225777984324 -0.14765511211853924 1.4321669386430624
Ni 0.3012946302748935 7.6714835511857835 5.297580433627676 -1.1159937549140457 -0.7537854833028373 1.3139622705751564
Ni 7.606679453405604 7.274412684710065 13.146801393410984 0.24915378028567411 1.103985674709576 0.05601019681703258
Ni 6.898239797781282 0.8003889146140493 11.679227359855725 0.3170195908897121 0.3678263891289343 0.090351907521696
Ni 0.6783597072959365 8.291583430558777 8.120379185717754 -1.678014280263323 -0.8798816383036783 0.8666437994571655
Ni 3.8518271114886287 0.6947819282472574 0.38861634729231415 -0.5022248933478833 0.7443353936335311 0.26567260387630376
Ni 0.601598041059319 7.042739423408521 1.5777002774122066 -0.545332523170635 1.7132363366904106 -0.9013745180701316
Ni 0.19810044429246212 3.037120582012263 6.286067823315244 -2.2516201964573543 0.9897394770687857 -2.278612151665166
Ni 6.5484439000946475 8.658399427619557 5.307835066638306 2.3319915957275708 -2.0508113831339716 0.36176141388177696
Ni 2.6991434265228973 6.629425884610007 5.3948661740198665 -1.3724692656721138 -0.4320517747669075 0.36580781603700874
Ni 3.986035083769457 7.086654796725709 10.375408154074469 -0.2564294880114809 0.25751937864155006 0.5195096485702602
Ni 2.9399422005938303 5.703954510484518 11.990535990958687 1.0552272743589504 -1.5820313997080948 1.346381053225494
Ni 7.123776938427549 1.7350876074323176 6.820610930179055 0.8866588091265117 -0.22558242072363732 -0.661137580658113
Ni 1.8741174784482895 8.69979741810381 4.123435134502782 3.0173592525776423 0.2229516679690096 -0.8356584068192446
Ni 0.7524114849535716 0.9386413585786734 9.866562713291268 0.2306652345631834 0.19276306020077125 -0.10327401490000278
Ni 3.360669061631978 0.2281581804193807 11.318111568996432 0.38923185138790384 -0.06994891838531178 -0.23073799678264775
Ni 9.124420669482639 9.02293867402996 3.3257524064341375 -2.189640669430765 -3.4220709447687 -3.6617057298203455
Ni 4.989499050296197 6.4163275767853 6.169005819550205 0.725776399684421 -0.156088330487557 -0.6466180468856992
Ni 6.022283122759471 3.9888208640367853 13.180896197154544 1.089133183077776 -0.7959520893685582 -0.3590604700108461
Ni 0.34408921292638806 4.778205483840691 1.6159811556239136 1.1076153010423633 -0.07284732297902938 -1.0397942276333318
P 5.211833931897628 1.990037404854563 12.52877650385837 -0.644933974315057 -0.36814469170030145 0.4949108761849734
P 3.8056257324371217 1.6239525594254087 5.76226801789434 -0.4127137365599279 0.04414918371338848 -0.12169339794745493
P 4.157004249478287 8.098587165061769 12.924813577457476 -0.20402680604004864 -1.6567029203800565 -1.1113567703626666
P 5.102670216770921 4.864203723854031 11.124285122469592 0.01742925122004095 0.6337234503112182 2.7355894860291596
P 7.727486064134635 5.297350907545849 0.22037465482196147 0.25910034997542475 -0.6192815638542754 0.5001587548474741
P 1.7641763362702354 8.130683796181685 10.532349389048447 -0.3737928911250143 -0.6185899371038894 -0.4420235412676387
P 0.7749429868167311 1.6723844137075667 3.0517223279516785 0.7424952551009987 1.1776158986012168 -1.2534043064864415
P 4.610623678855588 2.9542227951203675 3.2453044402623807 1.4632909137413765 1.473504621049585 -1.387266478585946
Ni 4.452472804410047 2.285811377556495 7.745080904221738 0.44225159811804476 0.33649132646107854 0.6398940978983044
Ni 6.207838300765011 6.902710003326531 1.725443809962031 0.4748310747159629 -1.3571809720544756 1.4016708269367344
Ni 0.7581366798817089 6.330977192648083 12.378595182197536 -3.3134611194780805 -2.12482495850696 -0.5730122484740906
Ni 0.2886086867120129 5.580871149105114 7.510428431398422 1.445668829784239 -0.6101024684581687 -1.4893235903597124
Ni 1.8352646360488054 0.11188193328123931 1.6594763481300154 0.48144909425311283 -0.3675209420733735 0.22567009534143717
Ni 2.11890519369935 2.2440616938823474 7.23691201007489 0.9766643890523824 0.5881293066211871 0.9652394350448924
Ni 3.7949268553971494 4.381958319836043 4.755534230209967 -1.4293433531513384 -0.19976263144705597 0.4265490997811235
Ni -0.08366873538448201 3.112262608558574 8.368226631720903 -0.4110517754764727 -0.21169460699795156 2.511488277836739
Ni 2.046308315237808 7.846275066563738 12.956199418130447 1.720611288998243 1.8494610954848214 0.20382651710378444
Ni 8.42246882770349 6.623678477480403 9.142813297805766 -1.3749143847784966 1.7784585390240144 0.823526142332085
Ni 2.455299729834187 3.9839434347979745 2.599836375797204 0.2579045298951107 0.15463462876016595 0.013166362178628937
Ni 8.075745617886465 5.76340916974471 5.4630280162551506 -0.6897670714693476 0.16990209644219773 -0.04735483513487973
Ni 2.0298897963200653 9.212334711872515 6.440936844994026 1.1243693805722506 -0.47721962955279745 -1.6451455545597602
Ni 5.14654856975233 6.052861920112472 13.347170258778272 -0.516132504567911 1.2566636939640035 -1.0965904106867694
Ni 6.951493550798584 5.941162311984941 11.300922101586103 0.7620042716682038 0.18288025386942053 -0.1604016131509302
Ni 5.372085710398597 0.13818395634343408 7.230884173901763 0.8518221610633007 0.5794886002270535 0.2632210570120177
Ni 6.06842897130731 1.4282352992486844 4.365321380937207 -0.6059012858926275 2.478626237001396 0.7165805921177659
Ni 2.815331750363565 0.28830326894184066 8.819787730428923 0.6910209984811068 -1.6132458776376861 -0.6640064175654758
Ni 5.121180384660146 9.20323696435496 9.648692484184718 0.48232841153427247 -0.05523758031706615 -0.11491905533809886
Ni 4.286464363695529 6.844467760063083 3.561394247731132 -0.7281582696530363 -1.1129107451133478 -0.6333526972353608
Ni 6.666011231443061 3.9270709439583293 9.953593820672827 -0.33507464861921005 0.7876371417449596 -1.3209656984761833
Ni 3.122035977204085 2.8337216021615106 11.681070047069095 0.5983820946974469 -0.17275756361312183 1.1470866196641083
Ni 9.219424106174088 3.8228586987419906 12.740469889940286 -0.74248188536456 2.2441742817022705 -1.4265565344348206
Ni 7.660979030908648 3.7291602288867316 1.7805208145164213 -1.8363137594695857 -0.30832823376330126 0.1901600753602854
P 6.27057851482554 6.69052794881234 4.133390828302002 1.5368100659764503 2.0675153261522135 0.307405979059348
P 6.509239364505268 8.0844453967944 10.807355878887064 1.1986752903746776 -0.9555157799992252 -0.1029639398587517
P 1.7207237171502787 4.5372216080908645 5.9319146321074845 0.07135634025579969 0.9758012697211389 0.43328847538748605
P 6.848577017334491 1.8460097885085005 8.885173047480823 -0.4480514926292735 0.10890061705816084 1.641642169392192
P 8.76288007027029 1.7418993492155526 12.683888934244898 -0.2706119501594501 -1.3439426189873307 -0.505744990686
P 1.4125849522983442 6.472681782924047 3.3752763606217604 0.140750414578906 -0.14002639192868788 1.6099600077975629
P 5.457343543696369 4.9975324631601215 8.258749169248475 -0.1702869905854422 -0.18414472240414093 -0.3877069301029452
P 3.893030745210044 8.76246359149278 2.738435885409751 -1.7489443316149815 0.7973813656159171 -0.9138150578263294
