# total energy = -381171.4830139788 ev
CRYSTAL
PRIMVEC
9.23882282883550 0.00000000000000 0.00000000000000
0.00000000000000 9.23882282883550 0.00000000000000
0.00000000000000 0.00000000000000 13.52195108452367
PRIMCOORD
 96 1
Ni 0.7130837601918328 8.188026862756685 10.099680666103273 1.9396571941549434 0.42102714152162973 0.8918043578831932
Ni 7.221470454157046 2.8603487957145144 0.7608724953080401 0.4303767010573297 0.39789132683511474 0.28091024676166465
Ni 3.7792883113031075 2.623844169368036 11.085850171748538 0.11664889354501201 -1.5511329103570255 -1.3369019100904653
Ni 8.162767921062429 8.489083144413247 11.564324188162104 -0.8028429029511205 0.6031039256531484 -0.6294405066651483
Ni 6.36498538108973 3.6635166220672897 3.3149469222156944 0.37450534381100664 -0.8360494716100764 1.2923259232523034
Ni 0.6929616040067229 6.5338803017600675 5.045350727083706 0.3731277467371897 -0.10655268565127457 0.4937685350504141
Ni 6.074101043400022 5.982553547698345 8.628086777608237 0.14700385168778554 -0.32823088622449925 1.0580122933032552
Ni 8.646217043585125 8.87265135301619 4.647521471516882 -0.005492390573138928 -0.4129826739505984 0.12482191627410762
Ni 5.04526572991341 4.574677048809297 10.970696559761931 0.7851732535854994 -0.5977578308498865 -0.21565102054253826
Ni 4.138586132257618 3.469880133782754 4.861343863864248 2.00170202720183 -0.7032381093725889 0.9871927993875322
Ni 7.632810564271669 9.019557875284065 2.4631043576346126 -2.6822936028194966 0.6128607479295961 -1.260121570605617
Ni 4.414466621625647 6.715238394466086 10.533816647738163 -0.3322220096617633 0.41433430288248646 -0.29554882261044585
Ni 0.3484994847978732 8.254648014387001 7.001991130573617 0.12437660120657289 1.3764323640849196 -0.4142522846916414
Ni 5.141866861718511 5.600703760147024 3.994979717514684 0.29844748431447954 0.2767234623738266 -0.020736461216402997
Ni 2.0375022766738216 1.1970096059740105 6.2212875020005 1.050071955410256 -1.334978210705191 0.15586464451252513
Ni 3.3961358497287835 8.000081489352787 -0.029763791719903614 1.433145757616564 -2.240529228750516 0.047663881734866305
Ni 3.6303677256521496 1.551078253190793 3.4761422079160265 -2.8407614892828232 1.944462843073703 0.2668355138361534
Ni 0.4190462122606283 2.785431181157555 6.821823922134018 0.83289395670023 3.0976545471942845 0.1865376481163497
Ni 0.2104271249469868 1.5470686040703439 0.832251640710317 -1.0939452597544386 -1.3687298532343395 -0.16930560050877938
Ni 8.223503942532085 1.4723172883248323 10.272152858984297 -0.22497769726010286 0.42263973742438826 0.8692035897645417
Ni 6.722657169221202 6.051798525020382 11.79008683517138 1.5408934920172042 0.25089030336080664 -2.6841630519280675
Ni 3.341423540762658 6.065823058119095 8.360338300119976 0.5586883756522507 0.8741478211436944 -1.1308660440401879
Ni 7.574855428482324 6.098140460476999 4.812962920202832 -0.7982241732321865 0.32121048904260807 -1.184361444855167
Ni 3.011181817697115 5.290057580363674 5.974255237007129 -0.7159136479577284 -0.7048877291608698 0.0682339925767341
P 5.505192809439187 8.419755017685485 1.1894744220508813 0.8237973937156006 0.039489316343873926 -1.2124463760168411
Ni 6.87679768978703 1.1891473677217015 7.929028474397403 1.5922309659489158 0.4504259063987211 -0.18350014684160657
P 6.123639611565568 4.338837617708609 5.461043246646817 0.22903129850418621 0.5744111857041462 1.2060551277785165
Ni 5.417932127543704 6.279692568463038 6.464236207290557 -1.4010517052954967 -0.7890227092385766 -1.2500148211889184
P 6.500435763013466 7.613251976280908 10.010692324333313 -0.0657698473069577 0.1940892352113625 0.6518664397688322
P 6.014732367713376 2.72154472109326 10.246433823911703 -0.16600378982905603 -0.35455846837543453 -1.4673617413766404
P 2.0305177265930396 3.36341193916512 5.0658904780620055 -1.1577487273636449 -0.24372026797492866 0.10744922932361495
Ni 3.2203580060291044 3.1695721967777044 7.080904536016738 -0.9324401291266844 -0.48212478016389876 0.3863833261955152
Ni 4.854382410840612 8.544349782750862 7.669637436066649 1.1614768269475095 -0.7860160612017688 -1.040616723534627
Ni 3.3626635945136076 4.19068385435488 2.947772080892302 0.3671388761436064 0.28243156850219747 -0.01056826243414954
Ni 3.67481570242284 6.3008679504539815 1.8537513288475354 1.6361667480999176 0.8515565661067399 -2.338282056721973
Ni 1.6692612751925955 6.034152373361263 10.159353299061955 0.0633308988481619 -1.1486758185280992 0.8249425630636373
Ni 1.7096903640199788 9.343221556474587 12.73971956805941 -1.39372020463109 -0.6568839475880816 -0.7960803874163064
Ni 8.504659799752133 4.465880670831403 2.6827148725026273 -2.136235771447063 -0.9450084527099983 -0.48318638865919367
Ni 7.292812644267891 7.353982890411881 6.994580670759073 0.6710743801558507 1.1383878063385298 0.07517802799473505
Ni 7.304074769332009 2.5522063369257304 5.346917915644325 0.2088669077411693 -0.20085869272471216 0.1337935236450986
Ni 6.8632720531226585 0.5362314413937477 -0.21830876472729777 0.546350422912188 0.8803233538267871 0.9616123798152666
Ni 1.6797842944280592 8.660768189586754 4.382613008175224 1.2038064409536557 0.37822367320285827 -1.1241207548965542
Ni 1.7584159157740051 1.0982927837343872 10.572448785519633 0.862883561083785 -0.9227578688419141 1.4609836057644385
Ni 0.5823368629851952 1.298969255036854 8.655279404926711 -0.20229773916408383 -1.4078836406156656 -2.5972322542727784
Ni 9.060153262922896 4.156758896819653 4.963326609984237 1.4952486975948958 0.547957876608624 -0.7839900319106756
Ni 5.014093941589921 3.204236260141585 12.945739774503046 -0.07195103641700511 -0.04320610307382882 1.2639496861024555
Ni 4.826712136380371 1.2573021639464745 8.877187615039553 -0.784084905617327 1.1084799630355038 1.429260820739861
Ni 4.23001352326214 8.852732450933958 2.79482521623975 0.06433928550801822 -2.808780565500853 0.5127080522673945
Ni 3.8969077651105613 9.029489609856606 10.594529572150675 -0.22269455765288096 0.4964851626506288 0.35911240629470415
Ni 0.07617317058338506 3.7786323548801772 13.399834385158455 0.4014620749055086 0.9403820096815806 -0.32010491468325514
Ni 1.3453204293163288 5.097686810810709 2.9149539343354847 0.182495359726176 2.1614744914091935 0.6154701605279852
Ni 8.152254140649823 8.75394171811147 8.977466722224495 -2.4595419666764355 1.386585907579154 -0.6989523375130414
Ni 8.686101041863875 6.691309843263407 8.904759034095212 0.09176807114293228 -2.9141626278827943 -0.592801772396192
Ni 6.027685197360539 7.868649995372357 4.140894914089877 -0.2046932359794539 0.09572268491530611 -0.11665454997196684
Ni 3.3142614015596172 4.058808896877259 9.335406436218854 -0.4983060179094515 -0.3723643862086039 0.16710036532734449
Ni 5.376902515230539 3.5493802044773686 7.820528662633257 1.2872752482022733 0.736419224110248 0.48207104410782786
P 3.553851794740726 2.8621965602861494 1.380104597377366 0.0741470156270594 -1.5793451111251833 -1.49862815559009
Ni 1.2942574553791835 7.5996524290336716 1.0210164977017357 0.14277721520094766 -0.20693009572977264 0.7063751123396739
P 8.647621344659568 1.1638607095588707 6.440558952069621 -1.0069825804199497 -3.7063663059525136 -0.1601329328705758
Ni 6.283434291720601 6.498551043150398 2.0702779246454908 0.34381639936758207 0.8494737154357822 -0.13059224309898154
P 2.717747564898549 1.8138026588087774 8.773677691501108 -0.03165387945985516 0.32826148235211855 -0.3639622781878377
P 9.151183384544515 1.2924466460989805 12.199991232213842 -0.3353829238882482 0.33968283681518274 -0.012882512389622973
P 2.475293136631406 7.6216223497904165 11.518403543027821 -0.23287664039220538 -0.32421945107226097 -0.5273754244715821
Ni 0.5991173369425024 4.629842060095474 8.165148765712981 1.08333508833876 1.2884224744328392 0.3485233179249481
Ni 5.6006206107412995 7.820885281195583 12.466670777897411 -0.23239301588756753 1.8497781125046076 0.5179345907736564
Ni 7.29332077952509 3.0808240644020546 11.899966003188252 0.4727775346210439 0.2814188109669669 0.4590758687642352
Ni 2.700646503788063 0.519580310956455 1.2414825275664179 -0.5491439264969252 1.979984175908764 1.3170391097282672
Ni 2.699630233273664 8.53641363391569 8.535041668721249 -0.9630910212433219 0.7269580786973481 0.3968564578126972
Ni 0.4863297874898753 1.8199464760094652 4.4539006892312045 0.551358931870373 0.04118727287158713 -0.5329647456339015
Ni 6.164133372152959 0.5092392965312973 11.108634032799088 -0.3445291091638905 0.6130183565533829 -1.938548534471797
Ni 2.976342216698929 7.517011158567277 6.34190310606086 0.39890511281160973 1.0929512712722855 -0.3372821977934901
Ni 8.536829380944306 4.905371474194892 10.669833369503104 0.7732379356004941 0.2839621462141109 0.3750964404277862
Ni 2.4269094213231313 5.175893446305178 0.263467206975782 -0.9235186582673385 -0.687310639509055 -0.41686555394477237
Ni 0.9565969575585237 3.1783952726072635 9.958660197878345 0.4220460697044473 1.4569505733456456 0.8112437254203062
Ni 5.216387206892569 1.6654825966436009 6.385052104337691 -2.1987547159168903 -0.4632785939916731 -0.8258303649852293
Ni 3.0610067893712642 6.454555768699758 3.8193155113361605 -1.7605343504454258 1.6592915070428391 3.0211966240458614
Ni 7.259266478469849 5.231049218768496 13.724104133128472 0.9012367069406866 -1.0378347899141158 1.3601433971169092
Ni 0.3316645017857027 6.938697802936817 12.466752079538564 1.700610420396284 -1.7859738735644533 -1.199608086601592
Ni 5.518570624937827 1.5723460234103168 1.6049747740985412 -1.1387215355288647 -0.3552583226559366 -0.7367665801473375
Ni 6.720421374089524 9.332227357273355 5.687576411482463 -0.20668609803976662 0.07177722984330218 1.6228039536397667
Ni 7.9557351396335365 1.9527915098871949 2.8635574388931593 0.5719835500992602 0.8648067462484268 0.03450034776971477
Ni 7.997919604803973 3.35945772298182 8.868115090992823 -1.231121840939157 -0.05100991538896376 -0.16358926685029246
Ni 4.41344111228839 0.8459426523038498 12.703927444424547 -0.5114682663230223 0.21480358494057847 0.8132661551669736
Ni 8.730752272737446 7.173289992951653 2.8404206548094257 0.8957939386585604 -1.9732388867651307 0.3947574091918234
Ni 7.896384941592606 5.021780642207925 6.817199891293501 -0.6955885632471311 -0.6230893676361398 1.2561134778874885
Ni 1.4056591814030839 2.9542244747764523 2.1038130038561027 0.5588207874650569 -0.3296668473400774 0.14417280999689364
Ni 5.320850576949978 4.310141833911111 1.5264115200417456 -0.6180147813267098 0.34158596737516655 -1.011590511505606
Ni 5.7794287883384605 1.3459856245621176 3.8693197161737585 1.2444846353993084 -0.6537166056036934 1.069462444121726
P 9.278087855324436 5.783253661001746 1.2365619305121527 0.08151913972141445 0.12063898854101159 -1.9623608064000462
Ni 4.8888709365701875 5.748848284677894 13.134412243265881 -1.278709103799817 -0.5532420078256989 0.6410924890817798
P 1.7550899395450614 4.307656590562261 11.795225468445096 -0.7340396681344777 1.100848157521859 -0.9831556532036811
Ni 7.863420821634629 7.678505782128213 0.1696774489664247 -0.8123788674660138 -0.7707948733766402 2.126488976472944
P 1.3660800642786528 6.474955089570614 7.342703211584333 0.03564757400028054 -1.1649809834460259 0.3598166314505803
P 0.5371340743869916 -0.07762458965440469 2.3665309422980862 0.9188554484637143 0.6460840287591001 0.8817459452059265
P 3.801794083785627 9.123208228929954 5.2336573384613585 0.9065275230259807 1.2635002572698626 -0.714965425111846
Ni 2.1548445657955297 2.4650195656131126 12.702480644764954 0.02546471993000776 -0.16425903922380744 1.8555463824469525
