# total energy = -340875.3219947906 ev
CRYSTAL
PRIMVEC
9.21487540842115 0.00000000000000 0.00000000000000
0.00000000000000 9.21487540842115 0.00000000000000
0.00000000000000 0.00000000000000 13.48690161410194
PRIMCOORD
 96 1
Ni 8.632624351166621 3.9070611260857455 13.0730157464786 0.4703337010662416 0.5642738401598282 0.0028688369073628013
Ni 1.7398882826439648 7.693407383477937 12.233819801634224 -0.4266791976010846 0.9970964316544891 -1.2966883139860572
Ni 2.756436485300305 0.31324494789675156 7.809428194605651 1.299232934784782 0.9910790218158158 0.04877742651401922
Ni 9.304720508650057 5.967599430556396 11.684147872244544 -0.9298566846702243 0.01629513761559774 -0.5302594308875964
Ni 6.066908143526658 8.199552848571892 0.10410413416630172 0.9339897330019914 -0.619502678726146 0.54073976159363
Ni 7.513321072113196 4.380162047734275 8.26388281573499 1.3262667989741224 -1.0370737433783752 0.5016844474633811
Ni 1.8081705098973413 1.6176068851200367 2.62418735697746 -0.542057451963789 0.5126640864033364 -0.17766502821706823
Ni 0.9396592817113777 0.8824791364276191 5.621435261520648 2.6042446810348703 -0.6015430089239316 0.25779860044486574
Ni 7.248494765900673 5.7062379175216424 1.776562565538123 -0.3982823916259463 0.009740367216215485 -0.4186265024999371
Ni 3.574339617389704 4.305263539891435 12.907153516893658 -0.16405309386058842 -0.6925600608334525 -0.8113018323517511
Ni 5.5902318501946855 5.4965349963873535 9.417350245603785 2.282925177218223 -0.18790033279183124 -0.19869176698038038
Ni 3.9042966634439082 8.982430238989215 1.3202354817127138 -1.0988455252695333 0.48323781072241934 0.6020680281894663
Ni 5.909462781198561 5.9675257115526135 4.317885154826516 -0.5531052251375184 -1.4644224562426587 -0.6185572840937412
Ni 7.415164218577033 0.9643367182275104 10.59532371530492 -1.2192274034944164 -1.1524697383528926 0.5581936954040192
Ni 7.227567783701966 7.873889934488009 3.4729041111603225 -0.3760865722551974 0.911499008098643 -0.7151829404392909
Ni 0.1865634473345662 6.503656381435029 8.102404102412454 1.2563752161893071 -0.7835321184376506 0.013539943467963778
Ni 2.108252929668759 2.6611638877871258 6.920277488335732 2.501140358943512 0.396064300928705 0.033349521994723214
Ni 6.872555491237245 5.781265433621103 12.179252073547001 -0.0516586047165562 1.3085878936371205 0.896156978424934
Ni 1.5019417681855722 8.558545967240859 1.2868582812627198 0.553981971315517 0.9718471701693973 -0.7161399050359214
Ni 9.111337131978079 7.202890347185834 2.18092604508492 -0.3104285679357557 -1.1796144170884846 -0.01385644626711807
Ni 6.167092269666834 2.57917914070571 2.6399125419717766 0.6296909321130574 -0.4572210749436836 -0.23942498303368442
Ni 5.868336791963498 7.820609524504334 5.7695616202831115 -0.11521678908417576 0.8828764592659442 -0.4015872876294632
Ni 1.8332534009342767 6.1056659097652135 10.073245730518508 0.8083082969410659 0.7019242756571717 -0.11232918312373558
Ni 3.176588732482181 5.363942153209372 1.5596923142610966 0.13024848660631763 1.0180457802126466 0.18635818511569194
P 5.992286081948001 0.36039377974083064 7.1132213154476585 -1.0726141023768303 -0.4054066613755534 0.3467083762033964
P 2.8677982553889767 2.297342174370417 4.791748146676644 0.035262679857036044 -0.21621717745865343 0.23178006489391695
P 0.9894564687663369 4.633230172843516 7.016695494870179 0.3750866702357734 0.10751864910896967 0.03522077087550708
P 8.293083834620715 6.796670991718817 0.017770887349276194 -0.054002679468700535 0.5401296388134569 0.9070240030464252
P 5.772105847401148 0.3644980852764115 11.985890812576159 1.22043453642864 1.1683668691991234 -1.3802404249771003
P 3.7494038216217755 7.301664597378673 5.241495809414483 -0.28314093586439626 -0.8967269919957911 -0.4783971948006664
P 3.4983076798637107 2.144301522518315 9.297937438814538 -0.2642093890672159 -0.7258198513278468 -1.9693935448771112
P 7.827870846376894 7.053369777764337 5.32715084139671 -0.579785305531866 -1.3804990779551256 0.7966951381821699
Ni 6.824177395005096 2.279308663070166 6.710340509364433 0.3211901773276339 0.9378373888828558 0.0303888967045025
Ni 0.8670340836476752 4.024900953631788 9.310278000047697 -0.31685504028738976 -0.41995910526843155 -0.43400684161074937
Ni 6.495694729026538 7.906289436650339 10.6896646889078 -1.0385798956102565 -0.4108620280631698 0.47365119547524875
Ni 4.381535064179721 2.2183338320667128 11.294633243034601 0.5141679246423725 -0.5846812001715866 2.2872734268845902
Ni 4.0903726438659636 2.933094862989169 1.6296765290142976 -2.396793936914937 0.6041295387041854 -0.545136605109745
Ni 8.521022994315658 1.3942843780369625 4.183043882033174 -0.6188838141952244 0.20601504011467098 -0.8771783804399022
Ni 2.0663344611430357 2.18222994996432 10.902244494164695 0.2811082217050836 0.1662228478183976 1.9091420562852217
Ni 7.331695876544497 4.914053502876802 5.976356326718188 0.3294238780913359 -0.8496817176815302 -0.6583013967608985
Ni 2.3018482484766114 7.285022532274815 7.027916448733396 2.548465626392037 -1.2901687676999847 0.30073010970106917
Ni 5.287836496679597 3.399846735436946 4.955842963145906 0.43220346985342334 -0.6507518665484148 -0.47111865886138216
Ni 5.875496750205857 3.7506662595615476 0.45714352179229845 0.01632881906701059 1.663084655536684 -0.5639447389551836
Ni 4.817675120306888 7.272416582628037 2.7317452264709634 -0.2756060609399318 -0.15601453982682809 -0.2312164790809631
Ni 3.2698985615196565 4.2292776767428055 3.6905557838774414 0.09901601095459721 -1.2933073133289663 -2.1268170492363248
Ni 0.7503396651229 3.245202695252578 4.679091686584046 0.5307273716629505 0.6709877339793153 -0.1356485745759664
Ni 9.176007128046122 2.550281291223039 6.945228606653407 -2.2459992507261513 0.7092611756382171 0.8935665919899385
Ni 0.5528648837410027 1.4889672235198834 0.19905881847566992 0.6928354259820262 0.4895208155176537 -0.19856629714610963
Ni 1.2612676505872338 6.16083536922081 0.42279046602973597 -0.6200896615778676 -1.2253438008047994 0.541225700091113
Ni 6.663092156865247 2.630284840077805 12.03358055761049 0.28820549487149716 -0.5804334806388263 0.5800041064108914
Ni 8.03587823042419 8.935701605466695 8.877523489169233 -1.1831080320640397 -0.6435908300236013 -2.560001394945778
Ni 8.513955184828026 5.394913349673421 3.971609485797547 0.5054264310043166 -0.354833319303376 -1.049578303603289
Ni 1.707783656496763 3.5757218487106224 0.8185979337000472 -0.40593990817120407 -0.10299890686174519 0.46521797710623103
Ni 3.4545093767415382 4.296306680931882 10.46481066952115 0.032818846302233806 0.1808521676957982 -0.5627188369678825
Ni 3.607347301333239 4.69912574734944 5.760592781985444 0.5420402255726084 1.3038616918060446 3.27593741150101
Ni 5.238841003790771 0.7312141910791237 9.657296388039773 1.18918277750321 -0.4651022774639732 -1.7122276929202382
P 2.98596981845204 1.8429658796825976 13.498905175129837 -0.28016385551394335 -0.013181531687280522 0.08019039360766189
P 3.9306419924206155 6.554356626286322 9.519783722846869 -3.164025775530667 2.7690901888897668 0.24968959818448613
P 5.446138842426662 4.356940561542843 11.374111543987418 -0.2015775731686077 -0.7209188144818035 0.8845031962360895
P 7.808823698774637 2.057340742681592 8.759472640974863 0.6916511758659378 1.4539156431740639 0.09105304735377867
P 7.517587559457097 2.566987860455208 0.8132201323741268 1.220210336232976 -1.2275654910464666 -0.641251126146831
P 5.590360858451304 4.694398516231899 7.215236437344278 -1.0850880664741247 -0.4966576836727511 0.03179246192024847
P 1.3761402882310383 5.130151547589209 2.807837982175077 -1.587652088328982 -0.7237922793748566 -1.3467170964086743
P 7.890098900444647 6.784470496592842 9.597900065204808 0.9082691883074357 -1.3792266390006052 2.0110829541960977
Ni 7.103489485460845 6.717810087422677 7.703961180356924 -1.3475478198400859 0.3132554958615896 -2.1098122871482117
Ni 7.6428914361361 4.340068124552164 10.667478033231964 0.664648679135165 -0.33575779072916373 -1.2072782015523402
Ni 3.811419933553654 8.995994535685162 12.47110837398386 -0.848139827115707 0.7213823843817834 -0.3487359481563865
Ni 4.130180905908418 1.2615533117268902 3.179496947181394 0.31663341119488697 0.32393148751819695 1.4564299249554853
Ni 4.90073800781862 7.713403663253892 7.890781722717181 -1.4417491830148588 0.7515110854463638 0.8431228335170898
Ni 1.0043292777794204 1.430038094871389 9.066083800018754 -1.4836224262098772 0.04027478835964677 -1.0432145661687904
Ni 6.208844870434047 0.8648510796481711 4.700010375394828 -0.45777051968925037 0.3691751898473449 -0.9393718232495112
Ni 5.165877619797217 6.022713600759155 0.29580856052713767 -0.06097936789684981 0.22198004808435964 2.539134321688782
Ni 4.495329561393208 6.478914440790587 11.795401828290185 -1.3892120323480914 0.8141606419567851 -2.771046541285189
Ni 4.562653441597415 2.6919231421153 7.246485001560058 -1.6109951339302966 -0.6552800934360714 -0.7438162879052674
Ni 0.7607976272969696 8.352188045903192 9.849456950736512 1.2029124683844765 -2.5225422216580555 0.8274203351801686
Ni 8.924929416039005 3.130182619601209 2.3309543541449673 0.05151359449825967 0.884074079118471 0.3931494412747552
Ni 8.074451699153292 0.6763257853254478 1.8595333042951274 -0.8955715382351092 -0.6972942330843281 -0.5247953224492315
Ni 3.099939398299511 4.926383006259395 8.164795259776074 0.04139527511733516 -0.12139514998074576 -0.5014736170041557
Ni 3.9537805447327923 0.2629556864915455 5.46207412658176 0.000540445884502295 0.7936949179032653 1.3661199264153183
Ni 8.025714222777703 0.16612024609818077 6.164552649986533 -0.6314084290247965 -1.2398085700798775 0.9295309258996894
Ni 3.381426199366838 8.851044544498171 10.11381421978747 -1.375848466556992 -1.731503767541031 0.3109168204260839
Ni 8.920579994815846 2.3436929979985526 11.1409493928745 2.027520530926831 1.8288303066083473 0.4189018676485108
Ni 2.4826441052527586 8.837194586662568 3.7275101989859722 0.3957495979017636 -1.6073359399111544 0.30018477872056043
Ni 0.5202036791152446 7.6182232144954405 5.805571510655682 -0.15374605550762555 0.7780692955508665 -1.212666976668079
Ni 5.493457227979441 1.311239920276176 0.5161546628325006 0.9800782998299378 0.47280118877012767 -0.33164145456794497
Ni 1.6899252278304955 5.606505320279633 4.832262268180315 -0.3984369149259396 1.1930085790072034 1.6291262963133684
Ni 5.5551784638961905 3.104298034398141 9.267861928246443 1.361554418531823 0.21604285666431824 1.0120088299899475
Ni 8.402943580007321 8.972128008210635 12.799690560617524 -0.803295674217823 -0.8632414586438358 0.28585627791303025
P 3.247405050490575 7.24888179067053 0.24877122867627927 0.1429286531771474 -0.9904028216843975 0.2881679567653424
P 0.4307898994276653 8.968985735674414 3.273783553018985 -0.16347896652467328 0.40101393162449644 0.024539122791944833
P 0.7928488071664291 8.73496475816743 7.771759626647979 -0.47553427143057453 0.6873255519073905 -1.8973993139269967
P 5.796792498792754 9.29052960042196 2.411214998025424 0.8111573363540868 -0.25621017291182324 0.4945226396076193
P 5.182879065044515 4.9501850296056125 2.2516926027657607 0.1722878230655549 -0.0686386842143205 1.2885286609934001
P 7.323660505132224 3.202537821813559 4.256061633792018 1.7673074075032016 1.343351779480867 1.5257756625391594
P 0.7619854247454124 0.35797303195412866 11.476517376604084 0.5157308982541182 1.8087222230045623 1.1093754782665797
P 1.5461086663266563 4.34144114099761 11.528131737102276 -0.6258029099125609 -0.21963957287664113 0.716798621665843
