# total energy = -340862.26749161526 ev
CRYSTAL
PRIMVEC
9.27482063334363 0.00000000000000 0.00000000000000
0.00000000000000 9.27482063334363 0.00000000000000
0.00000000000000 0.00000000000000 13.57463751013501
PRIMCOORD
 96 1
Ni 4.524322445084167 3.8395717100637206 11.536093361674832 -0.023333018298985625 1.8870153995895111 -1.099836428427893
Ni 1.2313993903099683 4.296885292689154 11.343129790216814 -2.158982064004643 1.762741128288758 -2.420108443271161
Ni 1.3633986380420382 2.9215035863454135 8.624008355716708 1.3806204340243384 0.8840241997171421 -0.5767866279148584
Ni 3.290632174069461 6.203324680781269 2.26638033846348 1.461853667074218 0.4093941852683917 -0.4679605728483748
Ni 4.3768527964796204 0.6611351866382517 4.126065355573488 -1.00502802779674 0.9813592234248906 -1.254233744366272
Ni 3.777244915181799 4.544040713822108 6.145048200084606 -1.501257365682821 -0.8874779625936973 1.0112768369199292
Ni 2.584688473825028 5.3890510751468295 12.612793380670363 1.2005804778171902 -0.020886613641022095 1.328563565428099
Ni 0.7522120706235932 6.347538867331716 4.153852718291677 -2.5877145445903302 1.5136436551623156 -0.9109876156798634
Ni 5.145735429769994 1.4618601342424076 6.467608840721952 -0.6350789358978481 -0.2967510704486631 2.472353516618807
Ni 6.4255030098581205 7.320986945252398 6.410853430614668 -0.3722628276337331 -0.7334164327281821 1.7774923184560034
Ni 7.748945720466926 0.7153344561697228 11.079279691883345 0.5255897933260689 3.1667938251941075 0.06985301623739582
Ni 9.430730402364114 5.0328701370738465 8.591197750125296 -0.3816872062714265 -1.0672260985920394 -0.9765468896379119
Ni 8.59857494248379 0.5972882486490164 13.669252958524403 -1.140211746921146 -0.6215991562438585 -1.2287186308143032
Ni 9.230190229903265 8.656959938582256 10.086675399357139 -0.3198470330361781 -2.5885239278655034 -2.468482463699174
Ni 6.852311707309947 2.55966500766559 12.477250223961448 -1.1487069288763507 0.11470565377571214 -0.06368751085663225
Ni 8.695107275985432 5.762640851611682 10.66439841380922 -0.821324763805392 1.441235476603234 0.45734525922637365
Ni 4.950129461903963 0.26380743415840074 8.659328727780597 -0.8171847734950894 -0.6068636498058968 -0.1750800410987114
Ni 3.4267494421776585 0.1588415062242976 12.039251455374943 -0.5667328432232821 0.019785667267359475 0.15304645833743966
Ni 2.0978160377340163 0.4373532410680851 9.899467781605033 1.1667416748908743 -0.05968558878609075 -1.4852000551096423
Ni 7.744670028139461 5.1719182485128 0.8748279822869073 -1.3787245025532062 -0.183299086574394 -2.0718512345234057
Ni 7.91465894132337 2.946647625173522 1.0343205809220248 0.021283591969124636 -1.338720965577075 0.2519742804536047
Ni 1.164472284377238 6.638202472213345 1.30583353609053 -0.19011508105496291 -1.9849312355013946 0.2969318190009015
Ni 4.9627061187283505 6.846663341523773 8.643026375494294 1.2773783008035358 0.5574354770817561 1.0961420102954411
Ni 2.0768456682060363 8.85307602158497 5.494049464953267 -1.0139862654312926 0.3266920809824696 0.6959711433975304
P 0.26290499410750623 1.6886944232940684 9.793068893877885 -1.4147248319072152 -1.3804893077631128 1.6695962314029569
P 3.5128197779669783 2.2012859370945397 5.492067435776739 -1.914779457076657 0.2866888011166546 0.10390393517451782
P 8.34230237263522 2.5808579728895764 3.1529947628539507 -0.023714570008120446 0.23235213534730306 -0.0941010901514831
P 4.423004304118376 6.41046852555699 6.780151747556921 -0.8126501188495294 -0.18279874989920777 -1.8309378398696532
P 7.2000154592933345 4.013650819161755 7.972601528476022 0.17541608428189145 0.9197270524353903 0.07460467198976829
P 4.080475902067148 8.30109434441195 10.174706432235453 -1.4661420100369265 1.0386647420145787 0.0699903131462085
P 1.3258819884442148 4.5592235952539095 6.64519197706796 0.23900255078428517 -0.7487710608073813 1.5152845331998483
P 4.879538801807786 7.628169005741869 3.2499036540746724 -1.9665645600687485 1.5979285305543254 0.7691172285639012
Ni 1.7678550176865089 2.346770774076359 4.005196820123827 1.3715459825268959 0.38411946986200296 0.1603818156565883
Ni 2.7516630702921763 3.6997723381507432 1.3206806690141877 0.290920322699499 0.11437141036474498 0.39359989854861244
Ni 0.893951735020097 0.02485095449503291 11.87499809129148 1.2661294673625936 1.396021856181073 2.4822448075905896
Ni 5.573888976218528 4.063169086702614 0.6518659308636992 1.1219597426894936 -0.037902431472728274 0.9498835214141125
Ni 3.8153737029436408 2.2029090307112567 9.131101755825808 -0.2052421665043885 0.4392704040025338 0.7945503239250251
Ni 3.1204392148308804 8.226450587684317 7.790321622944269 0.46083270355434186 -0.7596326861122337 -0.9175500993887294
Ni 0.16749027649623097 4.560670467277954 2.2977245949074465 0.642786588954751 -1.4010900147325998 1.2941750606459002
Ni 7.018757638999079 7.856978831595591 3.7919121165845175 -2.158054409984051 0.17838545132286052 -1.2188764479129006
Ni 2.5255058431492032 1.0787636665939286 7.309887767360255 0.7868853511805997 1.677908350813078 -0.520627050004155
Ni 8.600151661997172 7.145256918075646 7.988239803602571 -0.2596477378384625 0.306598138446072 0.6370807968192254
Ni 5.0544433699451785 6.63514178139325 10.930610808966561 -1.3164858083279585 -0.11197848465253617 0.3363648281855433
Ni 7.833865978493544 7.954123303261253 12.024820761899234 0.6011681420830164 -1.143742385782224 -1.3330491120032784
Ni 4.705320570399748 4.30961962146488 8.542043983036647 1.0315533277807782 0.4874194529039348 0.26898752718214963
Ni 2.8554019394520416 7.572501532098819 0.09701184173012455 0.33176538174031894 -0.5875765194415107 -0.6970787746394124
Ni 6.032556682661337 3.783069502560645 5.815157668674168 -2.387402211287392 2.2820476597092765 -0.7635338209388527
Ni 7.355322331361457 7.446057901946254 0.5045335496050232 -0.778410223830053 1.287580438147518 0.18975332684017
Ni 3.8640386869831413 0.20616535119535678 1.078905571350133 0.6285804726576981 0.7359404847016164 0.30815442718959835
Ni 9.17703623266096 1.1145922988303667 4.456159933038599 -0.9990748955370988 -0.9955188027547242 0.5343600833195313
Ni 1.3506086603423104 8.992272530154596 1.4065905504059701 -0.6589925092906522 -0.43382480750693025 -0.6279595512442475
Ni 2.592525697288603 8.468792376891122 3.2756681784054 0.28741179532560823 -0.6145813301651286 -0.4604922894957876
Ni 8.107111470162636 0.48467894100327763 2.314570451684833 -0.8741974434347074 -0.08296821346311518 0.6031088107491549
Ni 0.32311434743116274 0.043557340298209686 7.781335249200058 0.24486363755075247 1.0058674929789 -0.7745301720493564
Ni 6.643470570352174 1.9017185043726363 8.672604706083272 -0.875184489938325 3.1381165118640726 0.0045002018631987014
Ni 4.38074822115974 2.4490905956741806 13.27957878805892 -1.1379643456478659 -2.627807041735842 0.6851815089811942
P 6.90550280383492 7.075603014866831 9.734521588417747 1.3892045761489238 -0.4631654654525765 0.7642917821507998
P 4.447712426375138 5.6397216533125585 13.541637918521602 0.3973292836840576 1.5361791172606707 0.020753430497267484
P 6.2099190782754725 3.9074633973458135 3.610568967940126 -0.8593061281451716 -1.163159613966571 -0.6373299367155539
P 0.5036960332987973 7.753091565305055 13.251344378984584 -0.8015110715135745 -0.0391185632680165 -0.1989437350901864
P 8.238285258855347 4.486601749431671 12.517634648109494 0.7465036049294435 -0.9207120420564789 -1.6102708541697621
P 7.449981151088374 5.691391679248152 3.9511561500257613 0.9572983258209449 -0.07594678783995952 0.5121742912511115
P 5.567730495295672 2.231011737332123 10.637656323380195 0.8364114829351853 -1.0073805871893167 -0.6606930369215267
P 1.5690121374077115 7.570173552111414 9.009242669528918 -1.690293097630676 -0.36853318538797175 0.891335902887207
Ni 5.826711312778991 6.1635635245820435 2.107692794262254 0.604422644464572 -0.45784533879124373 -1.178223450278229
Ni 5.7070661261753015 9.142227830697886 11.58209832714705 -0.14561725575290407 1.5040369853104871 -3.2647240592836932
Ni 7.154717235155937 9.140836607597842 8.99536939277529 1.2531258560140741 -3.0744300294487052 -0.7675683960195426
Ni 5.1450583678613055 5.6706160809541775 4.410359013621052 0.3880923384668219 1.609596710920873 0.8650975380159681
Ni 0.6508308608772674 2.328341705411124 6.213804300652859 0.7714188801138844 -0.4920857480313525 2.0116992476238575
Ni 0.7725332027048865 1.8274550152923466 1.6040468449950582 0.9595207873935604 2.438457892312626 -0.15659638047222707
Ni 2.5788731612668485 5.695175806080268 8.247718678955705 -0.03613942603503453 0.019215396586186262 -0.41905202007312986
Ni 3.819398975113098 3.844450265734537 3.9706490406214954 -0.13024462995157568 -1.3358369591610608 -1.4298436898265245
Ni 0.7695995769279294 4.261511126665397 0.051974240053469206 -0.20793539706583544 0.07451699737196843 0.7624796686427255
Ni -0.0761611173887483 2.5516422877886757 12.17844518149837 0.8240856143799808 -1.436347038162681 -0.6856077978853353
Ni 7.0632118544557825 3.99923774784531 10.234353731426694 -0.32111304423279535 -0.8959638885775215 -0.8020890555042315
Ni 2.463141948984614 2.5585056550822207 11.42620714137691 0.7841964914945269 -2.37041133315635 -0.453906922968786
Ni 4.615271336544304 8.166553795817135 5.492977295684167 -1.0540803052387007 0.3519577975277938 -0.5608427029910921
Ni 5.152849217221546 7.8071915942553884 13.187963964474896 0.035227198633410305 -1.841023249130113 1.6343235242435918
Ni 2.795273277068188 6.561351308166975 4.971724954344895 1.352211543864342 -0.2743001976443147 0.8735276710611924
Ni 7.458782955901313 2.495325576698939 6.424876031981033 4.048130707887073 -2.1253895727611782 1.587056106616196
Ni 2.365598660030273 7.11003114918256 11.140569561814702 -0.580021332802072 1.07912387847089 -0.925943208548431
Ni 0.4066739892659391 4.1137817830821755 4.832285445473795 -1.1902739536848599 0.18184384218510619 -1.260965663773467
Ni 8.063649660517296 5.538162367009427 6.19310290092422 0.21989822585466645 -0.8750901304523057 -0.33297945665307815
Ni 8.367650457518003 6.66786334870626 2.2253856311155493 0.9781363456122185 1.67806030300991 3.3734837798886157
Ni 6.482088690747198 5.485481385621136 11.991319182168134 0.5862130634350807 -0.13617462228276547 2.497108097855667
Ni 8.28560539389814 8.044432232095371 5.528257786019188 2.897964163746061 1.5295086472190302 0.9997109864592008
Ni 6.553245114904059 1.1493914259727729 4.8312679976466315 1.9641207265139464 -1.1726924931576708 -2.3935366063199037
Ni 5.817631263346044 1.9581465133103764 2.5269183983367802 0.07678985256654518 0.7849932763642093 -0.715770951732277
P 0.06513057316954153 8.440569097601584 3.5341166211824353 0.9099681732764135 -0.2897944366251719 -0.7441003948045893
P 7.098725142789544 0.23237135698983147 6.799372885907114 0.2854294747882568 0.12107067676179151 0.3876367389866421
P 2.8884388506677268 4.29370402920039 9.90081077563761 0.34352766448256966 -0.3994231900986089 0.24325027031704557
P 2.1443941871234524 1.5226473088936152 13.277719186515196 -0.21692448793832317 0.10041854772907867 0.7771650385690422
P 2.9824762574099597 1.7317203163680615 2.3809781676602135 0.9429978500378727 -0.7747569433481818 -0.3010622962295073
P 6.2188692802190815 0.5367663338688836 -0.08677522216000891 0.4256589838666863 0.6676483851934373 2.004400399969599
P 2.0301654957892636 4.903495663590524 3.3198265270828284 0.21703401693299398 -1.2707345702347728 -0.10563634448459225
P 0.7984377768276852 7.0363426989836215 6.264328886236084 0.835081194159536 0.5079170586366543 0.38263594333794104
