# total energy = -340868.53185817314 ev
CRYSTAL
PRIMVEC
9.27519932878207 0.00000000000000 0.00000000000000
0.00000000000000 9.27519932878207 0.00000000000000
0.00000000000000 0.00000000000000 13.57519176918893
PRIMCOORD
 96 1
Ni 2.1312088568095735 1.8486491936005782 11.846662627520596 -0.7148600098822333 -0.9670235235285087 -0.8854470482065977
Ni 1.1808997899305027 5.714329543967968 7.213829637973117 -0.03965798071125427 -1.2341922523343647 0.2495085925219316
Ni 5.230822693803126 2.4902147104127565 1.560726610313214 0.46004491754572385 -0.15672493563029138 0.6363683441332331
Ni 6.419504375718673 7.086140755505309 5.8013169980582235 -0.04729904219627983 0.4445769038171118 0.39481808722642975
Ni 7.874773828115867 4.076654027473213 11.380476284021869 -0.3571383132874688 0.5159414716030276 0.5325808799319215
Ni 4.503396659582674 6.870381075700699 2.4861744337158735 0.25295207098584177 1.7175676170759129 -0.7486306785747752
Ni 4.644259107230882 2.427885372940184 6.082704276109996 -0.2881407030718328 0.3303055093653408 0.34505644242227024
Ni 2.487228096325529 2.835938479006903 7.901616254104798 -0.05094923735435742 -0.4864223790979881 -1.03814332229347
Ni -0.09752129762710136 3.6579344425235383 3.1720466487680414 1.2350155195666086 -1.3895588741645488 0.39000523921881863
Ni 0.612497970576271 7.59623032608628 8.764523265497033 -0.1929669486814612 0.5184722084446812 0.4625270605376292
Ni 1.1363139081997504 7.3186050687605295 13.14705666157709 4.515828256882049 -1.755362062215867 2.511707592936397
Ni 3.970721979366925 7.905576764090035 11.810416077236509 0.3817725668963812 0.20501925186030498 0.4038357173440077
Ni 6.053709076426512 5.9970561607594775 0.8709625217486219 0.7375479383980524 -0.1815021425749713 0.8299693268542673
Ni 5.045995802759086 8.886957747715106 9.762924239339688 0.4624504416634229 -0.23496257638695664 -0.9251055431384841
Ni 0.9392530296369119 3.016461677701647 13.605056714413122 -0.19612914845952673 -0.822904449587686 0.24010478270952845
Ni 0.02891357793203126 8.016090760516478 2.0073088931449727 0.5096263280182771 1.2504295401288334 -0.9271202595756678
Ni 5.389512073984412 6.3037313414429805 9.98900628814329 1.0259467802272781 1.0879162799515392 -1.4847434271881976
Ni 2.523438473333404 3.717304991505969 5.2323540291627575 0.09428235292435376 -0.06755933510721268 -0.6013645743645386
Ni 7.853450145548985 2.234488197993665 1.820758670121408 0.9759938453479191 -0.029764889967258415 -1.878686568008842
Ni 8.607746431355455 0.6513823874641081 3.4086486283099453 -1.2359753123767168 -0.5598214608154294 0.4576676755627989
Ni 2.0641306174343286 8.945929463139304 2.4470368038945542 0.8263877801505961 -0.4162603162606057 0.0772199981254283
Ni 4.326657742091623 0.863146311527173 13.169605597935655 0.057344085137107696 0.21445468624159195 -0.5645265796005826
Ni 2.0027380750636508 6.753430091148368 4.190797409279569 0.7158971928974961 1.3590342232131305 -0.4824405116321046
Ni 1.053402904082589 8.923539132684127 4.9171104196165825 2.1113672903401572 -0.38729786758998463 -0.9739547034307033
P 4.748939003468301 3.469527324654436 11.435523662737042 0.5209407245898319 -0.7757930979221801 -1.3959166980617765
P 4.587300109995902 3.360868368033724 3.662396740776225 0.35876505025761435 -0.6205899982530537 0.10950431208043078
P 8.52457572166549 9.410245926513854 8.461497875631306 -0.6592015399776646 -0.08168034788962708 -0.41965648642634823
P 5.638662470292187 2.5178177027220383 8.551460813569955 -0.2934741994696043 -0.6496390931002102 -0.47203397158679994
P 7.214667188445404 0.5800496142944187 5.284319259240709 0.3498093837262234 -0.15887412076281027 -0.08549020855402051
P 0.600298301293879 5.314920923395956 4.289882505462902 -0.609905264845698 -0.7940523012426841 0.4494504298593292
P 2.2092967574318334 4.681313527350365 0.30937426360084136 2.496861271952184 1.356130162192458 0.9825681561313271
P 8.93366765002342 8.619785639694651 13.23313700120234 -2.884390538826684 1.1626613341739138 -0.1941979928750849
Ni 6.35282496990166 7.322927311507884 11.948530283412527 0.707942971047426 1.1422069229743037 -2.1532001672155436
Ni 6.661383015987979 7.830855760715177 2.362979385177451 -0.30762400860742506 1.8536057137808142 0.7549445366079449
Ni 1.2890578858036674 5.066160085447386 11.974187338965596 -0.5871859688713114 0.9496320675249387 -0.043406134899776856
Ni 4.070476744920127 4.108542161733734 9.04608677233035 1.4318357805558888 -0.13691407155195132 -0.3600616575818509
Ni 6.075830426109859 4.5975955809177105 5.6385372551053 -0.22409503754483343 -0.9652335215076215 -0.4013792853837152
Ni 3.94590154676624 9.120442332863478 5.768655312198712 -0.2113793897503779 -0.2631158988927211 -0.33365539967418023
Ni 5.763367521232475 5.184140617091898 12.39022639139599 0.5800794397335172 -1.9407740813682062 -0.8971424822666548
Ni 6.008696535540442 0.5083003846883426 7.295389245591802 1.1145475093858224 0.159365458576932 0.2058142369577746
Ni 3.727489160039434 5.361732852893586 10.987203207607315 -1.66499961317121 0.19629164217932 1.4378974133689366
Ni 9.141728914634244 5.118240327993292 9.474805021832916 0.7666705667956215 0.2507918301097294 0.5540184809804072
Ni 8.103110677803334 6.418929313378896 13.29009878099703 -0.12372714054803206 0.2045860209776283 -0.2536866351590212
Ni 3.827726235942126 6.092145501201266 13.313990766174946 -0.5928922752274693 0.4196855398920708 0.4017988894196371
Ni 3.628791767175499 0.5343451435608103 7.909069804044227 -0.8191622089364344 0.1866893432028656 1.0434979017371642
Ni 0.7362996171311681 0.600312214092422 10.354042876154907 0.8000033766197964 -0.6465622539470993 -1.3698662808316278
Ni 7.271273728117295 2.4729257394233404 6.436866620780414 -1.1495862461575106 0.45657187139545885 1.4476868886555325
Ni 3.6809369361146063 1.8771518802156402 9.938995342500677 0.819679257782169 -0.32974912264123857 0.5633731827224298
Ni 6.4271193141211995 2.4178032315960345 12.603750748234692 -0.48245259581696265 -0.213481009474413 0.015136341420806191
Ni 6.749191325192271 4.433888318061921 9.177440285934379 0.6514980006858199 -0.933472684156257 -0.464166138802949
Ni 4.41222145313098 0.1011618132458491 1.8984495922252416 0.2567089669251127 -0.0014896971716490473 0.979012834679901
Ni 2.9888215845962502 7.175609325335731 8.582479861681492 1.7949547369068248 1.3978761357809926 -1.2145593085947854
Ni 1.0825548546296566 0.4009956071258142 7.448897499595681 1.0629452118284983 0.004209410095657267 -0.0789439227950705
Ni 7.92127967604555 6.518452198956381 7.837989316288117 -0.6686200050780872 -0.5812094395729023 0.033711790430148394
Ni 3.427631250641994 3.1635663342961404 13.007436163078818 1.1601755916375824 0.9330996170875543 0.6018266016026216
Ni 6.984076465393971 2.7084508683580175 4.078394982330891 0.24211615671260234 0.8169315198337028 -0.2911841178838469
P 2.932613878482591 8.882125369021175 10.256233119838011 -1.9083984932509779 1.6572644493104813 -1.1533991921456974
P 3.2237438255940645 8.338552329946754 0.3225413361419223 -0.4199483066351542 0.2656864878333747 -0.08053080766621615
P 5.8969303872451295 0.29296829155895354 11.58629016790805 0.44269974139905693 0.2807546950204068 1.1258143405488932
P 7.836597108913916 4.528550999348391 6.948475468962279 -0.009690744925202666 0.8878685131638967 1.194185115813808
P 2.0355908300231524 7.4710244143984434 6.365230548602488 -1.9821801551188185 1.9757696236067843 0.015828225281508224
P 0.03965147584750703 2.769500228364636 10.556177288586419 1.767522608837801 -0.04073475871520081 -0.318756885295793
P 1.1131073602300516 1.5238409988160524 2.6952457675009196 0.07376392125602779 1.2452695931944489 -0.5181557056455269
P 2.4080457222178877 1.5835918309586583 6.057535096025833 -0.2185285992006495 -0.5182528933450236 -0.34152760333340537
Ni 3.0532749426463845 1.1121427395310712 3.9144883026959856 -0.9728033634350794 1.8361697776925539 0.16760430154695652
Ni 0.21610100712886474 2.976096011528933 8.251462848667183 -1.087832204878165 -0.1374743149307955 -0.10925491507378603
Ni 8.639486162431519 8.225580405777716 6.176616593795047 -0.9940810418669332 0.6843932087519439 2.447475008209572
Ni 5.826179169054537 8.169335598867942 0.2506947169460453 -1.2919166036290266 2.2092772127147695 0.6025215707871172
Ni 2.7623490499135412 2.5869828618787305 1.5905779108670426 -0.019857915266191607 -0.9409257980001924 1.3417664372716183
Ni 7.768062663291172 8.949416937974078 10.391347726648162 -1.3940732170951347 -1.4403183641056034 0.780969242806481
Ni 5.410186492619289 5.5509932890733245 7.605826447001328 -0.5694967791216644 1.2823574991856819 -0.06288326978778201
Ni 2.03188075041169 4.748345390730466 2.5504524905043664 0.6017502398387313 -0.7143324195135374 2.0264794912568256
Ni 9.258744825579777 1.5440980334946386 5.610490908282448 0.38783111438563533 -1.3185807431837742 0.1410615180614216
Ni 0.3371711075698223 5.16002509961739 1.0240283487588335 -1.7324820722939003 0.03866604911163018 0.11886184203593078
Ni 3.9254404577090236 6.7000513207384484 5.9644640388926815 0.6130988320823312 -0.22810261604232973 1.3448569032714839
Ni 2.4156606606204143 6.827028795440758 1.6311133131819804 -1.133887604475331 -0.43137403197359253 -0.6133718832380597
Ni 7.5434358932151655 1.8688320266869352 9.741068160348561 -0.6887648554570783 0.5586312971620702 -0.8895988655914422
Ni 6.478837823904989 5.702373812420029 3.656084040317321 -0.5112972879627968 1.5859099088268944 0.7933876710754917
Ni 1.9989445186609303 3.731060111665467 10.203928417475613 -0.6498697210537775 -0.4027923636811579 -0.8108079234344681
Ni 8.907724918340268 1.466640846406327 12.404752280594769 -1.3198464972700754 0.10065277522707182 -0.7758118669752575
Ni 7.2493657080116085 4.349391254910859 2.1710940676726027 -0.24053698515094057 0.05148274126032423 -2.199829694148624
Ni 8.183610130173046 7.4401101760359305 4.154971953031383 1.0397916565301706 -0.7552517834357186 -0.6663435503390847
Ni 1.2712773292657327 0.5512436286711199 0.2146540760803943 1.9413052712813277 -0.00989951850189908 1.0655952478568356
Ni 0.0616633781823149 7.470495728053811 11.348235692198259 -1.2004480660043841 -0.801972070310393 -3.0519768426515115
Ni 5.355685423126903 1.065553414810129 4.095811951066903 0.7804179982887012 -1.0767656626513586 -0.7002183487096586
Ni 4.288916957244019 4.692313913398352 1.6046279823556513 -0.42997818006733046 -1.0448618719642262 0.5606318725318666
Ni 4.076097515531493 5.490583917799684 4.126994242681343 0.05330436785009529 -2.7655860323912496 -0.22836975366078735
Ni 9.310723040936368 3.677996698022522 5.620848523037749 0.14135616648370494 2.38953417002873 0.45990016443774345
P 8.193089383580332 3.690406914322865 -0.07896811701007954 -1.183916386897948 -0.1469981952608307 0.8446495545742615
P 7.541348973433718 6.236792230053165 10.562991777312773 0.3872868118463911 -0.41479890122373075 -0.4362151621159778
P 4.974567495039401 7.8754601928439865 4.306878380163012 0.3546728824661118 0.2210248832599419 -0.8441039664834366
P 3.344070982592827 4.668912586249052 6.982141658876594 0.5406893679716689 0.24680482043752336 0.27274776555553026
P 6.546064466464692 0.7069167141282867 1.4865917995169675 -1.2056496648099817 -1.5301131135722486 0.013330655670635107
P 1.9353815797175462 5.989561799944323 9.837249191716023 -1.830017127827597 -1.7845852207470427 1.6059236329446602
P 5.018921496794438 7.858263973844858 7.599527659340967 0.5317023339817101 -0.4021776129152944 0.47401783478604814
P 8.164512495373042 6.377756704890689 2.0796925463646088 -1.7378690476374263 -1.9636826105352632 0.23064543706884147
