# total energy = -340886.61496875924 ev
CRYSTAL
PRIMVEC
9.12441118094506 0.00000000000000 0.00000000000000

0.00000000000000 9.12441118094506 0.00000000000000

0.00000000000000 0.00000000000000 13.35449807293356

PRIMCOORD
 96 1
Ni 6.634331895034755 2.149054283780219 11.618653656704854 -0.37523425155723117 0.8163242252670071 -1.8213733361096698
Ni 4.667510348575188 0.7019391165396704 5.960179347439736 1.9368806598510708 0.912942425413389 -0.4164801455808957
Ni 2.9996318810679807 2.103350108873392 4.849097990035207 0.2579657221503493 -0.7459371909030121 -0.02220301845960047
Ni 3.6584417314967332 4.774868168889367 4.549636644535691 0.4481731058088024 -0.32097934686840845 0.4019498131752045
Ni 3.854059979815252 3.0770342599329465 2.6752134464877795 -0.5265688694098867 -0.11140075777219524 -1.0710966372910393
Ni 5.314768694625414 4.9177290725659875 2.6331198010300705 0.49452443937983226 -0.08714317077641122 -0.9721515887836935
Ni 5.678914814880265 3.2524054401503975 0.4478416054151335 -0.09214910863143486 -0.742523794346089 0.3489750607503861
Ni 5.72411714717981 8.198922029552287 12.297850178723609 0.08591495479626494 -0.27141747677988093 0.7125485881402374
Ni 2.2578720098610368 6.8514563801780675 0.09292391448764532 -0.06133006636804922 -0.6258381340258705 1.055208505305873
Ni 0.8076499806608608 -0.07463585743718552 0.0728502101963658 -0.2806927314342198 0.34374543692033055 -0.11039957020119051
Ni 8.144476668867714 0.1741120114937253 6.874842245677408 -0.18924193442139023 -2.0792097317710065 -1.6376407615422828
Ni 8.967644535386837 2.3238232528689315 1.1130586172772203 0.06506433659950084 0.35000735866964233 0.1541011248541991
Ni 7.268715697105437 1.1746766774815112 4.559345930324941 0.10343342329600252 -0.741074206383756 1.5504037455004847
Ni 0.6009437480447224 7.239827811748077 2.196680972093488 1.5053335926347238 0.7736631960633709 -1.0251181136783958
Ni 7.93138517340474 4.003380966509247 3.9312305986397633 0.15627267858422117 0.05414768968699707 -0.6007261694495912
Ni 7.938566084894393 4.143522795695502 12.550209489544743 0.2767293759110976 -0.42308145294749716 -0.5700097142023409
Ni 7.957699974848399 7.641183280230128 8.64787863799669 0.3938485242243088 -0.9348212277643513 0.34134685478116694
Ni 7.097970593286021 0.7813853634779298 0.18592629891024748 -0.06039238504512825 -0.28893414550740565 0.26139377399529173
Ni 2.163425231170567 6.890353744447943 9.182699604105938 0.16198721247049522 -0.14778906659324226 -0.019956645627584986
Ni 0.5432482721471684 4.877216687541769 0.9490829140094872 -0.5343924792193636 0.6327723992518586 1.67051848610691
Ni 6.815259841576474 2.202943055391263 6.979314014779164 0.48579657258853115 0.7587032323194288 -0.18143632233404236
Ni 3.3442426372830014 4.54185808412282 0.33209023938388677 0.9789500997627657 -0.014026653296395198 -0.36401884245738597
Ni 6.1973729746688075 5.748853425513291 4.667423666670294 -0.8006538657196018 0.7948624558488052 -0.4106293432270734
Ni 5.2978064144992825 3.122939171882686 9.360475066632823 0.7966815113354151 0.17520499671234988 1.0716478818088189
P 0.4347316516307197 5.830982249297749 12.39909008143447 -0.4440840233410932 -1.658315516282815 0.062483977466834324
P 4.645009550946873 6.160136253208484 12.593425437560555 -2.7042829626063942 1.9459538257969324 2.4264837506698855
P 2.5606108438066566 8.697279111816426 1.366792976842306 0.6408556904806254 -1.575147785214384 -0.5440996792047984
P 6.720174354113099 8.235510917828666 5.695919979738291 -1.2595009063024825 0.22913594240285054 -1.1010949834253423
P 5.062086379653412 1.209632296181462 12.833953124584186 -1.554013831449246 0.5098857523272509 -0.36226586432202124
P 4.433441832127827 6.6475075445786675 8.209597590470832 -0.31575049436930136 -0.24436972863346942 -0.5024475508816508
P 4.959026156939775 1.5406385555336197 3.719841718277132 0.27854251786043643 -0.7202582980796692 0.35582473668236786
P 0.27570685379409926 5.6990158924046685 3.4904914347793263 1.0524214294790393 -0.9489949481615721 1.37770017505375
Ni 1.142111654474431 9.196128912276805 4.49625883994297 -0.7189503779015232 -0.4503955673814179 -0.006415673718356692
Ni 2.1150111061844172 6.673502991635875 4.65683387521554 -0.5188542743744483 0.7068042294572924 -0.1917132787800182
Ni 6.180438067775801 5.436917185237849 9.113456273594275 -0.5634641997743393 1.5584916647149418 -1.127852968245477
Ni -0.07960044948486061 2.577171649846962 9.884251845617449 0.48676202182559386 -0.0008276381076179295 0.6679908561345206
Ni 2.408680275554795 5.800041371456054 6.910458471736763 1.143020934235167 -0.20821050510409303 0.7944428518128834
Ni 0.623741089031887 -0.008937360615140128 9.311957835801904 -0.03196395450110624 0.5143646140342109 -0.5580666829078518
Ni 1.5135938012066414 1.3899397827723594 11.407598729786342 0.4412493821057755 -0.7072356605677562 -0.816215981823917
Ni 4.406232838402103 6.989490470413738 1.4606484936972877 0.8584826038026119 1.1121741240576395 -0.6585230258534013
Ni 5.847652548270553 8.529928288904445 7.866907522780045 0.33804221588796624 -0.09491407297108169 0.23687187759452755
Ni 5.457602225068908 3.1813901490144754 5.099174373213759 -0.4213693553523969 -0.6950851412481514 -0.7276666747285985
Ni 1.0432760340730038 8.00366875767543 7.1525619445472595 -0.030833183330772704 -1.6927474727084395 -0.6763973350306609
Ni 5.163531581612705 4.8052707064796145 6.919526311429796 -0.1034251957658864 0.9905329195043586 0.3212727097391112
Ni 1.071023368050177 7.434925968637231 11.373998998567156 -0.1852677802649906 2.153869682478742 -1.2555426929856828
Ni 4.762650582504811 0.442684488294483 10.109929553671057 0.5221972227047522 0.2867232538990159 0.15075174876599198
Ni 8.533979527406867 7.366657125224798 4.718545004412454 0.3368474242489166 0.7993343755772299 0.6702027761841749
Ni 7.187298577382215 6.371676598794404 6.676634489505314 0.4204805249895404 0.4154103095554846 1.492409685484204
Ni 2.7342848835703903 5.611403297584276 2.346626068502721 -1.1170329948118374 -0.41716071658768794 1.0426126709187336
Ni 2.510727688642827 5.569823356468202 11.257921891061729 1.2654951762127045 -0.8465426578319162 1.2627206987913608
Ni 1.4426606297700928 3.5060458182817555 3.6086260969746102 -0.5224553614621453 1.1132357325529345 -0.6986661737311903
Ni 1.9765025465745885 1.2237751332957725 2.4849649140671777 -0.5275865120411236 1.2172342843237876 0.3971004555027032
Ni 1.1894855966018507 3.579761935085959 7.966385501718794 0.9571317183360936 -0.0954257225001776 -0.44050633329216393
Ni 3.6658507532624234 3.0579733652672725 7.278468780067686 -0.3181195088221102 0.017827772210040265 -0.8832875786614336
Ni 4.586430832060501 7.298881000008605 6.007294156293578 -0.05008483247153309 -0.2950950229024789 -0.38667874594874696
Ni 8.188237344222701 7.318388990815312 0.0787464046113771 0.5885625375038637 -0.03921652229846149 -0.6070611105286836
P 0.3591377310341777 6.0960190168199295 8.230977910423253 0.7317359597019656 0.21225407904584734 -0.8637150558461447
P 8.98308303886904 1.691747926791747 7.821195135903281 0.043901329368640524 3.0059582098295516 2.0940241710760197
P 2.2628904359338566 3.562069702076508 10.3164168004222 -0.2585064251451677 -1.3521277259012843 -0.5349303540007045
P 4.35786433547116 6.704307003311947 3.746578067510908 -0.4194214875974067 -1.3484631325655034 -0.23111620605767294
P 7.344484806393975 3.947831552088652 10.203023182204074 -0.4632806508742021 0.10769091302077584 0.5993791685033935
P 6.774701834497048 8.090752136655416 10.36737754853003 -1.7373275733116598 -0.012605347468836356 -0.8093017712025867
P 2.844571639828888 8.8170826287912 5.873294880620454 -1.6128324442493513 -1.3284542935437444 -1.252703680874991
P 7.555660175538236 4.055453980323034 1.7850422923676768 -1.8000370365257385 -0.03876863612776549 -1.4807628452738948
Ni 2.799606542216422 1.510108276188792 0.20579652883530175 1.2010569032329768 0.510331838725734 -0.23637925422882514
Ni 1.5069968520236436 1.1299305657340408 6.697867906439967 0.8396924676793023 1.2811889327988772 -0.1102429900186682
Ni 7.43001703549691 0.9883379551921884 9.266512794168657 -1.839611713494567 -0.30287723795105903 -0.3295830293770195
Ni 2.632173599605068 1.5820816304840704 8.794778006000275 -0.25365166815602763 1.5819190424999467 1.7934956358627951
Ni 6.801208248572578 1.8679220551808493 2.4561326876171714 -0.30231390924842133 1.4471045337895012 -1.0491106199382512
Ni 4.274531089429225 6.9910872423459995 10.60658310839375 0.21305986277659433 1.8081031013633246 -1.2494743753044157
Ni 7.7824747852076115 6.125554735361234 10.868170848542244 -1.1685113651967876 1.5174283190157285 1.1628649655442875
Ni 8.080122197792079 4.494858242848101 8.083611372574344 -0.18789647613708932 -1.0463510549152433 -0.44964557658927073
Ni 3.1034676787201447 8.676584947574325 12.23862271421219 1.071950243540586 0.33107992563752014 -0.9606289328560746
Ni 0.4658723540742233 4.943094935261332 10.237077309093126 0.47150303878399435 -0.6265696128752564 -0.953815252368351
Ni 9.11340700177465 2.6370186618680997 5.586747314067959 -0.06871196065441715 0.42779814169687613 0.7722208071898894
Ni 4.056795268746133 3.0519877516240546 11.70631278602156 -0.6220534701724577 -0.7390566617330949 -0.052033471557471685
Ni 1.3396186558785383 3.550664188274645 12.390850738264001 -0.3183069422425679 0.12544412323913878 -0.12870711026112672
Ni 3.397812054507593 8.69663127863248 7.935563241220637 0.8833755103895496 -1.0419986914838184 -0.02671221918386367
Ni 5.81201259874249 8.518705263323412 3.3461295654863816 1.9965104556985616 -1.4818902740101187 2.752656725924092
Ni 3.4253221537976875 8.61338927670096 3.6907959806087547 -0.40105146973065126 0.8347965730395815 -0.11890040858335006
Ni 3.6485782431608818 4.799695691333264 9.104762534753943 -0.25294692877951924 -0.012548526088971938 -0.06402946757708329
Ni 5.328391440310359 5.018718053973206 11.18638194629092 1.6900498712716183 -3.2313645099866415 -0.7550008437671771
Ni 8.379484999652348 0.05945648722856162 2.020615424195779 0.4962020841925712 -0.05293592876708303 1.4869957135574843
Ni 4.805453194700444 0.4341613759406265 1.74353625898104 -1.4264194946363242 1.4920150211489467 -3.063041070885473
Ni 6.329987164745833 5.538371511608184 0.3792981172303513 0.5509925496698898 1.0230324347939608 0.6814390112196265
Ni 8.382997897903321 9.008211666877305 11.290066278719795 0.27007741781221867 0.6801897121935576 1.3173689822638601
Ni 0.30167857738259835 5.28641002510846 5.944060162893839 -0.7873244956005473 -0.4123177866730899 -0.3185771651848191
Ni 7.426193907270524 6.547412755453514 2.793760532062139 -0.24173049123840948 -1.213766123269529 -1.0280088049626295
P 9.205983276201614 1.7480181696846202 3.5253868323664035 -1.2864308979241073 -0.4812848007611066 0.151909516519519
P 1.874628497296345 3.184976042553781 1.2164683049337468 1.461508367919657 0.06204560437783508 1.1510157795151854
P 5.087388371471465 1.5611684803769739 8.067425579827844 -0.818143794974249 -2.06692911463144 -0.11692605846579864
P 8.658135388448432 1.8801213927433222 12.28851499378706 0.8987710190090136 -0.26625110208759306 0.22835432704181963
P 6.634368392678921 7.931403422226823 1.370986556156975 -0.9514593505416645 0.5516985745979789 -0.5366406518235919
P 2.1082681664247556 3.8764604089221115 5.771773946049516 -0.5743286532926689 0.02396936633140388 1.05963311673613
P 7.107834081621873 4.280352463673697 5.945649635297267 1.161398151190774 -0.6315187293504156 1.3706489246339233
P 2.5969168753407477 8.900114769268765 9.996736672495842 0.6405615562789742 -0.2952022379043045 2.0387608797273407
