# total energy = -340896.3165146029 ev
CRYSTAL
PRIMVEC
9.02458146239426 0.00000000000000 0.00000000000000
0.00000000000000 9.02458146239426 0.00000000000000
0.00000000000000 0.00000000000000 13.20838718889371
PRIMCOORD
 96 1
Ni 6.318343959605537 1.876824109647755 11.334750390575849 0.5921034607775867 0.25800608846998146 1.0473771821869122
Ni 4.603339616028013 0.34512615759563076 5.915112133289823 -0.2851409970135605 -0.7830405235132126 0.2860275133835719
Ni 2.876233309018434 1.6917389731615369 4.752694630500664 -0.04529975237806392 -0.47904896945205233 -0.11216823206583908
Ni 3.543871828558656 4.205509001579626 4.900377390071034 -0.7191627510226453 0.6084610762000038 -1.3708551271074585
Ni 5.204367701495156 4.529825377312487 2.629670920263874 -0.5780261567489142 -0.27521833858320993 -0.19289521490326134
Ni 7.3276711737501365 6.055972309448833 2.663893937211704 -0.4151629694313688 -0.7007014589936642 -1.469767779714972
Ni 4.898533668125346 4.311394413174185 11.768025047812749 0.9442862298319931 0.5721136479192211 -1.4185141237463181
Ni 5.762195116604918 7.794016408911545 12.352192508164226 -0.5772633104409607 0.25952946709304336 0.3498132403809653
Ni 2.031018104576982 6.428137014873532 0.3711503424942268 -0.3668385712943682 0.15987299434096983 0.2831396503128156
Ni 2.5437135889457245 1.5208134046282602 0.3881995813576411 0.28390326795171744 -0.5771013309417997 0.5188984973488224
Ni 0.5352632546554987 9.091182641449432 4.883801039264174 -0.43760612892623346 -0.19275508978097128 0.0029084318960466036
Ni 8.61066881375385 2.179616859142396 1.3593943299647278 0.6730914105858794 1.3573612063860816 0.8538687591796842
Ni 6.866478974472176 0.6924759720068158 4.9053436171229805 -0.028374951598267265 -0.14239746326402572 -1.147161952986734
Ni 0.6290476052761251 7.248651940483116 2.409605604464465 0.22634809524506827 0.057808426368035924 0.2755587526417641
Ni 7.564169349514817 3.8965705122660226 3.8708766270405164 0.565431093692723 -0.461086985656993 -0.14479347430002806
Ni 7.629696833840061 3.7682951146349772 12.553382912316994 0.1671823835181895 0.07860530850872914 0.7254321289711249
Ni 7.898133002584639 8.895448499109504 7.0141292455501105 0.7422101197604121 -0.9785135264459792 -0.22971392639350763
Ni 6.883021031870354 0.6902568274818773 0.38159810018646406 -0.6139246704177361 -0.7408728890062273 0.03400309641832209
Ni 1.816422587462263 6.554842135370216 9.180172232061519 0.5406022075745012 0.2739381863192057 -0.12857315578642373
Ni 0.3015581867821091 4.9407596837096746 1.4478243965404336 -1.0482518714823819 -1.151526400603017 -0.1264226851023242
Ni 6.40475432490153 1.8092570699640886 7.000708790800067 -0.26613925910007713 1.3182557557441879 -0.23139825607446599
Ni 3.4271388703232843 4.101148744213269 0.47406756932159433 -0.695124479126519 0.9555803146885735 -0.2900304638953779
Ni 5.9994333080306195 5.575368235940932 4.747503691376042 -0.2946381378707184 -0.3396758948366473 0.7394999199181006
Ni 5.171951405709964 2.7778473244276323 9.456240489153965 0.41887924194069154 0.22855795841219348 -0.38671011340731465
P 0.3469816114969212 5.516690408770743 12.40490779451446 -0.5591390900364241 -0.26347919576941076 -0.41138961843186567
P 4.019043104164919 6.211835851905973 12.600391955954262 0.42504217621829377 -0.731658826607127 0.2290302700629217
P 2.217240338298427 8.391371489817281 1.4896415985949554 0.9218682671481091 0.4172193377397653 -0.6875029580255192
P 6.3271700000503905 7.7223522093485695 5.849109955991778 -0.7068942180679375 0.24410644766975378 -0.15772020966402514
P 4.6831259386997495 0.9809358815888617 12.591079490581006 0.45405784672435345 0.6217966169666452 0.7733204680119714
P 3.9558529863787517 6.209678976991534 8.134675398797356 -0.2302723700001389 -0.0031670848740719647 0.17289640318383126
P 4.832753495525607 1.0090384275451776 3.6884555469339717 0.1317546388381989 -0.24955615793041538 0.8702338308012691
P 0.1366646483442729 5.504200388345715 3.7164434807086417 0.6800814687504675 -0.6269197971258235 -0.5028249888257276
Ni 1.3610512430789152 1.015581248938347 2.8124746426146534 0.3569254259457143 0.6491035323117142 -1.3196451798925466
Ni 1.7538732149435647 6.536720776256446 4.65557298974046 0.8911181304494459 0.0930785624242397 -0.16199621133155973
Ni 6.050322921597628 5.635941225169832 9.143980953946999 -0.9083005557660034 0.08880796007334382 0.3560175694194643
Ni 8.529925885471526 2.3793218172243855 10.042706510345221 0.1609356312775293 0.2719124141384285 1.0483364607763879
Ni 2.2710087932784306 5.37136757719253 6.883946953904753 0.8020656584654638 -0.8415791431790538 0.8753572680707635
Ni 0.6557648780133356 9.277630489701677 8.925435377627053 0.10511569609443187 -0.6457194463308299 0.528914743934244
Ni 1.4067697716000123 1.19110032931869 11.481231978384244 -0.8354596605448774 -0.15675064666190422 -1.084392325958681
Ni 4.155097690817911 6.968880897711198 1.4964966704987508 0.20525579335114327 0.2616907364104203 0.5914755973856006
Ni 5.720519600475737 7.838236856948137 8.12914152558592 -1.379083942775154 0.5649847501839237 -1.119388896638524
Ni 5.5046155190823844 2.8931904971532822 4.679797673141405 -0.7777029133503832 -0.5394531815717226 0.10994268516943001
Ni 0.9472110215250361 7.313484532053499 6.8460789085973355 -1.4722319249847484 0.8384297989167948 0.5207607473685418
Ni 4.641324078433322 4.563053885408554 6.868546506032417 2.345040458491729 1.4731390101800501 1.0977366084760707
Ni 8.220852027439442 7.303250656936459 9.111422972236467 -0.5799331439636398 0.6040233521436242 0.6459035373171779
Ni 4.5963004426670855 0.11492172478211748 10.565243300547412 -0.5249932973926508 1.0317217350378425 -1.4328184561841324
Ni 8.020271684977953 7.112146124768525 4.625827969999928 0.8020314627934187 1.0040394386312257 1.2785473814109722
Ni 7.2003343325672144 6.046974801960571 6.976643842486928 -0.0034103112331296107 -0.03830686599999854 -0.14812665243831907
Ni 2.4357886219927436 4.9722103493030465 2.5049701592588076 0.25433326760408453 0.8318403186247351 1.0902107324126709
Ni 2.466409026112776 5.310361408064497 11.347377584635604 -1.1514955473650814 -0.8113769085640608 0.31791330634857506
Ni 1.073843945371865 3.3881165810763 3.9770454104857578 0.37600121163024275 0.3632613954660711 -1.2043797969586227
Ni 3.6322766263069126 2.6229764859060083 2.6179290376229742 0.22806507793617492 0.27471363103264945 -0.2200488924999178
Ni 0.8726391018891242 3.518332263672216 8.274552798060206 0.876332230389523 -0.0215710413025564 -1.335627414253416
Ni 3.7008273453448624 2.5978881500811664 7.016241900016512 0.1702761919521648 -1.2741950179795476 0.4323909032738811
Ni 4.074435983766675 6.785573603727676 5.694214751100827 0.09502822995144279 1.1447620852959897 1.0244018043376615
Ni 0.8345878575826984 7.323231079784013 11.393171017180928 0.09755022504234812 0.6154303084289853 -0.3823767761392834
P 0.047024385425361394 5.673023229451945 8.098616782026946 0.5865869018347317 -0.7573675442271408 -1.2893146472298054
P 8.501417233359772 1.7757397752685982 7.907292952535076 -0.19342203394100882 0.048703892963606436 -0.26470458353607956
P 1.662400059576443 3.4275630256411866 10.368913535846175 0.741995946867077 -1.2457678729871062 0.015718182066205188
P 3.9506367784266803 6.084598281116603 3.6603214149433443 -0.1504308750914635 0.0025837015667761953 -0.38654504858436006
P 6.8565068122108626 4.0073833452132295 10.513373617458614 -0.8427767630315808 -0.6968723150555611 -0.9854799304614835
P 6.271695899217548 7.770624694358311 10.206622686635637 1.503952396016481 -0.8767852587665417 0.598730222065485
P 2.438577217593419 8.48255585858498 5.817290185026019 0.5094939162054709 0.5169634851096386 -0.8483349738456487
P 7.093140356694023 4.019683849432388 1.6288322272260534 -0.4155128965716199 -0.07994382481449458 -0.7891126978492216
Ni 5.3142600271567035 2.9070703030880334 0.4733049922074939 0.965326338331744 -1.0815443149869244 -0.09847247974630137
Ni 1.5956813305285804 1.2894772893282596 6.817614476933619 -0.9304783774146234 -0.171158337446802 0.9928258293035934
Ni 6.912540437080088 0.7437644720642772 9.173950685760207 -0.7671130536496789 -0.23962630041121313 0.1997333208710173
Ni 2.7387167402058643 1.7077485802670298 9.237786963562582 0.12652295812561434 -0.1424743392485482 0.07558966161085692
Ni 6.430438283087682 2.0000186680452083 2.456879068331829 0.3424161765859458 -0.1882230062385726 0.8925510062412306
Ni 4.141082516164682 6.6417488526339685 10.373655953283569 0.5525053867699904 1.0262108325219421 -0.19085453032414873
Ni 8.263673665385081 6.951048325196851 0.3070036190974723 -0.3016191971742418 0.4177428143434031 -0.17038906338094525
Ni 7.382477455571815 3.9379572417957798 8.246669549427827 0.6909384660696295 -1.1395370894516248 -0.2405516404389599
Ni 3.136700772535194 8.358106883396285 12.399874785561396 -0.2615015032177497 -0.05019076192177808 0.2809634685971032
Ni 0.03964949764260565 4.914633521043158 10.136578399403797 -0.0011032603665077773 -0.029801142521832545 0.8789586122687767
Ni 8.625270586187158 2.530492577440907 5.684678476113019 -0.509126248453407 -0.6747726549430444 1.553758006684698
Ni 3.3818535217013217 2.5267112779047163 11.518228249144656 0.7516198431100862 0.335916427794215 -0.12473475587694001
Ni 1.1509228936740148 3.5516510175806033 12.667503254285714 -0.10535969378443791 -0.9887583441024391 -0.3942483307658888
Ni 3.0207800266106988 8.532579112353721 7.9997389577590035 0.8456965077815372 -0.4335684685217501 0.055828934044161914
Ni 5.625147826016411 7.6214844649189795 3.560796528201069 -0.469080802495747 1.2778842939056767 -0.22109353171434826
Ni 3.03406421018414 8.401524143703233 3.5304170803999306 0.9975031801746047 -0.34486540945738675 0.6070690809484836
Ni 3.4376615320397472 4.267128842231433 9.287886926271796 -0.47485781418884027 0.7720274602321606 -0.4998959881043907
Ni 7.2279856494619334 5.959770273516166 11.339069555153465 0.033924934882218996 1.0242166849100491 0.4686959083525025
Ni 0.502261263548353 -0.07617468526270758 0.20258740932747665 0.16567571706567596 0.10811488793207188 0.4443884419553895
Ni 4.475921553614004 0.4642515323155941 1.623363330999487 0.13567685671074053 -0.6121675785173134 -0.7125467883680244
Ni 5.968668510610876 5.652248643455979 0.4030062117849139 0.38509494640139486 -0.7117913982592385 0.09213291068151876
Ni 8.05658659985535 8.934371517962937 11.188745300656501 -0.13190042038744382 0.02638234664827069 0.39585115647663444
Ni 0.20727116698686263 4.900275412303113 5.861472729821437 -0.891947825439593 0.053399241556746746 0.3564027206730249
Ni 7.830349372951406 8.723187292553897 2.771463335664145 -0.05732454475308192 0.800786277532408 -0.5173226682212704
P 8.524917242887788 1.7513463321986167 3.614792402628118 -1.2488781364813137 -1.001992583404526 0.457644021413715
P 1.72471479298311 3.077878552065294 1.620417707685376 -0.07089739834151015 0.23808980916202865 0.5579283575577746
P 4.759085838929137 1.0322676996362363 8.249773102913498 -0.20475648511722155 -0.4721116189022707 -0.1691726744753409
P 8.495803943833494 1.7356616100174744 12.510654227558044 -0.03563111894004831 -0.9774848280711488 -2.0003390854160323
P 6.482546215121005 7.616448748591547 1.30926187876308 -0.9321087139291948 1.0702890537880791 0.84046765528243
P 1.8843235366515119 3.2947211899067708 6.026828326818349 -0.5032224813744623 0.5059943876926448 0.17755909876682324
P 6.694984857321286 3.960708211081545 6.1249137928541275 0.6162306928430935 0.20828198177197677 -0.040740158031839516
P 2.3890954386985954 8.547866752960658 10.199331727458336 -0.4851581676735839 -0.01326277854717716 0.33838211572588817
