# total energy = -340896.85929286585 ev
CRYSTAL
PRIMVEC
9.04096402590102 0.00000000000000 0.00000000000000

0.00000000000000 9.04096402590102 0.00000000000000

0.00000000000000 0.00000000000000 13.23236472656111

PRIMCOORD
 96 1
Ni 6.222533902703469 1.967603083592191 11.463210974973514 0.9024541242875554 0.38276758381979886 -0.07015332108663402
Ni 4.78842906550745 0.503346631358953 5.973882981298938 -0.926712739724604 -1.2195277083436546 0.06904080474874562
Ni 2.706566278514848 1.6519830293345295 4.788766293465737 0.5733683462619287 -0.3398605000436276 0.16619250880109443
Ni 3.5100909975696726 4.282578087112421 4.821741401569259 -0.2696390447232195 -0.060268200762438134 0.3490557933896505
Ni 5.234700090950372 4.520608588071909 2.761607667524319 -0.7464092454434241 -0.12548089001434518 -0.2719296405296091
Ni 7.1212599729852535 6.077254651719041 2.542095773185742 0.8681499516890469 -0.20078747316714454 0.47983367013687683
Ni 5.037254477517743 4.4667967701704026 11.499586389648398 0.25155981862400545 -0.5653112802854071 -0.34399380548571085
Ni 5.401659573676704 7.818544323733525 12.536937561389154 0.6853460595835165 -0.12189060155992555 -0.2272857765679892
Ni 1.8361203437162479 6.562890034544888 0.36817427406271336 0.13790111805556896 -0.8444772906624554 -0.06197592748216423
Ni 2.7453248913078183 1.5038468337168904 0.43868746481527077 -0.08394189023029414 -0.29352922107725576 0.20436850565018352
Ni 0.6271544968705497 0.19838949007727208 5.006214135716459 -0.9495179105445776 -0.39153427426883536 -0.633351154573464
Ni 8.756191744160803 2.2802305787562034 1.2639855375414997 -0.39187340277580895 0.20758264171210702 0.2742282067557987
Ni 6.8343630614482045 0.6689843251442226 4.688809395159443 1.045025394125284 -0.36534064659260307 0.5274363596165045
Ni 0.9205147935920385 7.236161584831733 2.5601189349778544 -0.6936574076626892 0.2437071553488061 0.015920527884998387
Ni 7.437919738106267 3.8370665026479474 3.855699025415625 1.3027219217746469 0.5575912859333301 0.2490347382093066
Ni 7.690244003195843 3.865979505613173 12.541860366303029 -0.5182693484052557 -0.5963329254779021 -0.4761677912495154
Ni 8.025464867468703 -0.44019007303691565 7.081022258477114 0.619100815302037 1.4766832758878827 0.6824980486117601
Ni 6.981115989569384 0.5496029156212981 0.2865036296017807 -0.43149435960154076 0.498706852892296 -0.34720305645162786
Ni 1.8627550237461268 6.297013364375615 9.121095901534174 0.000546102311457124 1.0510949973581318 0.48901687929804166
Ni 0.04106496271680677 4.854455225812339 1.250607623067565 0.1390912817089282 -0.7399544909570159 1.2907390383811577
Ni 6.423812884884458 2.0194349303713137 7.030818689319641 0.49394362717569773 -0.12893850954564245 -0.4109841554633309
Ni 3.4837365874246973 4.116513659824976 0.3623763038308188 -0.4356333214705788 -0.004738028905617646 0.30117233944481037
Ni 6.047934805372504 5.648514055528643 4.761137107392651 0.1304927414066398 -0.32482288898421474 0.7619356232137975
Ni 5.039442390812798 2.8666727105070833 9.24837730542577 0.9808326614974592 -0.8298636545143386 0.2597444113173269
P 0.2733860948918855 5.412933655821055 12.34621932929062 -0.10658251044794546 1.3859852978806777 0.6388384029402804
P 4.077664637391714 5.963519324232322 12.632951695282335 -0.7046028509305994 1.766297221071132 -0.06948637692659647
P 2.2731605448854073 8.522338168582785 1.372037715039495 0.5299141317330357 -0.371544975631102 -0.2579688074741428
P 6.523742660298663 7.804928631905622 5.879589342860504 -2.2328737690877865 1.1322675523734047 -1.7768395153633527
P 4.611199047644003 0.8595154092873566 12.671404723491122 0.8798245598134976 0.6939497420921273 -0.4354458880501211
P 4.001693416654758 6.163794759406075 8.139081758326641 -0.7947269587122054 0.3583840127691118 -0.19523903254508956
P 4.7116712808999575 0.9117269765557037 3.750105086037156 0.4980887596923228 0.7472641372445518 0.2837328038121243
P 0.031937205432975915 5.490306225982529 3.5801087434934327 0.6808741398550919 0.008327288918772756 0.11602848635219373
Ni 1.5395857645241242 1.1422173135148794 2.6127834545440622 -0.4189527754911043 0.10458064952656826 0.24151580412444212
Ni 1.874390744451644 6.625426382734525 4.697581842556928 0.4040275216398397 -0.5329526614490434 0.32379753304349396
Ni 5.8708042381133785 5.744203618813176 9.298991334350164 0.32846357106059565 -0.08200996331490391 -0.003083266911014045
Ni 8.502448047718653 2.501435845657441 10.042716405026978 0.02190554182383969 -0.07362431035436998 0.7895878377134272
Ni 2.2958895284546927 5.231698490892694 6.897885778813422 0.6066350787348584 -0.4018708803081531 -0.10799507452475596
Ni 0.30263722991180064 0.24386192275829 9.339587975130263 0.6707877021533674 -0.29151501886070436 -0.6127728162014802
Ni 1.522751489501845 1.0929531005200355 11.437513842913456 -0.7589554575395511 0.5253308832377276 0.06922746683825497
Ni 4.123457120199364 6.664429101556283 1.4862721037406235 0.29683437419108877 0.9628040861305226 0.6838543055293383
Ni 5.415826764310383 7.940434600774538 7.996754382097731 1.2493936426651515 0.044200091555981945 0.4258101647325699
Ni 5.364826686221942 2.74679856844457 4.830832090900571 -0.4746166447123117 0.14620989503158044 0.064564771255263
Ni 1.005924780775428 7.286863311107212 6.875298738379395 -0.6493303036105397 0.5917141957589681 0.24508680930515211
Ni 5.138811626457197 4.53477577870559 7.160297047470322 -1.3591805189830077 0.1502868933144315 0.34246554176664246
Ni 8.310924265725117 7.1611487062818675 9.227906754670967 -0.661161491917513 -0.3678934949214438 -0.16173318747816015
Ni 4.640907655443793 0.4454293116918087 10.380671256822254 -0.5810906546068508 -0.9516334142256836 0.30804078442986943
Ni 8.281577296486493 7.1390616311586514 4.815429904580509 0.21549392613938373 0.4822206823118147 -0.42455238106606885
Ni 7.013283739585104 6.261672235985664 7.099058077618867 1.1300227222032861 -1.49598891819503 0.7600769727385038
Ni 2.5470927140046533 5.004291122667459 2.5625138863491763 -0.668287561439333 0.32826662455844113 -0.06560683936653218
Ni 2.4267484418126246 5.123008021334241 11.426517318364802 -0.44900485768147835 0.41656216377174066 0.1612063684404127
Ni 1.0282378799993726 3.422122417566033 3.767942003970268 -0.059859395359793684 0.37333394921072477 -0.1948309984733935
Ni 3.765923156702559 2.6604754438942364 2.7052381608989657 -0.3904055599810308 -0.2668103170251727 -0.39767021196324415
Ni 1.0474499285613186 3.441687063725116 8.165308690878804 -0.4330856153480606 0.26887825529779497 0.5267892129508089
Ni 3.6683621138639904 2.6637301909447304 7.113746027780626 0.07795430518829155 0.1534740327931615 -0.1393841303589987
Ni 4.344156093114969 6.816706058699273 6.024536790465062 -0.873290872460038 0.6372224646034123 -0.20679177037969548
Ni 0.7237562934256252 7.363105760765043 11.413298524857778 0.3796508925676881 -0.34820424402263256 -0.14619035464755467
P 0.18756022336315503 5.523486563969514 7.95961138957677 -0.6351388426015061 0.5528087769430221 -0.10586645821752735
P 8.587297495132235 1.6876134685734134 7.899629113725368 -1.1182295862231 -0.14922039972313011 -0.08558611070193647
P 1.6274729758515012 3.269429576077702 10.44494075781628 1.2327840591329284 -0.6408855152772963 -0.6261219838148765
P 3.950250331328889 6.188720697234444 3.837438990365949 0.07314582805605467 0.007600952275709491 -0.4825287004705367
P 6.745662163358204 3.938442832306818 10.308236861213501 0.5371016506204105 0.0655667301572161 0.5951700155180524
P 6.273199465122832 7.785490559242948 10.185917138381102 0.008263011339740608 0.18205672952686067 0.19595945565088185
P 2.5027919902618136 8.605587365363206 5.764150697750693 0.4989577925608374 -0.0909175502171789 0.25254326558319734
P 6.962871324158558 3.883654590290163 1.5549355132528166 0.4511581565790552 0.3378717517483729 -0.5066281646219016
Ni 5.346880372624078 2.715444505191474 0.5961322369973239 0.18816772752060495 -0.057568542443087956 -0.4949903232726572
Ni 1.621912782973573 1.3103521215650007 7.116326318914545 -0.6650873093344805 -1.0840758231595267 -0.5851704811031793
Ni 6.6894725719170305 0.8557435190943948 9.10783642368902 1.035026116820727 -0.7976317910638263 0.5982406840235762
Ni 2.540302950018761 1.5124899953287585 9.339257075846795 0.9533848496991516 0.4033047845412023 -0.6405859817590064
Ni 6.573223856430206 2.033457465580527 2.674247544399842 -0.2978533023739064 -0.6972885766573733 -0.734516093550264
Ni 3.982183016279851 7.002199517685364 10.244324478298628 0.10948400036545661 0.25256871950449405 0.7085548935998119
Ni 8.289144583378892 6.996250563354183 0.5182126885120859 -0.18203436092935746 0.6498661215093517 -0.7189256953111748
Ni 7.363684382462909 4.031673253375423 8.209121202564072 1.3920908965577832 -0.2550575473646188 0.12132958685013298
Ni 3.009863498800777 8.324404343092581 12.413347583110662 -0.0895947176406973 -0.1849404788325589 -0.37296448168644797
Ni 0.04365248662194978 4.975061685961213 10.223430810427258 -0.4308580115691224 -0.8699073006997856 -0.2737201567711286
Ni 8.770322770938366 2.496535643153641 5.692748780234069 -0.4616395157263533 -0.784560816812481 0.800030630313306
Ni 3.6386083012440538 2.50017011069336 11.592345776491086 -0.5192430251724347 0.5335049344080877 -0.6771000175246403
Ni 1.0906114908364855 3.3612857706138763 12.643723099826667 0.16124184966403846 -0.5584101822901996 -0.2012973229240275
Ni 3.080057543523105 8.337694560215432 7.959717168855912 -0.7734107137329325 0.0630575905821172 0.1277408896931155
Ni 5.559451518877475 7.739833690895735 3.670631395835307 0.09153307231399074 0.8796623232040205 -0.4197778424955609
Ni 3.1382180651226337 8.410600894146507 3.443735746174122 -0.14364599095914615 -0.27003345194816075 0.18215237456446048
Ni 3.4701570594529128 4.450007699968269 9.328869912273703 -0.8748803284343447 -0.1613611488507221 -0.05139506664252439
Ni 7.169412147404512 6.147285959088845 11.441113050693462 0.43284547431279646 -0.02485382581888623 -0.06480902605558515
Ni 0.5237086905454068 9.065826680231169 0.13163372397522985 0.010360260188401513 -0.6563941524358566 0.6501080623168288
Ni 4.92931440797371 0.45993282618737275 1.6446770263025725 -0.6737516698776977 -1.0595284728374654 -0.1860041442103829
Ni 6.0733670371865065 5.55993973093505 0.363918692294192 -0.08552774666017529 -0.09067252408590835 0.07806640528612362
Ni 7.94915009009864 8.831258868494846 11.227833092860179 -0.8907484058148529 0.033805121474903076 0.21276212903051747
Ni -0.2162905988549911 4.913140123325558 5.811786633123886 0.33893413157461627 0.11770433139271987 0.22634886657601663
Ni 8.053772125843976 8.97358172424174 2.385967365366333 0.8626914996776368 -0.6451828571010696 0.459419368146583
P 8.621734527119271 1.654894219751916 3.581604118943854 -0.499688757189591 0.07577683792099853 0.5946447391422016
P 1.7965118803045372 3.1527740172095666 1.5706812562059862 0.36021695221279254 0.37103795408769646 0.3010980345634492
P 4.638954807213496 0.9579353437086944 8.172321766676218 -0.2738865071456638 0.9956126480201111 -0.045776177793850195
P 8.490839449905222 1.5991295536201127 12.303214175693155 -0.2483981330665722 1.1114657851367051 -0.16033810690284644
P 6.438043362266341 7.840468661504215 1.4753560437718267 -0.7556891280834533 -1.054632835308061 -0.4068300240856413
P 1.8098292203194768 3.2817885739055517 6.026548404961548 0.26059236113991896 0.1703839211746227 -0.8642290193680858
P 6.7665919950856885 3.946055324019363 6.059047054260734 1.4093113742011276 0.09104199161018514 -1.35343898851354
P 2.2408300575171634 8.438058301903038 10.169468912522868 0.1747663665130345 -0.12056056989459236 -0.10777395965288537
