# total energy = -340860.3315574384 ev
CRYSTAL
PRIMVEC
9.34222406312561 0.00000000000000 0.00000000000000
0.00000000000000 9.34222406312561 0.00000000000000
0.00000000000000 0.00000000000000 13.67328924286841
PRIMCOORD
 96 1
Ni 6.702457220647355 0.9946105449523791 10.170835452548221 0.5393585649753873 -2.813056310058071 -0.41067073798797016
Ni 6.529336466133975 4.644449334807028 4.142952206384039 -0.27848106849488163 1.4851990266683774 -0.32288222031807623
Ni 3.223889424937318 2.7627011907725376 9.19445252100748 -0.4089745812324699 0.45440545987175934 0.12938511016475782
Ni 3.0338031914861414 1.6954735380098676 1.7560055447442044 2.9590057523394138 -1.0244673674682745 0.7792270633043935
Ni 1.1914792330890402 8.806045817796882 2.7144626167112436 1.1505601800350056 -0.6650127473428031 0.06346665309507779
Ni 2.609675560265324 5.540041646685784 9.519494655141264 -1.3125013697589136 -1.2825274491046428 0.9958085660810012
Ni 7.829316289742599 2.7759764911968814 11.142295031996332 2.714034128455887 0.3054216016394676 -0.3934672296254901
Ni 3.321170004331189 5.791571687941963 12.961020532355507 0.27184942211097696 -1.2178063547771736 2.756888504617252
Ni 8.992852930594331 9.092384985992615 0.5899380953879279 0.25756103051276286 1.8252251057555922 0.3838824141505324
Ni 9.295503622041933 4.595290551673393 10.421398573611636 0.29385163741368103 -0.12182863797373857 2.846512018613356
Ni 1.1379669735319389 7.169157367022102 0.31389125546629826 -0.4125502143988702 -0.16073379967936835 0.6099494878200721
Ni 7.905548838273664 2.8739951062934432 3.8010510946670246 0.7552258152937896 0.6159913231387779 0.3833113721384108
Ni 4.105645902946648 8.320025952014998 2.1520523188112617 0.07531686756544449 0.4591167493044996 0.44243028978775417
Ni 1.6502104623195468 8.01305915304027 9.726180152346117 0.016092534686488413 0.02072077748711915 0.11428450707789352
Ni 7.750225020641617 7.3069645144953554 10.495370303914205 0.04928599071932157 -1.0484295347108266 -0.40984875630730705
Ni 4.840234324949865 8.492801044237245 9.514434906576996 0.019729617218443442 0.831416086603123 0.32424284811102866
Ni 2.461068801750169 6.394406723678805 2.32503387418578 0.3895887205066903 -0.10834860120943277 -0.8996763044321022
Ni 3.724156182448354 6.7781572624055935 8.136865109277801 -0.9002859129916431 2.215656633878552 -0.3662047943651113
Ni 6.6865847819274675 4.857489412834287 1.5167231592630532 0.7221997380767562 0.6621544519584015 0.717764585123538
Ni 4.785713105191618 0.34363035739509024 12.014254319608048 0.8973882797288738 0.8921036342911669 -0.8675994785022155
Ni 5.689479863144476 2.8614391571236206 10.761890877936677 -1.543748444967496 1.248522552914108 0.42289556218893626
Ni 7.6262256803655335 1.8514793380000967 1.5349087326663096 -0.3976151903555926 1.1222240520944735 -1.5528252104577838
Ni 7.845468995185026 4.066315139550105 8.721110987530928 -2.505175191134518 -0.38335868043657845 0.03762809476541906
Ni 7.97923095962961 3.6674301978061195 13.347290668917937 0.17837079603484118 1.17605035388631 0.7608058804847284
P 8.830102044814957 3.819568317025287 1.9480882114822788 0.08951578477364583 0.028661372490434513 -0.33822065044735944
P 9.112069052139054 7.8150787402375315 4.222407822224323 -0.5407999254076041 0.3695878519047312 -2.0005308897118645
P 1.5192605073244547 3.843503095130262 12.066841698980765 0.33593596817824084 0.8612336841851876 0.23579407114931653
P 3.178645033695167 0.6511221893633762 10.732560965422797 -1.669378716075512 -0.48252073005073676 -1.9785831817961799
P 4.137745784901641 3.6052763809706803 2.4943775675017212 -0.9994649318866656 0.8893273570976103 0.7678836132671163
P 6.626962707818979 8.469025083941709 6.839270355477998 0.8057870731811091 1.5396755604497032 -0.8991793101910256
P 5.955948120712074 2.4153572993037833 8.57486127215234 0.3035668078189159 -1.1526075494823376 -0.5652277194326653
P 4.353214841190919 2.4877688781842116 12.506629700434747 0.5239484010679042 0.10345193523876377 1.223659728234157
Ni 3.652856328234004 3.9638496257892317 11.116466585069391 -0.9832420422699003 1.4957873437071851 1.1318330359391475
Ni 8.747357966096862 8.130836572075951 8.372073350835619 0.018087710739646268 -0.3503320889989128 0.4921168583796041
Ni 5.482848550839315 2.8417831176494337 1.0428874221324205 -0.9986352368965187 -0.2479487042339794 -1.2693189208341689
Ni 4.134494690920169 8.134125034953762 13.502633170998154 -2.093721038013304 -0.1810102905402173 0.8169490033351995
Ni 5.0087680474376635 4.323338408568082 8.87698693060638 -0.05644008526559957 1.4464892688030055 -0.5649019606621304
Ni 5.648065783777048 4.740010944969317 12.99910037194711 -0.07003453612058261 -0.2634673686948688 -0.7630972476220664
Ni 6.999446524299633 6.693787636696763 5.4538652348389745 -0.6976310475984566 0.6242021410843444 0.7343356021083418
Ni 3.2031029763488834 2.6497069904682187 4.586363122338063 -0.2772986181510063 2.4444927856527965 -0.3561522952251157
Ni 9.631552764592296 2.0278698709431184 5.24832789697413 1.039393135540171 -0.12283419642011749 -0.5704318893414241
Ni 1.1997471014039904 1.8860268826652784 10.812372520000705 -0.15618757506958264 0.3352541116198678 -0.6400373083443881
Ni 3.018706157365283 3.628491807821134 0.3079346533899002 0.6120901883121588 -0.38097063982037616 -0.9780072762335221
Ni 3.426952007642128 7.793507544825983 4.5346641884758006 -0.09939602000183527 -1.798866413256405 0.7547869279841581
Ni 1.8474341549714264 2.645390882941092 7.149051966569441 0.2872529011502407 -1.1934011864599319 -1.3317432487076613
Ni 1.3489984733809892 6.167792394056492 11.701765331976862 -1.2607589470792995 -0.8350601111136134 -0.02553671081852376
Ni 8.062535571792786 0.15977912429803545 5.2370751880641215 0.7079265159871937 -1.5651461939169817 0.7825954655559941
Ni 3.8621688588514713 5.122304096738895 4.31820205376632 -0.6785184951387218 0.7112234415709106 -1.2669529917051536
Ni 0.9093702239588556 1.8045813730949556 1.6341633240092759 -2.3325929767569953 0.6173282967826466 -1.059579380680059
Ni 6.834079815776545 1.490458430471357 12.88748508391769 -0.7083414920374252 -0.8281713544135801 -0.5369882649709978
Ni 8.287234745477736 6.520330562116333 12.818613273742951 -0.04810328326513006 -0.28294244670034496 -0.024535780357835164
Ni 8.666734572245993 4.896577278404627 5.632561428686097 0.5765410875629554 0.8308504439076401 -0.777800615270512
Ni 1.3916083574312579 4.322170630557496 4.706591940973565 0.21678153460255567 -1.3988688387115649 1.153652445807084
Ni 9.267121945272645 7.239691158861508 6.166024845259669 -1.002498319396351 1.5344011994246414 0.5816843223267918
Ni 9.302351472296008 5.688134582876281 3.174828735156571 -1.834766983807756 -0.8252395254787659 -1.6749024741072185
Ni 2.2624624599337557 0.5872466006291288 5.6407788489909905 -2.6859471404116837 -0.33374770227767037 2.8324714813598897
P 6.834247975810069 4.778015112545834 6.825993186608837 -0.6501684832411189 0.7693637973570685 -0.33628075311216926
P 5.825455934697131 0.6663042377234051 1.0145814173782197 -1.3152388232947347 0.39011399688254106 1.4814048497332681
P 5.847316739055304 2.2824174505786523 4.027043232165297 -0.8488808190467896 0.2632416258373079 -4.10029864813988
P 4.860740506815759 6.369444300924515 9.880072741248389 0.5239396593171557 -0.30497088725529414 1.3176026955412212
P 0.1019460861017653 6.242502160061754 9.155743949734978 0.9137988598764134 1.109735689819476 -0.5645324931378535
P 8.225613435415125 7.2921944582174625 1.196368018952558 0.9018141767107114 -2.4569017008401106 1.2338132717283912
P 7.633718144081454 8.884679317917712 11.866254805658398 -0.4799861365543411 0.5501065475205106 0.39153273160693863
P 1.8212759275342958 1.4685882838890991 3.7058444890199542 -2.0653903093894104 -1.0260694218480717 -1.4418908507990458
Ni 6.747271869581611 6.98645149059783 8.236912855445558 -1.3880185262606224 -2.252419038209566 0.4679281769485425
Ni 0.4757583668472618 8.419632745205956 12.140800350169618 0.04185884501731501 0.8005114266044665 -1.5327407810030829
Ni 2.175336878119942 1.412095854848982 12.97651180833274 0.09448624140504372 -0.6535811084670937 0.16683374192951914
Ni 8.088675114781747 2.954216784508672 6.618022199369932 -0.4289733929518999 -0.41597003871369653 0.5877729517230329
Ni 8.686082318325385 0.8682429508708271 3.0901909876165097 1.3889703486509304 -2.260144431878282 2.1133426688989734
Ni 0.7622993270832231 4.127730920682854 8.384323809277873 0.7154379938728904 0.10110528938345814 -0.367280029707161
Ni 7.735296146554283 0.9402388007794864 7.7363742392136565 -1.4710466464273955 -0.10349230155839596 0.7799891382813986
Ni 1.3649082809972155 6.071987886068001 7.21230442895724 2.1109163188456677 -0.9457419884419132 0.3462239803678102
Ni 1.5723149979014062 6.470854143363819 4.400255742124556 0.4643394311560196 1.6485607508888964 1.7455144799978262
Ni 3.0601856323013044 0.7051865743638827 8.36820380161974 -0.9398269085090588 -2.4415144197507628 0.4457956067155613
Ni 6.488538973556136 8.158582977607479 0.28304790265069596 1.0334268906544073 0.7641022918478131 -0.6457428433695976
Ni 4.822409361396278 5.867972396506554 6.556178544374105 1.2442583783211152 -1.5838568829526078 -1.694527704537314
Ni 5.036075368437211 3.4940758876906215 5.482920485964767 1.238981446192892 2.604133609378302 2.2314334370968347
Ni 6.372088150340481 1.5382812755608826 5.71350712926789 0.1091736682138894 -1.858629649357967 3.1444632800177073
Ni 7.084021678938327 6.974904501629155 3.1126833263228084 3.7333590324912738 -0.5562933930575128 -1.9038512401999277
Ni 1.8968825470516877 3.9700341781332957 2.428416794351771 0.24008344255328976 -0.12601542236157653 0.9014660493426733
Ni 3.333800691293689 7.114851018417802 11.345356680478734 0.21053503947221158 2.5868249428965258 -2.6744846482980393
Ni 3.9207352616383897 0.5299768985451656 4.497841812245997 5.260840107757314 0.8643308350532727 -2.96036149503636
Ni 0.9585308755373084 4.94327905660399 14.209145406959655 -0.5154259654191897 -1.000071455122413 -0.9096503849256785
Ni 6.220024768913991 0.1732459403161153 3.1922893519708557 -0.07410690641774334 0.11658204486281856 0.03406737399735423
Ni 4.252272109955849 1.8713969597486546 6.747713756780817 -0.2848538047904449 -0.1780419519405127 1.5006881234429121
Ni 4.49984104820012 8.798656118545892 6.7494504762381595 0.16386720310202746 -0.3094698035669122 -0.009334390027048441
Ni 5.525934888317903 7.220362097230285 12.00033533994427 2.201493969224925 -1.2773639026258323 -1.8280844295812582
Ni 0.5495432526681391 0.3960374318429727 7.240334838100942 1.3265496203218639 0.34080512334508406 0.10093765345734228
P 5.2859985471508235 7.3021626113158264 3.705721171662036 -2.9141981091064197 0.2708495200915529 1.8297361062520683
P 2.445728869803109 8.045691541768091 6.780337737506961 -1.0881908737691648 0.021392606743163158 -0.02889431443684701
P 5.2418098272302425 6.461521261503214 0.7754643892633675 -0.9892630516529994 -1.1713526913003247 -0.5491079310526673
P 2.2445627585874908 8.866602114313839 0.7316054498529759 0.7591462333941185 1.44288278239867 0.10170255664782485
P 7.338737418607385 5.033412834573074 11.453390159794083 -0.3912967043367325 -0.49976563317411354 0.5934864571680425
P 0.040864756591248656 2.0295234446061086 8.789382092697021 0.27666406989080095 0.1782350417879253 -0.2744495787379854
P 3.2041679898945383 4.343302741437063 7.123660735729664 0.07094804907378749 0.46227303554529414 0.42348922990887716
P 8.999317749660937 1.726499064195121 13.23310533504282 0.966818092385922 0.05904461276798219 -0.5490536807759641
