# total energy = -381168.5165173468 ev
CRYSTAL
PRIMVEC
9.26041669406953 0.00000000000000 0.00000000000000
0.00000000000000 9.26041669406953 0.00000000000000
0.00000000000000 0.00000000000000 13.55355588903258
PRIMCOORD
 96 1
Ni 5.264259686499142 5.195297365096639 10.985156991097165 0.17260689696787046 2.521252556312355 -1.0442471211983628
Ni 1.6927300461670753 0.41811150748644316 6.617902915111342 0.010659022375742934 -0.21375303218887703 -0.6255373149560001
Ni 2.805517250900941 0.2789561553334604 8.90101321810746 0.29549277256152984 0.8044593555086211 0.5017723791914971
Ni 7.665865352518527 7.645214623805275 1.8711356734999298 -1.2133776295818586 2.2257494993381797 -1.5392860383207685
Ni 2.2581432941693027 8.884100919520458 11.773079525880556 0.1098048740399851 -0.1275370012124255 0.3442694277446006
Ni 7.594958343658723 4.535705681662232 4.811945756846994 -1.8932094442153653 -1.1877082498402125 -0.6954394392637765
Ni 9.08315357139998 4.023169411665683 12.387461856140932 -1.7563362532036781 0.16029799769353037 0.038252615723295406
Ni 8.654609278725935 1.5340528100677229 7.029659924820641 0.4018006891918499 -0.5781966208885074 -0.6853476022454132
Ni 7.476425012927955 1.2275978480463705 9.106267570892479 1.0492754276508895 -0.26377332997106184 -1.1786911339432669
Ni 2.811027198696629 4.585489680569154 5.50789383531648 0.48052863932137235 0.7718665091742641 -0.8347297243573882
Ni 9.063234415587333 3.695859991768886 6.679504131467135 -0.8899593342546543 1.823743379003743 -0.6452301653992372
Ni 5.665615396436815 0.4028086692807717 4.333898055884867 -0.3014772722797388 1.0429332874829456 -1.118401335914274
Ni 2.442601529702597 2.213572909731241 11.61274097106768 -1.8772536922170573 -0.6088945641929965 -0.05903252858312413
Ni 0.8450481918624505 2.2394002112474998 2.5655252238786352 0.8708506384496614 0.28675153603379006 0.29874007585423384
Ni 4.320280613475524 4.908715256805617 -0.016980825668828865 -0.865311196688671 1.465992886053572 0.8234469523547172
Ni 6.339820017050375 2.206238659892275 10.688266187199153 -0.8430066196541999 1.9013117616075255 0.6054996795788347
Ni 8.54957763519872 6.034031805014384 3.083691827084895 -1.6322807827819503 -2.2166069136069635 -0.6771735510750532
Ni 5.634944897110229 3.247452105780976 3.725465543202188 -0.10760298129265984 -0.4222376168899631 -0.341186932164535
Ni 5.201501844127078 5.073791440681139 5.188856745446385 0.005643314328706409 0.5667418420843465 -0.9964006911390453
Ni 0.8976353188328265 6.652284989356437 12.622412512440594 2.217936173941348 1.0803533800026168 -2.2476894939443803
Ni 1.4921031234887867 6.098613949429726 2.864448689190352 2.0667208552753764 -0.09416845305430878 -0.36483953858646845
Ni 4.68966010536528 7.694526341472568 12.166498132867499 0.23080613101642183 0.22382172927878868 0.16722789204414426
Ni 5.742550936414254 3.3026256670695626 1.2536372130996398 -0.10866638956016768 -2.020421457988204 0.3056195765828866
Ni 1.9992405706872076 7.1121480105095 5.159174332556438 0.12712202516219398 0.14449239811984146 0.8178082660117012
P 8.275219276639309 6.7024579257548185 10.213295722627793 1.5603138055253452 0.2929113849875988 -0.06817125765959872
Ni 6.632050979384036 8.519166427533106 10.024968485096116 -0.7411194577993946 -1.1692747257253733 -1.6949367670502744
P 2.608538932309209 4.60421424265803 1.522579154069643 -0.09227175025222818 -0.33710813410947105 -0.44178854243869725
Ni 4.198820991142339 1.4795923008468128 2.5387709546743955 -0.8382572778946726 -0.1359175119666369 0.4982697653548774
P 5.697397145739002 2.088529506226744 12.943618391846401 -0.700173354404336 0.7646231973482897 0.04019739815449206
P 3.1187971398557752 6.38908543263535 11.632718467504047 -1.5297253912155266 -0.5787548073848225 -0.1809403565342303
P 0.2514786476034342 7.944251992239491 6.350653778270838 1.2438516298009998 0.42951306750545376 -0.207886546105771
Ni 4.345570810836908 3.494742267018041 11.747016083744482 -0.41072910202973134 -2.792355330065294 0.40149755612913435
Ni 0.5598282908331861 4.182272626922349 4.137642975818922 0.41533729022570404 -0.7618646607665459 -0.6509359575347629
Ni 7.63109248869868 2.0856865583724984 4.741738835471819 -0.9760144141732094 0.6100677585654912 0.24875371663377802
Ni 9.045732228471618 3.333944395548583 9.250233709398168 -3.910132659242324 0.45195545566937 0.7791980098386709
Ni 3.9753208397995987 0.3910673872469013 -0.12084473068001808 0.9141511010095096 -1.2201859107529438 1.220382600144782
Ni 3.679246804633652 8.203284361552074 2.967184675476306 1.5716454284880803 -1.120109319744316 -1.8733193901596579
Ni 4.350210279485043 7.262768684285745 9.871054807225505 -0.07084880449176185 0.692981207531271 -1.4366077480232355
Ni 6.593351698983732 4.47893932874195 12.917893880952887 0.7004098958951743 -0.2501608813939498 -0.42867951586056496
Ni 6.410541817580913 0.2801146334330244 12.001158027122774 1.6285611678385177 -0.3461432477285458 1.4649724152088575
Ni 6.436563587842901 0.8441814168814817 6.6502551060676725 -0.01107708374976802 -1.1758973732482136 -0.021403919597072815
Ni 3.444069268130637 2.5305847465208022 0.5227431010224434 0.3122034004479914 3.2894567861436834 -1.0650473457731657
Ni 1.5214493832611153 3.1632471388798136 8.125275539306534 2.9959242226323175 -0.07932418895262468 -1.537013697346824
Ni 2.4225712488923894 0.07960809616875945 4.220238482338756 -0.8583489064382249 1.9915574825686606 0.6605994487664558
Ni 0.3426400393518582 1.0359905710033765 4.43841019004849 0.6966645699201293 -0.6020271476492018 1.642483177236249
Ni 2.90961359236536 5.276779769557579 9.558075881805728 1.4933188275620346 -0.14102063752115712 0.3017629218409577
Ni 2.1313311511203072 5.476989973495017 7.362996023751781 -1.2049575238389636 -0.8322185278997603 0.4852640971238288
Ni 6.597796698886136 6.162418218862147 9.033350125618483 -0.9551599393217034 0.29794766185992555 0.07452445357113617
Ni 1.7536358052464707 7.68108947718426 9.810321291892327 -0.649028970320037 -1.4993025559492952 0.2639574209574099
Ni 6.244308081647474 5.370550746665373 2.0217841285255655 1.3943922909974502 0.08025904206206824 -0.09561264170000308
Ni 7.703407080860913 8.563125624484588 4.718033095367311 0.09625387482842779 -0.10432791008581387 2.2107036607486505
Ni 5.657781084108828 2.9488777581699273 6.222681305038987 0.6111491645551281 0.6260782750611346 -0.4375246249560207
Ni 0.28120180632582065 4.08582538945665 1.4149101439336667 0.911779001232907 0.7170953269706554 -1.2211392758051485
Ni 2.918901790078091 7.456311388369578 7.647011144599164 0.1253201960667648 1.823373397258834 0.1760873993173032
Ni 3.4474307993068303 2.5568658084437645 9.552925238168818 -1.2951111993069246 1.2925899755469674 0.7892078286661891
Ni 7.834553098814751 2.2949071475287672 -0.020664619337946017 -0.8706827454132295 -0.14146852369185314 0.8515282839719657
P 6.954193086894288 3.665541388267907 7.82452221570166 2.180023972276607 0.04306649217217099 -0.06941052938333853
Ni 8.908918835642213 8.769179151210395 10.894754953498735 0.352997808756534 -0.6687506171186806 -0.3112063266420447
P 6.454954774939098 8.041967906760668 0.01472869238494427 -0.4551572504361194 1.536572238934031 2.4529645705692333
Ni 2.879332030530234 7.373717733933037 0.35035026209923614 -1.7255778889748992 -0.13565268834102442 -0.10425900452109142
P 8.000490501421362 0.6240520571313967 3.1205705096085055 -1.167814082019447 0.21115081867933955 -1.6913593341116613
P 4.052237858944111 6.93704279560418 4.656175365475484 1.0208850494336548 -0.1152756673465692 0.5704126060677145
P 0.42913510724440457 7.30363490213847 1.3112471899597322 2.151163596401489 0.4151087191546657 -0.36170047873685446
Ni 9.105360050079073 6.054682533727634 5.255296529404274 0.7528976813812452 1.6456235226374434 2.351782662311569
Ni 6.226129884129935 7.204002081409382 3.5144502853353234 -2.032370145709648 -0.5801874260662911 0.769562543631436
Ni 4.360637508422765 0.8836817233058639 11.27696475239845 -0.6729011489519443 0.3467806242022286 -2.237787147229004
Ni 9.046398978456978 5.846100913307336 8.14681156383368 0.07662992994991319 0.4635200205785178 0.2866566623271386
Ni 4.98931792170254 1.5107258209965662 8.452471982122477 2.0279329358739013 -1.8374512155081386 0.27600149660613754
Ni 6.955119128540622 6.829955339622101 12.09100536577505 0.9781155196766124 -1.8401159068244954 -2.4226139833018343
Ni 0.8685613153045203 1.7647297841695533 13.445357942288343 1.2168313924584142 1.3661199264153183 -0.7794412361977285
Ni 4.93491297498041 7.107490021028439 1.148515743532729 1.1008607559273493 0.5290337860106115 0.36261759123448517
Ni 6.019020669927308 0.42494199066980365 1.7718158548473024 1.6832025093324816 -0.7414133348907296 -0.673796407072704
Ni 5.917211651329334 7.677829810589164 5.843615417528576 -1.102697809136088 0.2528715954568935 -1.381122056251105
Ni 3.005755236087769 3.4084444459961634 3.4708485404593277 -0.7136060828704742 0.2674839460534296 -0.7374042137313365
Ni 8.430146044071007 8.900214044166674 13.270124007594182 0.15979843234929253 -0.23337492018486258 -0.8028027937418045
Ni 0.3680367315025716 9.58666093534477 1.4827186174448368 -0.5701248996239665 -2.0686018743481727 1.703319591797331
Ni 3.578771286006399 2.639153869137015 7.114965955239294 -1.3897573633286 -0.0999835170741891 -1.546977236317439
Ni 1.870113323522377 4.198283886987466 12.945746435549678 2.3931967064819815 0.705303990762682 0.4558956712640407
Ni 7.5257737722611004 4.591314482524596 10.600588564124237 0.4118583305381681 0.14887715745109845 0.36938087810024767
Ni 0.2410338238744316 8.130627133980697 3.5501371522601017 2.1902523348728344 -0.5538367039869042 -0.8872956713795623
Ni 8.916595720890323 1.900015208282506 11.387819345797816 -0.326846861392779 -0.32563304359033596 -0.9334654850674053
Ni 4.835715393825098 6.20932222824897 7.12881768618516 -2.2014307200871572 -0.47101761450714363 2.1505449889808834
Ni 0.8538113239617102 5.142550032921448 10.431047007430092 -1.1984374633322588 0.4890004242378094 0.5598075768583584
Ni 8.536094468828095 5.94771546315958 13.753877051139375 -3.0425365231742183 -1.3771461023224927 1.3387980986719137
Ni 4.0166222972261005 9.074809936166508 5.956299869221097 -0.5889034657830503 0.5833848499576663 0.9324681541511425
Ni 4.064480129508648 5.514374274757525 2.8936430781326816 0.0032023089873815815 0.37817353669121323 0.03269157669575015
Ni 6.984974711218435 5.875252704333935 6.779718506350122 1.718979409821775 -2.538454779123254 -1.0679786604873478
Ni 5.050695962021566 4.087649691499928 8.524549507623247 -0.6128928867191121 0.18941908342920283 0.7855753741199245
P 5.29795834200924 8.448342762421474 7.847007432916299 -0.3453024969948053 0.17247988447170293 1.0861897841787358
Ni 1.6221008498011713 2.6162899008890257 5.442944978409189 0.7526328577556328 -0.6796657213692875 0.8340995469725571
P 7.788417703994385 3.8114299892313848 2.47355076756473 -1.488906814537268 0.11007021188622979 1.2281023373865432
Ni 7.64952071746073 8.055821489789828 7.2308897006106925 0.4909477777721674 0.7014113405764952 1.9746398808777157
P 2.445481519222696 0.939098833547437 1.2607695858597052 -1.181676956044468 -1.5124612048184403 1.365427528333984
P 1.103165632028454 1.7301791703448273 9.767247390754742 1.0599007685752198 -1.3221738598516712 0.1338392892813695
P 3.872993237879678 1.8784847400052376 4.72982530969173 0.21476861793758498 -0.4400119101542486 1.130154876905776
Ni 0.3565954869621135 9.20410387082768 8.436980231420954 -0.2285402178003806 -0.37366382174631774 1.2599001986234302
