# total energy = -340887.40087815194 ev
CRYSTAL
PRIMVEC
9.14758151322089 0.00000000000000 0.00000000000000

0.00000000000000 9.14758151322089 0.00000000000000

0.00000000000000 0.00000000000000 13.38841019631158

PRIMCOORD
 96 1
Ni 6.77462574840847 2.407670918479209 11.44107971781465 -0.2580685662768007 0.468083214469168 0.9994266224495626
Ni 4.960285267327005 0.3819115315802137 5.740388281451583 -0.13114811560245154 0.760834676840135 -0.35217814106871603
Ni 2.9373616307223775 1.9053680655306795 4.927322871808534 0.5734994725231543 -0.13487055875936127 0.10029847721144662
Ni 3.560906530127533 4.712660233557511 4.864424100763132 -0.12244544562213105 -0.6826381737340501 0.43370550832024657
Ni 4.162387462726187 3.353594888446039 2.6571446784889994 -0.12960828191915744 -0.629863967355812 0.4509031031454556
Ni 5.412806981236983 5.511564272133749 2.4754233963187784 -0.042547900664539624 -1.319927487019656 1.0020594320867193
Ni 5.33710159595895 3.401811791031891 0.37380128573832105 0.6119024977813848 -0.6141727818728003 -0.6173005288685046
Ni 6.154053813021603 8.109550625691433 12.38877831861086 -1.8259614697009845 0.06722689146845842 -0.36317037841416167
Ni 2.4426421229158835 5.781792980023835 11.5225608861116 -0.08573497757497492 -0.8386254598673686 0.40410182652120086
Ni 0.46921056177141396 0.32510504987690525 0.4723308018533783 0.390755744231598 0.4299038751859693 -0.013569254044002435
Ni 8.082171913978389 0.10305299521365402 7.061837856287342 -0.3491910334159341 0.41673339924228225 -0.2395604801702842
Ni 9.276013640325745 2.607691937629699 1.5905430678499382 -0.15641897435409835 0.991463658848744 -1.538749706201324
Ni 0.5636867844818438 0.33723016928072735 5.05586560313592 1.3367620420784914 2.384110685020313 -0.5380822693661249
Ni 2.063044929479138 6.937791161313769 0.24923317861384878 -0.6219369991992514 0.22860706648257403 0.5506994439095032
Ni 7.665563605409344 4.094356898406138 3.9276907060245327 1.060990659205289 -0.4693137444421595 -1.051527199799544
Ni 8.081293746145295 4.194641835429225 12.827381987124449 -1.5830426145814285 -0.11384099178257168 -0.6212214611894656
Ni 8.313733794467527 7.659599382209576 9.06335157816949 -0.740246568276138 0.42661594846331685 0.48760225833870213
Ni 7.224677615287869 1.1873377958334987 0.34475405514239743 -0.9989044313975055 -0.15855221864701724 -0.43600767409086205
Ni 2.2003318340529305 6.862277875249227 9.317864740879822 -0.9483424021792376 0.3109587294076129 0.29801142521832547
Ni 0.003918823955184755 5.178885024696402 1.3149721723085266 0.13402877958435627 0.5219856209145785 0.48038388621339206
Ni 6.130608561394295 2.3938214799447795 6.8827940712499 0.6173843468315625 -0.055742544977942704 1.1665912653559394
Ni 3.6950283714695473 4.933711542794297 0.8194120017534765 -0.45625896814073036 0.06300205475383343 -1.4991783716666052
Ni 6.32217721515125 5.82281073589463 4.7970274638475985 -0.30870387193516513 1.5026380480804313 0.279323361890519
Ni 5.1140744090977 3.1181910236871118 9.773406071474222 0.9609485209790224 -0.2842853338814846 -0.15928678282019665
P 0.3242213934948538 5.983451416279783 12.47936407486905 0.31075895469198095 0.10673189154161618 0.018928975694019013
P 4.264986737892742 6.5491378620982355 12.809374972755212 -0.44183276541307137 0.5299897221659776 -0.797673185824723
P 2.3474798315858485 8.814618772268874 1.4798079336130252 1.0696298229375254 -0.7663707761670157 -1.594708223844815
P 6.496923466355485 7.940878368666103 5.654689163281302 0.07481318845614858 1.7402020666459772 -0.3682665619901464
P 4.7116357044189 1.5767869346477745 12.948132808449436 0.45574706150131833 -0.532911780908779 -1.2812267280153484
P 4.098903246458722 6.395888427641629 8.20973310980066 0.40924043329934684 1.5589146111849732 0.6144306635198773
P 4.767939069134498 1.4217445741986001 3.5509146267516036 -0.09563218208402886 0.14477547657789902 2.2349468495667315
P 0.30442236789120797 5.799008728585128 3.4403395751925987 -0.08730669293746898 0.23178032200423307 1.5730065705016651
Ni 0.7243622256770567 7.800838042032295 2.504837444936651 0.28825845959661966 -0.6014244810681965 0.08701461561834692
Ni 1.8320776417936575 6.716666671424225 5.0815712221752865 0.8343106345420986 0.17512452118340163 -1.2031538949713214
Ni 5.921659502607343 5.849311279774579 9.154807269437338 1.1204841865852315 0.41190178218159385 1.0157880945267215
Ni 8.868324223811566 2.5709826926900243 10.157867034044887 0.11718419722319173 1.3442002435240914 2.410671209117661
Ni 2.439495354847294 5.465405575406712 7.323380020695067 -0.8486291080472997 0.735395925052056 -1.7299428508118144
Ni 0.6993079144472352 0.2817253884383498 9.40384560456322 -0.5311958266589368 -0.08484691854306678 -0.3227904319352183
Ni 1.5796684228501165 1.3888407232023356 11.584242114046742 0.10610917035595273 0.5385031589536274 0.6391309944800347
Ni 3.979957242982374 7.1149981119669885 1.6812093228261604 0.5751724893502029 1.9117712663779525 -0.3607761671503722
Ni 5.538549637838218 8.242181411233506 7.97318671210055 0.9542304855288986 0.22149436669719275 0.8389977556051228
Ni 7.220469727754291 1.0565731169367525 4.7081687709944955 -0.46070569105817427 -0.7958667287436035 1.0390936020218813
Ni 1.0393665159570549 7.9425981140059125 6.980141719822917 -0.4070976759247312 0.3411997876803414 0.4614903917429987
Ni 5.172792735354309 4.840515981507131 7.066590024925807 0.3750537601153089 0.07078684090557487 -1.148909274695144
Ni 0.8792115721545823 8.192821060948312 11.828901501863223 0.5515430228567211 -1.2327112969134641 -0.8788004894243574
Ni 5.062719886024854 0.8433512227868997 10.734546128665736 -0.42792592552399206 -0.7779677369759957 -0.10933796170589556
Ni 8.696688150349543 7.654915820433072 4.68072236717765 -1.815343842086138 -1.8252341046166565 -0.12305736817451711
Ni 7.667859648389622 6.639964199752367 6.80030849849385 0.06143419604608129 -0.8157218157963179 0.9604972923742167
Ni 2.4097748622459982 5.615800964405762 2.7414506199824022 -0.5634444022799974 0.8993016947015028 1.0288009618466216
Ni 3.495245189440521 4.6291519611791685 9.384271609466804 -0.4630780479450928 1.711521153771517 2.2763835194449635
Ni 1.2800668304593341 3.3722010694097317 3.8989197323927702 -0.5577884895458006 0.904524633663339 0.057735921258887664
Ni 1.7537194578531516 1.2338075103347559 2.6851262158291367 -0.900849498804597 0.7622256436503905 1.8120356036485115
Ni 1.2269376765571094 3.8181365245715 8.492977911541894 0.651980082528561 -1.4722468373830837 -1.5731384680938392
Ni 5.5128906714649855 3.0486419608223363 4.845172100538851 -0.28874388387347044 0.4673450507515629 -0.9407337365940444
Ni 4.11763749356474 7.323251954552741 6.201364190271416 -0.4110780007287179 -0.8832351281569434 -1.0250211830892155
Ni 8.134825393637689 7.6619228679346385 0.01585458841999584 1.0541258137646556 -0.4794022390264131 0.9060117597318267
P 0.3525514536937501 6.245227758776332 8.06635666015925 0.7257411755711114 -1.9407329437176255 -0.4331326665359121
P 8.853166681109089 2.049918149890692 8.24667195903836 -0.6234971445975197 -1.2534451870267056 -3.148690173614861
P 1.8465674110397186 3.587242417538777 10.579508342007358 0.09527505585492622 0.08282063214165736 0.803643544475545
P 4.4288382194176465 6.488516838869923 4.040970697461101 -2.3558861429569813 1.4897629918899762 -0.07440104061939445
P 7.022232487014774 4.294030309456027 10.323428198569848 0.65984405865767 -3.6252554574131115e-05 -0.08323509397125664
P 6.4997775118130425 8.042096359011852 10.18471061223464 -0.5750737589888096 0.038934472281668436 -0.27697825869711007
P 2.6652851113501543 9.051467954919769 5.888195819617481 -0.15121351889375892 -0.3598973640898447 -0.4615163598849278
P 6.87010820509432 4.213476705932786 1.550579113378857 2.356531232740148 -0.68350155017561 0.975171863667256
Ni 2.723756452903705 1.7697551683887234 0.594062243925323 0.1891843417105774 0.5635554739365649 -0.916805507913221
Ni 1.501886536550079 1.3345315312743902 7.202696891473879 0.19191562459881142 1.0592806184927177 -0.4612219685729605
Ni 6.880518152949129 1.2962031643924479 8.980852284041049 0.9805809504979691 -0.7624750406570352 1.1413376329954732
Ni 2.569592260287625 1.8901098994306604 9.385784619462575 1.2307744849020674 -0.7971489378901369 0.457365828051664
Ni 6.68204307508815 2.0571721820953175 2.5525676961816623 -0.8867379991038792 1.5839599841893754 -0.762368596986158
Ni 4.244953534200271 7.282947710046336 10.612216434757494 0.9412482143366177 0.24789342551601182 -0.45035160151735987
Ni 7.5709410213933985 6.289703300489938 11.316834520320473 -0.1707176503649576 -0.08585581942355536 -0.1090422848423477
Ni 8.149077325762287 4.328443511415424 8.05316859177412 -1.4341801124183493 0.2961813139881222 0.7983241891451606
Ni 3.636200274233803 8.84819954430315 12.45663050508981 -0.8776676613714949 -0.3140551089447494 0.7649728673782246
Ni 0.4410323514269902 5.25096796766292 10.07469813694371 -1.2392323858614336 0.7762862355085147 1.6117173568083016
Ni 8.72496332505887 2.7326936401217616 6.08891479924365 0.03522334197866837 -0.7725175124947018 -0.13101287557616792
Ni 3.515763214957513 3.27812734028947 11.887583237793454 0.4638511786656914 -0.45300240887664567 0.23274937078572172
Ni 1.2140029961821532 3.608867300428732 13.01050925258578 1.255377113942096 0.37791874036792983 -0.4702460264484417
Ni 3.0453122411218527 8.782364399565836 8.186771765239714 1.3630220042162846 0.42087801753827514 -0.2509342692248646
Ni 5.685267699036184 8.525353947080143 3.306964176508715 0.5480920881936431 -1.1003017981000858 2.0408547861418915
Ni 3.128729037684247 8.557708943180723 3.5272708726036903 0.5122802207013565 -0.41945594037976797 1.7430346509987658
Ni 3.6752421524801346 3.214469319971705 7.753656645682967 0.20679305593127612 -1.9887981746559682 -2.2488590887724493
Ni 5.338363962219025 4.916962320894337 11.713239480179386 -0.22108530418423217 -0.10919269437728293 -0.58899911082065
Ni 7.928455952860452 -0.017893584357462418 2.474579989295744 0.3333988035786839 -0.42656195529692986 -0.29763835814962286
Ni 4.603428961734772 0.5460182306316118 1.6557717279275195 -0.7342738956324709 0.3862033489742252 -2.556367397737617
Ni 6.276356978943219 5.920269070204943 0.37245201745309753 0.17903953996709165 1.1641363760575434 -0.8687551893732135
Ni 8.002990447694357 0.18554680079313965 11.29668514234175 0.027333140597314218 0.24696088639941335 -0.30694755136569074
Ni 0.2509510944373401 5.05438643919205 5.804973866543055 0.11295653229508934 0.17521450979404662 0.023523537043236904
Ni 7.48765229097333 6.661872657671758 2.6849917463796937 0.46994109361351327 -0.11247573600392888 -0.6737300726111429
P 8.68979087382711 1.8326722345973152 3.3858218184042927 1.1201702548892385 -0.08260671635863837 2.409225734920386
P 2.208281082458756 3.7482398536061248 1.8252416540679115 -1.7653363998197595 -1.9784821374419412 -0.8989553671056777
P 4.845538003802641 1.3147270171217875 8.413879688250375 -1.4270280747546003 0.02839577753387368 -0.7452489065867358
P 8.803806330823896 2.0453352115117296 12.488334193380847 -0.20550853279189768 -0.3614613661428549 0.544566848649204
P 6.236958345014691 8.236958142142912 1.216361242717276 1.2877678715679757 -0.8556153095571457 0.1516547201962356
P 2.0654141531121746 3.6243358609054304 6.227391804182917 -0.6348459939514357 -1.041812286504625 -1.0647364994009665
P 7.146328578928958 4.393153503616583 6.131516916246652 -0.03485053202028191 -1.0357614523248548 -0.11052992513146771
P 2.5461470086603177 8.851145065576652 10.375964589184735 0.4136578456407521 0.18672945241218164 0.9518594141935608
