# total energy = -340894.2916823316 ev
CRYSTAL
PRIMVEC
9.06504744335146 0.00000000000000 0.00000000000000

0.00000000000000 9.06504744335146 0.00000000000000

0.00000000000000 0.00000000000000 13.26761324238722

PRIMCOORD
 96 1
Ni 6.278596879058081 2.140457125271366 11.331483315260808 1.7122109807496901 0.45172431349517045 1.3757443368789597
Ni 4.729824463485885 0.35044294842805046 5.916665796043433 -0.015441788476366954 0.003291012046445945 0.20416898804486774
Ni 2.728397970388933 1.3878768890374322 4.68755414739869 -0.6375230265629666 0.4208489640725527 0.7915956121720754
Ni 3.512687742473821 4.278022500417959 4.902542624856788 -0.9152620746855011 -0.3895923200511161 -0.04139810333081257
Ni 5.100603032775699 4.42502130926847 2.77575740409383 -0.4390073801491342 -0.26811360921762856 -0.7189663187411232
Ni 7.084679025124014 6.031229865249943 2.7359409963413572 0.9831242857451133 -0.18468362562674642 0.12441156820956638
Ni 5.104428482784018 4.531599071704056 11.342389473803484 0.021710395093898095 0.6986121805648032 0.7215330510270347
Ni 5.7408220063245 7.721960923310978 12.700210291638106 -0.05942307915332346 0.1590579546388422 -0.01453650305327819
Ni 1.8765826601240088 6.715523099321142 0.3006323259026565 -0.020353623955687527 -0.4074949113631498 -0.042896799363526125
Ni 2.544486288472358 1.5701115371825873 0.18697385493271332 1.0208943054050355 -0.03360328987674213 1.140459344155578
Ni 0.5168436782567779 -0.2269180798537107 4.55141526534905 0.6652881124913769 1.157377202956839 0.32779045625297093
Ni 8.531859454337818 2.3772180336061988 1.5903093693236718 0.18972530181571198 0.581245177906844 -0.5399568606810184
Ni 7.100959850277906 0.6673515669608928 5.005193408753027 -1.1096012211241406 -0.013770057200898864 -1.1422434326391941
Ni 0.8264939133259667 7.232212671771897 2.591111453336796 -0.7066337653176992 0.032979026029181915 -0.4899828427557368
Ni 7.320968550993367 3.8653996722693655 3.853471882883235 1.9611755278426934 -0.6263114741178633 1.076540691124746
Ni 7.719749051742187 3.920895892532244 12.490277391122284 -0.018293913213181398 -0.025572192042149507 0.0712666087554708
Ni 7.932841121281467 8.821804995845195 6.946232182003003 0.39457743197053335 -0.05010514418650726 0.9080884397551973
Ni 6.847637100319376 0.6966026619534205 0.5039785629681343 0.2784687271997075 -0.10803492662375587 -0.863435576932513
Ni 1.9513058459500303 6.591386340046419 9.329745891037586 -0.0312972674513848 -0.12037442202571526 -1.3029060127609948
Ni 0.20018797454676057 5.097022339047531 1.184759091166764 -0.7870558153201929 -1.1193783551155625 0.49639131738524184
Ni 6.609471109635514 2.0356833072709826 7.303051484781415 -0.4290587535768547 -0.7420789934991865 -0.7921728248317841
Ni 3.5464550440875455 4.351050522377734 0.2746237983697875 -0.9455303866517394 -1.6575801807786872 1.2101845765658579
Ni 5.757266002331828 5.4221130693754205 4.907929076029641 1.1255942541182873 0.6340178416231855 0.265163268340053
Ni 5.299988750626402 3.0384679171533473 9.304524209620173 0.637091852562819 -1.0182170156831885 -0.37051884835943283
P 0.321804650640647 5.57658147729431 12.312703083852194 -0.3647582917265718 0.522402653847339 0.22641314415504873
P 4.188323856265528 6.050320855101891 12.725273334725792 -0.1887678229984491 2.3747043041047484 -1.5240088004467238
P 2.3062749725514315 8.570893548498542 1.4384081828321662 0.7186654996712526 0.17239735206022566 -1.1847052013478307
P 6.3349361487303755 7.683497927137278 5.712516395777158 0.17671474848865695 -0.07588688113630157 0.9567370540008361
P 4.6940084611568045 1.1722919314595548 12.648904842794295 0.25802382908179433 0.4422613683100577 0.1978067932722658
P 3.9888474879406943 6.3170417451369545 8.151355902183251 -0.08246170614034184 0.5806186000664387 0.19044289670802686
P 4.626029670606114 1.211661432374563 3.7238743390468723 -0.21986043063819555 -1.3900944349530446 0.17198700399568445
P 0.3088126246882202 5.444648777244338 3.655983479456089 -0.6363901985101039 0.035309216824255314 -0.06391119683166413
Ni 1.4751007752460918 1.2791597754123596 2.4661180470815367 -0.5486682724120873 -0.7863526186055813 0.7269426520783804
Ni 1.934925305274594 6.572648887043582 4.874202567129275 -0.42188023355054444 -1.8413860317861708 -1.3779529144945042
Ni 5.833194839463789 5.7469771735179815 9.28224776210727 0.1602910557149949 0.1912232265174771 0.39148902285319676
Ni 8.790575907507133 2.2892598785570804 10.343113037269982 0.003942272477199663 0.1559554044541185 -0.2056856817997103
Ni 2.4597371602074696 5.290307279989231 6.924911190487437 -0.6081492013865397 -0.01753338089807303 0.3963165261488271
Ni 0.4424894398604687 8.810092954587494 9.190488632677845 1.3594263164452265 0.8185173762635838 -0.08404499146706171
Ni 1.251692681750726 0.798196461321295 11.702154010486405 -0.2814254958351863 0.9989252573331119 -1.105876721084702
Ni 4.041678584264127 6.8775789519247805 1.5748126707710108 0.7613440123763856 0.40736301377097583 0.2957164585365617
Ni 5.838443501915963 7.771655513229485 7.967998094663617 -1.4562484050722986 1.2622802688198325 -0.4670745706989956
Ni 5.359437331561383 2.8206620229592647 4.9951103565154575 -0.07462601214600696 -0.5439284437342568 0.3024383506414275
Ni 0.8132698221597651 7.427528183334127 6.799518922146004 -0.5581906100802257 -0.1284829100654626 1.051067743664622
Ni 5.129203257363968 4.568348773916683 7.281650720848614 0.013622218769124925 -0.11297298735532155 -1.019738080313405
Ni 7.892420074866541 7.217463839630815 9.096183131430086 0.5146988574451782 -0.7164034431099533 0.013255836568641688
Ni 4.679857922144985 0.7892139058396737 10.455476112964593 -0.7498128718083344 -1.7108251561457568 -0.6286815170119366
Ni 8.245122939614673 6.995306722678455 4.883237699885892 -0.48569064313828614 -0.3385188984140686 -0.29622707962439304
Ni 7.2231204292165785 5.995812725007038 7.004238513894562 0.25108030788442565 0.2144022357371017 -0.19384395196977586
Ni 2.415218712361832 5.0907130660480275 2.3085910921654738 -0.3271664495157269 0.35317315799213367 1.2625445782248126
Ni 2.4238577025464974 5.382516942275085 11.378981444191124 -0.08259951726978677 -0.6823152431769927 0.2763524521876531
Ni 1.1616767609388379 3.358110553985975 3.8008655997356464 -0.8627493494987657 0.2681118094454157 -0.2672422623562688
Ni 3.42398625353683 2.720049061721486 2.657224657129874 0.45094964011267497 0.30327575894105835 -0.6394752651933309
Ni 1.360436990518038 3.433821829980022 8.105516676929529 -1.4408824641391895 -0.09409363395231536 -0.11503115543593093
Ni 3.645372841459079 2.6928720495770713 7.001479113462021 0.09057533638641174 -0.06316506269425895 -0.1855310612287063
Ni 4.105578103478931 6.868278213278959 5.867575844787379 0.5075820438947388 0.8568252707048469 0.780505672906501
Ni 0.8998292403930456 7.459029223094581 11.344167129601187 -0.009201978214242217 -0.7963580665577252 0.6872821002639647
P 0.27375174080864917 5.772332111132368 8.154699998173937 -0.2852410129265346 -0.9826494029912238 -0.4970891147832148
P 8.738370299455203 1.5451826567966163 8.181566985696826 -0.15693422342762003 0.5969546182223009 -0.8558227975822614
P 1.952620277824927 3.2922620495773587 10.19781936383787 -1.3177613326062725 0.5194803379942214 0.3652082347797968
P 3.9826288654153212 6.023986892366892 3.751271631843425 -1.093646497567097 0.8316523709836451 -0.7089618992302436
P 6.96118588421562 4.127343282317737 10.324565043758078 0.5087529242743883 -0.45857913163347475 0.007669600730115822
P 6.219447444687732 7.918445825989496 10.354973745305255 -0.6374276386356829 -0.16603901394236564 0.2662153637536512
P 2.448133899518727 8.438988043590811 5.746096957414172 0.08777823325724883 1.5435468704796513 0.20264380964959297
P 7.0013259141607405 3.915946376644702 1.7396097937123642 0.2900088666288231 0.9702530862094 -0.6597772099754766
Ni 5.555922234239899 2.9822011678603575 0.4991088194978274 -1.0610271688701793 -0.8500987506142909 -0.7520474175658081
Ni 1.5664039327906374 1.109135746132624 6.992656102814871 -0.9061817096507878 -0.09549308540300329 -0.43716749872691807
Ni 7.0924568358044375 0.6492323501916276 9.345746606226413 -1.1599915006512345 0.15447007815784367 -0.2936125248196814
Ni 2.7279447180182785 1.5091218981873826 9.106929745138293 -0.09375861921039982 -0.24658524822754951 0.5526660807175708
Ni 6.29116103477261 1.9090355298628365 2.6699084714702557 0.9693272319610208 0.029323688664781754 0.1580811925478697
Ni 4.004557215107562 7.171059861923257 10.462799764769622 1.1841346735563414 -0.0006450897831666309 0.07469646037262619
Ni 7.973062736653304 7.0776717434737035 0.5237748135088192 0.5008120721607568 0.38284188870116 -0.4110211793488534
Ni 7.834938609220199 3.891144406922514 8.185414191818937 0.6648368838865711 0.05514862014768567 0.6041025421209919
Ni 3.419725681252682 8.397859923477665 12.593021545006879 -0.8357417105616703 0.18068221777683724 -0.06245929487648597
Ni 0.06183994044255174 4.722916897357117 10.241137599406017 0.5325302291996442 0.6924885841655687 -0.09350973642438734
Ni 8.714737720849302 2.4184368041934756 5.780195133258474 -0.10296753940317752 -0.13267046578424896 0.5066302215044307
Ni 3.4209313325586215 2.969256280154479 11.568178048749523 0.9972550687195406 -1.54126835885812 0.14044548174397747
Ni 1.0420997205128943 3.3494081084694174 12.475058989525206 0.34323173050870565 0.31327632179719594 -0.2710672925293138
Ni 3.0529538629194497 8.405900620533066 7.8642187123644485 0.9832870365752227 -0.3326920073196464 0.6108527163606319
Ni 5.343636953920384 7.836697228418337 3.776732630512544 0.06626221356234394 0.6381958842602751 -0.35906869754096227
Ni 2.852444079189525 8.292950129766085 3.480877584596581 1.1561500154179574 0.29671147545997933 0.02020372864138456
Ni 3.502380783565149 4.388461973051517 9.05411133988124 -0.9247206489952396 0.5252375521929729 0.9269675360478875
Ni 7.220038313096131 6.2174531342568535 11.432808789225254 0.6482681808946126 -0.7269704199925221 0.043653475023892566
Ni 0.43216888338067666 9.057768180007677 0.49608834569978905 -0.8154096838725376 -0.13523462696699934 0.08960783026681986
Ni 4.651239567461891 0.43463095025806925 1.495910498087559 -0.7787627220734653 -0.7821426942892917 0.611768543306682
Ni 6.078694453504832 5.3922709332915595 0.44239516336737267 -0.22534767900501193 0.7662429923398997 -0.13235396298509464
Ni 8.047450515725043 8.659042069543336 11.319158476797984 -0.8944860184804144 1.1770582263255343 1.2992403909839494
Ni 9.166303992684487 4.895796416571974 5.854772371821144 0.3992966918230736 -0.44568710616215507 0.26519772112241424
Ni 8.037297662622393 8.929153287310893 2.5819702595254457 -0.21128580159530708 -0.808276415261866 -0.24743988291836094
P 8.52904022459235 1.618246938946044 3.6755802989536863 0.4167861068570886 0.54975327794615 0.6459012233243328
P 1.5748706870744544 3.2300758243236274 1.4054512964571713 1.2108420076441984 0.02035310973505527 -0.10668946833945497
P 4.7600020063240285 1.134871415738359 8.117536929799273 0.12239967998586018 -0.5414388445431837 0.24543339401129344
P 8.465022859761177 1.8019501247721181 12.62741070887314 -0.5384435093602856 -1.4540354565813798 -0.7201104596478953
P 6.296998925306633 7.768945064052973 1.7823442402271077 -0.23389993945039717 0.8398549613990955 -1.57054499633505
P 1.781435922476317 3.1569118266526552 5.8841993287334855 0.40352409964085995 0.24450651132164988 0.49532662356615337
P 6.885211721846594 3.8921415621379527 6.1468717685938685 1.0792573187249608 0.49924858432837893 -0.27755598557745104
P 2.397043292298606 8.687533513562647 10.33519199884043 0.9655286841505369 -0.16044686456656884 -0.6388047214888676
