# total energy = -381165.50210391684 ev
CRYSTAL
PRIMVEC
9.29739444106569 0.00000000000000 0.00000000000000
0.00000000000000 9.29739444106569 0.00000000000000
0.00000000000000 0.00000000000000 13.60767655952855
PRIMCOORD
 96 1
Ni 1.201762593503093 0.2600481188033352 10.354733967842735 0.17832451617793807 -0.33122519296613273 -0.1608448713359359
Ni 2.937995196213498 5.314771779794685 1.0541116042323067 -0.8133132063548251 -0.4772592245414813 -0.038905418815945905
Ni 1.3298527948886325 8.606811751268497 12.667032192156388 -1.3216879213541886 -0.7221673421769239 1.5778847245295728
Ni 4.798022604139005 4.341325298320678 0.14875366023575123 0.6206437343091247 -0.620724209838073 0.1172800993711077
Ni 3.809458559519691 6.826704744817194 7.095614210135777 -1.1533853081886265 0.58138093215376 0.8760136707078398
Ni 0.3036463899332773 7.693054541253819 8.591396671505326 -1.2866864655783388 -0.46661845699818344 0.34097121660930313
Ni 3.190252098586472 4.377622325700306 7.419313220113209 0.44861687821444024 0.960309858953759 0.7773002785953258
Ni 9.262603458804902 8.68453796768594 1.7788909072757775 0.6414922956233597 0.6627599467528843 -0.7122734801019797
Ni -0.048074036749960865 3.935103546202146 5.7859702315156785 -0.7729453440607398 -0.9482313305226702 0.038272413217637316
Ni 1.849698002848979 7.353002344427505 5.258183189337177 0.24356908710904504 -0.4186239313967758 1.262778805722806
Ni 8.247169944634582 5.453897988224186 7.691398675327509 -1.4826240668523496 1.5845359112975035 1.345385007860812
Ni 8.158751724762586 4.143653397931771 3.510943401505168 0.02812504037099027 1.1183627693668545 -0.034877271493159286
Ni 5.2749138503949755 3.0829322760856894 7.235255494209956 -3.426167483435577 -1.2827976720468939 -1.0290331324620858
Ni 8.921147355438036 1.3988766502335008 9.008962174419421 -1.1960982736761205 -0.18310522539603305 0.291947992633065
Ni 4.525813493580405 5.516181232695532 9.228589871467394 -0.8940898114832602 0.9975751710631207 -1.1879427344485218
Ni 5.849176707241839 3.783565316371057 9.558984864825671 1.479887641757793 -0.5917015973534778 -0.9073088812766955
Ni 5.930463825679364 1.5343024957282945 13.067260843903783 0.9009099197288871 0.8080036212164535 -1.4136436830278944
Ni 5.585205088040399 0.25908955745014883 10.967596816639398 2.037804429351342 2.5473762499826003 -1.1916165837556834
Ni 8.619577073653803 7.2982127997686534 6.259680839178777 -0.5833326565634922 2.634033482261528 0.8654968303369158
Ni 4.608978685668207 0.15720871061972524 7.5377545856855885 -0.7983468148529799 0.3761850455062747 -0.9412016773693984
Ni 6.906485685376772 7.941434430200229 2.6958575778056844 0.6716683049861077 -0.5905188898992862 -0.3166979458842352
Ni 2.441625908881626 2.229357099428678 7.425382559117672 0.05865097687398931 -1.1246799698341339 -0.015685529056056854
Ni 1.5424098235651376 9.121162199192634 7.087381367475771 0.7008415841159542 -0.3026119001048143 1.7405121416872282
Ni 5.197624611510022 5.090481439501097 11.417425207542747 0.7680867304168578 1.3509342198138155 0.9281589852528274
P 7.912342883409537 6.385506195310813 9.765372142639183 1.1607258077140978 -1.6200860404879711 0.22237368397835253
Ni 0.3090026187942927 0.28373880924033124 5.251324501555939 -0.2887816790899414 0.0970527165806393 -0.5953376514441683
P 1.654471317163157 2.0034676073140614 12.092693096676195 -1.7319130871643076 -1.09689122975664 -1.9240588254960538
Ni 5.943210553276052 2.208279906531747 3.159239710131685 -0.6820357642633609 0.8000090330467513 0.9000982224608691
P 1.339057215253856 6.595999202450875 0.2520291162124208 -2.5264029901650424 0.99581396539764 -0.8239969113209165
P 0.9344625071392784 0.895022030744011 2.9804759205475815 0.8698682199317341 -0.365904232405557 -1.0983405606086567
P 3.9525547553188374 4.018185061741174 2.2934923848462385 0.5622524388544252 -1.831949568963619 0.5799786524895948
Ni 3.274068108275856 2.6869190629176787 13.12702635399644 1.5987142596804145 1.0142588023663888 0.009628781339015676
Ni 4.851129320428053 7.8172305396355615 9.509398142021748 0.7103171277065573 -0.3456773638357208 -0.9662794462736325
Ni 1.2635902656533315 2.576977375221953 9.897938109644741 2.5198127385420346 0.8474420297177341 1.9307025560648168
Ni 5.536914422003054 5.410953323914117 3.086288635430988 0.4628659319342867 -1.4129003771039668 -0.29958982544903884
Ni 2.7773269251716517 0.4163196520767832 5.204990937020494 0.9038355780161145 0.2790407976530936 -0.07590899262348862
Ni 6.720072929495226 7.34127833020473 11.403150918061208 0.2378509536783452 -0.790709095802064 0.97322039636784
Ni 5.729965517420733 5.433648263420694 6.893199708910203 0.6844436023739051 -1.340968109740039 2.3476802101074212
Ni 8.449890330132899 5.392349237903195 12.119254822475597 1.2784476226083146 0.43139820034330867 -1.4376253906544727
Ni 8.456231153051164 3.499083645325492 10.243872767849918 -0.9184993506758763 0.7118603038239611 -0.3828125781251213
Ni 1.6786352449704458 1.1750418822610196 0.6322507051477727 0.5323026865698703 1.1308359621332007 1.1947744126583746
Ni 7.139933959064043 9.022442466427036 4.928197281328468 -1.1077279153608277 -1.2127731632286405 0.23715418472163674
Ni 8.884766651509631 1.1885881857682223 13.59355193533808 -1.9451171888282501 -0.26977788429392896 0.07722771143491215
Ni 6.628753922599038 5.673056166859587 13.23815996764249 -0.6875163277619579 0.3336165760164448 1.7304509007964843
Ni 9.340441243954045 7.77024150880138 3.842535899250353 -2.0726945563603074 -1.060594966428767 0.5436847031545669
Ni 4.952638271486144 2.7743889485702264 11.362953633769243 -0.5461154240832466 -1.0190089154568642 0.2755775216948415
Ni 0.39536518478472177 3.7282458202366326 8.108841452636735 0.4680389914947939 -1.1746655577236416 -0.42053914614161764
Ni 7.5044011133439685 8.378765263674353 9.455661062398597 -0.7624135912914805 1.9553391236665743 -0.7975130060977749
Ni 6.404537961459917 6.487294068198153 4.9506356127521345 2.1434250901066503 0.7971556227583562 -0.33994637488921453
Ni 1.446618770006655 6.486094704332383 2.4735085334436704 -0.02952397760104593 1.0314633391701333 0.5881560460940646
Ni 4.544203739522235 1.7637528898629928 1.246061888163881 0.029141397450646585 0.4170861545960107 -0.4217696761146091
Ni 8.644912473143938 9.280380076722386 11.536057169698449 -2.3731318174113065 0.14469808637274434 0.22186486266273403
Ni 3.247245125696392 0.39278329838530507 12.240281793405115 1.2638314153570362 1.069518494170642 0.772421867457102
Ni 9.537267081460897 5.143402207903978 1.2823356720577392 -2.9867865219971077 0.21935160932257705 -0.6427734763286285
Ni 8.129985586772687 1.335384744502075 3.264141280372877 0.06579375856635766 -0.545680393428357 -0.8259702329972033
Ni 2.200209768272137 4.673316654281689 5.352865063754678 0.5004027525374801 0.4889993957965449 -0.8408800602295003
P 5.667654380766462 1.829634225931653 5.452418772789733 -1.2377406318072555 -0.8025629098168565 -0.49985253646096495
Ni 5.135769047176859 6.784373708531474 1.352689984528126 -0.8324028759964245 0.1746637794968992 -0.7624573000452224
P 2.344300785262272 7.573071667705121 8.769058719863894 1.7329415284288217 0.03614662512388613 -0.9111724779971598
Ni 1.7840398042437176 5.365563444900964 11.74111120116815 0.4027867072542031 0.3149002305538642 3.6301282121243807
P 7.060459832516639 2.0091111256592034 11.116124550193458 0.550887134440277 -0.11767964880237153 -0.46905971944982444
P 4.480339938018477 5.348140127967198 5.274117993442184 -1.6268189883364308 0.019087612759070352 -0.9860900532416566
P 7.446599212929228 5.886542934966924 1.8931949323809603 -0.4215593598760159 -0.1542944718119278 -0.6079142025575982
Ni 7.73927188836041 1.7814923182032416 5.627236748229391 0.46964027454364277 2.257636577854764 -0.5582795702496063
Ni 1.017023368597041 5.235901983877321 9.722576236638046 -0.38806842720742196 0.23690144528088233 -1.7278522868313726
Ni 7.052677913480586 3.6145014982688104 1.2759009454569603 0.029076348540666055 0.07429382561756884 -0.17033969820024858
Ni 2.8602317902188217 7.831985504402844 10.840881699872055 -0.9982981652720743 -2.9853022241420972 0.6694900663878663
Ni 1.1222047904069132 5.774630199677838 7.1401924266258145 1.3797174625940947 0.9250124692040456 0.1027911617263133
Ni 1.2561244580237614 2.363611473240625 4.380596562139534 -0.05674964608621839 0.7543351851587202 1.2550089319694
Ni 1.076796316605144 3.5825928410027017 13.401519834336593 0.3320600301626023 0.141314257502176 -0.5038359465887452
Ni 6.1713965017848205 8.589704545741213 0.230972377582968 -0.16781050402049164 -0.736717472076957 -0.4740736277246481
Ni 8.323706094580562 7.444209782591992 13.686872671228846 0.6514275524592008 -0.7701508120347381 -0.5606231307811185
Ni 0.49245229510978245 7.0130245267556575 11.146116084753194 -1.4049983486480706 2.0609438435822827 -0.837750256351267
Ni 8.191701690191225 3.2346471564086365 12.594109009638617 -1.3167981973620548 -0.7143213637699439 0.7450329339211879
Ni 3.2231369822549527 4.224178130036014 10.71148614432563 -0.06595368118298965 -1.7039888499502138 -1.4603572850343494
Ni 7.254552236096846 3.460267024088312 7.493964788232896 3.397823642185561 -0.5594540501736817 0.44400611891530634
Ni 1.7502995602988731 4.1723730489501305 3.003663621952498 1.6631178227674646 0.5249909833998055 0.07330446512110601
Ni 3.6436023424538093 2.718437229622838 5.113356748457254 0.9009597991302161 0.336318291218324 0.7555256059223957
Ni 3.4277354414035472 0.3956543337477101 9.839710388570678 0.9193881810387328 2.961399706492887 -2.2925508732334454
Ni 3.190884321399437 8.951549834826197 1.1079686202420342 1.4029103557707905 -0.7440875392887831 0.7911945200789148
Ni 4.971363223623073 9.27019942995479 3.079798124464359 -0.19938647905455986 -0.5395835365019997 -0.26720266736758497
Ni 6.255900518653019 3.980660778312848 4.913364218448995 -0.19416354009272366 -0.8112262419188093 1.0860368035406391
Ni 0.16114708684872392 3.0275105086138736 1.9415292961715538 -0.37788505891651697 -3.173447583065199 -0.468352923190787
Ni 6.335114318159792 1.2160619859492683 8.750919503568388 0.18022944651013478 0.40463430198590317 0.6188987265935599
Ni 4.684994181532923 8.01043039336217 5.1474577313012615 -0.8539734030783486 0.7103811481752734 -0.1287886142313395
Ni 3.1902799907693975 7.050957895533549 13.25941474077071 2.7149227017084274 1.0208066307872354 -1.8587934286293404
Ni 2.265347312796133 8.401237065717531 3.2609160142873255 0.7316120325295916 2.555173891650148 -0.5356173527654001
Ni 3.455134862430127 6.461605367724303 3.6206219729419677 0.9662326521960972 -0.9056800874240208 0.21362190592765143
P 0.20471095761972524 1.943443629659634 6.895689551105967 0.925523090291877 -0.8311661753758459 0.131430936950193
Ni 6.16354950098861 7.657138707040829 7.085203917728765 0.8583046834638509 1.1973653133140025 0.65029061064128
P 4.185891460274408 2.44017551536953 8.98157019130829 -0.8131743667841157 -0.7666530832941248 0.5587642231955087
Ni 8.145642398787874 0.2047881259924842 7.28699270431739 -0.6831541941385202 -1.5824183507338683 -0.3627798278439623
P 9.028411393572968 5.824622288873602 5.022865209654507 0.5319828413366063 -0.5314963886184911 -2.2313904996740406
P 4.7649982595559 8.08017014806878 11.968087558677407 -0.68005472927759 -2.6344176050738244 1.702615880862087
P 6.657687413686488 1.0801526759504425 1.3540102145199056 1.3303381408300186 -0.022303291482890623 1.9012613679855639
Ni 3.302964409786073 1.7023343030623195 3.037682787726592 -2.136247084300972 0.1421002437385811 0.4221093188422149
