# total energy = -340885.88612191065 ev
CRYSTAL
PRIMVEC
9.15754214309199 0.00000000000000 0.00000000000000
0.00000000000000 9.15754214309199 0.00000000000000
0.00000000000000 0.00000000000000 13.40298858496554
PRIMCOORD
 96 1
Ni 6.608183254717514 2.0578920625979573 11.342198554931453 0.7421604974693993 0.7479675910694795 0.8522037127724356
Ni 5.454543548726962 0.4149154209327379 5.968351268928551 -0.9112817498815144 0.7426682903437531 -0.8358831212355411
Ni 3.0366684984210215 1.7867921804278446 4.93149586834737 0.5011113485687305 1.6488587417452893 -0.15764359078981882
Ni 3.7291801620295972 4.649815361806923 4.7876281315936495 0.304292887351663 -0.18854979345037207 -0.3073175331105998
Ni 3.7266709954401294 2.778370860382574 2.3905571858787797 1.5821854087874556 0.5324420403612121 2.28639745203754
Ni 5.523701308156387 4.405308982468252 2.7932500351072735 -0.14984132113658064 0.5504947840978649 -0.7061411419519968
Ni 5.152234762407553 3.5654341482110667 0.14608569349813286 1.4237337202740448 -2.0061196966535513 0.7209923480322163
Ni 5.847218962436409 8.188390438459924 12.505927125270972 0.2865077954541001 -0.33008542293473475 -0.22299974759812563
Ni 2.1521964331758463 6.897057926486742 0.13149223409311017 -1.6942112017381596 0.3755132162502307 0.020849332645183447
Ni 0.9605620841936781 9.190692600444827 0.0861706415094017 0.24083291912480462 0.9323678811278523 -0.21064713957004366
Ni 7.895367400030008 -0.07040135367340201 7.315565851262721 2.014200416779157 -0.03655928718127252 -0.9786821908133596
Ni 8.663969082587085 2.325502921152788 1.3370405528418392 1.5804211177981813 1.1112292436458668 -1.027623396598753
Ni 7.293432987284309 1.0260842993310635 4.461921824704567 -1.20294280740178 0.03694238155230412 1.111651933005582
Ni 1.4462231823901976 7.895220879353251 2.195235050464831 -0.7204788987309075 -0.27834942801302387 0.5737226442775538
Ni 8.029571182397357 4.101736455311812 3.3871358839278507 0.24616975795668572 -0.5273229739670917 0.2453032961913324
Ni 7.786621585249232 4.324997336520681 12.558868708800288 0.3942491020968371 -0.983739807841925 -0.7731942268467522
Ni 8.4699024462221 7.153111966662343 9.041508910387508 0.23025385805737764 0.3013510311145197 0.20210619197856808
Ni 7.420072639714064 0.635072811057042 0.17563799824584167 -0.4862040924395949 0.6133127478653503 0.1788366799276662
Ni 2.1034783081540582 6.766242434769405 9.261062818474418 1.0335713866520715 0.1841354664327603 -1.270299539579883
Ni 0.10759837473092064 4.926162515713406 1.2739460021674756 0.7309934251089862 0.15732091734307743 -0.4816786937654156
Ni 6.762918246915475 2.100703572837968 6.926221951441043 1.3039511661960577 1.5602850091699385 -0.013243752383783643
Ni 3.3436842614812567 4.89066788176896 0.31320900891591846 -0.1509903471393593 -0.7099278626879386 -0.9710095047594502
Ni 6.198548072673416 5.710918102882971 4.84973733071682 1.0104695105272854 0.8469854017962897 -0.5129479361923425
Ni 5.456484947693996 3.1295534499428244 9.21214231176786 -0.10769785499931128 0.0672492600659616 0.08007777928919757
P 0.24191937363967558 5.909902339461622 12.501932605320878 1.0124343475631403 -0.28251332958272635 -0.01672219785068733
P 4.301059520955464 6.505719513952705 12.608071267809605 -1.0956298465457133 0.8126789152049358 0.42652364585982677
P 2.8595066851369046 0.15530459132885346 1.34708088221663 -0.7341939343241549 -1.5746381925678172 0.4239011206353151
P 7.013184720359164 8.118912165050094 5.495252487255507 -0.11909761219582068 -0.9056546335027242 0.20046145728629347
P 5.389579943669713 1.2989699022491554 12.895940441434584 -1.1770273730875986 0.7025063734128869 -0.8879037372772064
P 4.2674604982665665 6.644996574752775 8.257835744717486 -1.7168510506248624 0.29879972544757577 -0.7555094079724796
P 4.925072768180023 1.4086772589711507 3.701127862710191 1.072877640450862 -0.3807842348411829 -0.08709611958855969
P 0.7068670269138677 5.768564831644653 3.221515321201057 -0.6434159950086339 -0.5529859259508347 0.28177568008575343
Ni 0.7066518246698805 0.2538827868969055 4.853744671226131 -0.5365907724222629 0.05942899269059442 -0.28098249476049675
Ni 2.241757196843719 6.8536420184551075 4.209020726341935 0.726058449701214 0.1539265469495478 1.391292569026204
Ni 6.076789390288137 5.97771394017334 9.232769675792591 0.7926713617347574 -0.6488579919598116 0.23560123841222005
Ni 8.792403613307117 2.3395139608677002 10.164639348460279 1.0457291050605282 1.5546728051894838 1.089034966937015
Ni 2.4614100063874402 5.80213638170666 6.585934089951925 -0.12707420264339403 0.2959195756863032 0.8059079150296894
Ni 0.6247192937356826 0.31482439937716716 9.188941678357578 0.5230397732107057 -0.16548057033573435 -0.13249897320339116
Ni 1.7908581292078583 1.4235582652043095 11.467865676369234 -0.30440164501538547 0.9641564863933589 0.4549960422679067
Ni 4.032404702578738 7.2865007277652305 1.5098470390093468 0.01984763085354646 -0.661803496376886 0.37870189839085744
Ni 5.921962822667203 8.301339565155175 8.021206683262978 -2.159049941128101 -0.3434631297932214 -0.4873266360798123
Ni 5.721330228475033 3.0836650054909116 4.836897540661736 0.18401488169449598 0.05993241468957421 -0.03559615193705483
Ni 1.1169545915474541 7.8988747387298845 7.3112096083918825 -0.9793475923115005 -0.19159706491712808 -0.5298619383388616
Ni 4.958168126042568 5.166264117207062 6.872838058618767 0.1130308371764505 0.20523522452585302 0.3832915746440689
Ni 0.7478149772963721 7.5731409592139105 10.988775114771046 -0.7221115492383241 -0.8071595280486035 1.3500615874008748
Ni 4.687388757852862 0.42968653665832884 10.541651701824376 0.7305023444051806 0.26441790553359623 -0.016471772402778084
Ni 8.72685392554284 7.252425512876872 4.3755396439680965 0.24232313051708587 0.2175127563416254 1.293467235945598
Ni 7.290548361460649 6.4113052528672485 7.10982975874825 0.4781675952883636 -0.4267434751801166 -1.566072305275677
Ni 2.8395981881825123 5.12903870776842 2.452250632581652 -0.4587483102214873 0.978290868912212 1.0458216647743344
Ni 2.4017303032357504 5.752639865589599 11.532534408564509 -0.5812022404840507 -1.2938762984585588 -0.9087067900654866
Ni 1.4472396695852012 3.5762766782911033 3.8303462790508744 -0.3010898070333331 0.08752369404428152 0.15928524015829987
Ni 1.7084036183627125 1.272641968144336 2.7761208522401204 -0.7570803520040252 0.8987404228813941 -0.571001902912281
Ni 1.6801068126639673 3.4355801984349483 8.16061103390098 -0.32175684846438135 0.23186902506329746 0.5300668552608161
Ni 4.3515358940983395 2.845385754914424 6.938861191319817 -1.5314482874439044 0.9533488542548937 -0.9483202906920507
Ni 4.398587346422013 7.485796320781991 5.581085215454136 -0.357286665939875 -1.064622085310289 -0.029912985509348483
Ni 8.375936904709214 7.671584538910191 13.240276852373352 -0.08701770094214045 -1.1766373367380316 1.047486196960951
P 0.44852085390124435 5.7382808392673885 7.666535985841674 0.04510640542033522 0.7877649255720756 0.15206378270919618
P 8.976854830259908 1.940043650773637 7.808300235129698 -0.2823341236923847 -0.41770887578167415 0.2985408153592342
P 2.2663635129966404 3.555745468460493 10.762505980917505 -0.5352666542942007 0.3772541102007374 -1.115364348860163
P 4.6222145293227745 6.305846995771214 3.4478384845541523 -1.6604955546532694 -0.40659759635986104 0.35320735366417877
P 7.029530933359896 4.089227252533662 10.338409208077467 1.2083547224459705 0.34839810520099357 -0.08703415600237267
P 6.544226979312972 8.04043202756199 9.948247539728637 0.7844515449281264 0.5266902254790994 2.87097349408983
P 2.492792903840385 8.755700183779426 5.843596238703585 0.6174293411368851 -0.9746640707929021 -1.9707330896241417
P 7.129338986858479 4.138476515008694 1.2191408587806536 -0.3558116240562453 -0.3967883235789231 1.4586683273677008
Ni 3.2597279136993493 2.002745342883445 0.3857285021226926 -0.5101662596821471 -0.5243728901998325 -2.362844576552685
Ni 1.811444284292253 1.3861222322928306 6.856902103512956 -1.3058486403290865 0.7288344697844545 1.3438307759998147
Ni 7.08802931355523 1.2472938910653306 9.237567312202163 -0.9621875355924462 -1.7503442972863015 -1.046368795527056
Ni 3.1147090738788554 1.7401619750498476 9.29498601816064 -0.3820908694677484 0.2964301967741346 -0.34988831659327485
Ni 6.508274468253661 2.157571910504378 2.1688714019450517 -0.9237310313884608 -0.05237260006444528 0.6566157815283595
Ni 4.197716656130113 7.233286249475455 10.570293746867728 0.3990254404395579 0.15562733169073842 -0.305212570952455
Ni 7.526236027566993 6.427669780952575 11.309455762447357 -0.1167090573589861 -0.19713085025116373 -0.5673213687369004
Ni 8.053197641524465 4.041333306318633 8.266400794028177 -0.6738987369785232 -0.4604508947348909 -0.8762787514437683
Ni 3.4346369715783234 8.83535248668159 12.700591749147973 0.13499988524837395 -0.12737630726484517 -0.9367428702670965
Ni 0.536069705526394 4.876821677815399 9.678646747232598 0.41955132830705166 0.5938651806636999 2.088835427786228
Ni 8.839070448854304 2.740339587221769 5.500265325909064 -0.010486244243304521 -0.5449388872766421 0.8713008386132027
Ni 4.115106467065912 2.7842683176220535 11.506559955592365 0.30426486232720507 -0.6277947435316091 -0.5378593547220415
Ni 1.107943569926883 3.692082958183119 12.787885105343028 0.6491477552860884 -0.08938980071874282 -0.5307394558478086
Ni 3.344252029103691 8.860535727999242 7.7327468481598185 1.4777960493360873 -0.7923209203738741 1.748127492140641
Ni 5.697841132482386 8.144443392975045 3.2692169590278413 0.9783026959867538 0.5433165211818707 1.7526996848923557
Ni 3.3973932470550885 9.036534533411599 3.7426774636216296 0.2042304374104225 -1.7050764265874379 -0.9005484226244105
Ni 3.87252317160968 4.849898503461254 9.600856172679482 -1.1014168855411355 -0.3565731848126182 -0.2868708352204737
Ni 5.3925561449163455 4.874211778260661 11.549235018452144 -0.3612924446651584 -0.25240236912995884 -1.4180202148290353
Ni 8.197080946100089 8.90986740835495 2.801238159253233 0.8317552151100965 0.2999145557783093 -1.4708479001530281
Ni 5.070036662746733 0.246689537422354 1.3011997637985548 0.007634119506490078 1.309378507859216 0.28624400026975216
Ni 6.063657474633767 5.7198375490805695 0.13413418504588942 1.069166767258178 2.314138112485918 2.028618906197332
Ni 8.159086303108474 9.033127927676992 11.276175422230404 -0.6606562701463202 1.170871895009164 -0.676431530702706
Ni 0.1623668879485532 5.056162986166281 5.476689233264591 0.012689422542210404 0.8886652980335793 0.6760003567025584
Ni 7.689075444698088 6.365865527987905 2.4786014605422153 -0.7645913156690897 -0.2604977445435836 -0.9341933643723652
P 8.885279407286625 1.9747232634536198 3.398850212034594 -0.15281043106723358 -0.4334617677405567 1.2220553598615147
P 1.8729097081919217 3.3128325014815574 1.5206767485301673 -0.9307622272036293 0.35929006952314896 -0.5293119793726626
P 5.048736219363147 1.2936127400052182 8.044634423722233 -0.06033659210652835 -1.9765527816297117 1.6237089819525392
P 8.97908011303816 1.8796496593227554 12.503982979041249 -0.418132336472338 -0.966626030979774 -0.6486337917641475
P 6.760555601002762 8.005120544463491 1.4027166146898198 0.3993961935154154 -0.5697250930823865 -1.4529285966704462
P 2.299715282043511 3.628227415743848 6.145230114155679 -0.02346311611894669 -0.5795757606242211 -1.4903255492616656
P 6.989677309281922 4.260894540439382 6.256059269809098 0.5276867850644138 -0.19601910524422372 -0.02438357105068704
P 2.411446455613216 8.752101269656576 10.5389575528805 1.689767307034193 0.34770956377440115 -0.9591317794852577
