# total energy = -340875.64842445625 ev
CRYSTAL
PRIMVEC
9.21468143650014 0.00000000000000 0.00000000000000
0.00000000000000 9.21468143650014 0.00000000000000
0.00000000000000 0.00000000000000 13.48661771659216
PRIMCOORD
 96 1
Ni 0.565552905560584 8.192708609724715 6.4856741619388485 -0.20692186819965655 0.27364199523502547 0.6030933841301872
Ni 1.3446984369656805 7.950159769473837 10.627831882963925 0.3084845568355074 2.56569613133771 0.14943662949899425
Ni 7.722566356915657 0.11643579099331626 7.505248235435804 0.5255951926427077 -0.00763026285174815 0.5801755989917492
Ni 8.399522916030874 6.522132969830978 3.112145256591406 0.3619406197721186 0.2305071117187643 -0.5028463289819662
Ni 7.324141968390185 -0.09521530150871223 12.509633818553382 -1.05177582547524 0.8501830827979808 0.5925228077031924
Ni 6.90495690297522 4.815362061929284 7.223175784304138 -0.14344467358161747 0.24332328964682606 -0.5588675815425923
Ni 8.776357306353024 6.293968247034383 0.5737917520794014 0.1010456397901163 -0.2913957196740207 -0.532985828679824
Ni 8.146036249118731 4.705725784241231 4.861358986398562 -0.06353838687327766 -0.7176177751330286 0.6464722653364544
Ni 0.9742590354412693 5.68258335979916 10.295684089435202 -1.3306585002839149 -0.6521276638500189 0.8767088970026513
Ni 7.293447865097286 8.065241923789362 1.2418966883716955 0.9492294327698814 0.46693855934176354 0.03958881803621569
Ni 5.026037319685375 2.2723864732948784 10.636490918948414 2.99787594704205 -0.1363833958594619 0.4447494248392341
Ni 6.254815066340439 7.264495336563426 3.71487571518277 -0.5255525123302304 -0.14777312575364226 -2.195442363714206
Ni 9.111181964789159 6.109361322576283 7.710623208528408 -1.1223333239788285 0.8045668276207627 0.938843718660183
Ni 4.0074648820419 7.812391069884487 4.4634902431533545 -0.3702414263283301 0.6013964560437385 0.9680087702599135
Ni 4.030510799885051 4.918068899306242 8.3523566485091 -0.6034641372060446 0.8702243177195723 2.4747189315271894
Ni 6.462652202266986 7.2119071505854695 7.855982041075537 0.40291114864720934 -0.06380012517509659 -1.6777936796120845
Ni 2.5044121475414065 0.3037324809125976 5.34915656851089 0.13625149826728794 1.0134491619808998 0.7354375769232688
Ni 3.5112727252973785 5.514719511199121 0.398810483670465 1.3892817092437622 1.004909757051321 1.9287248635131558
Ni 4.8711477423061105 7.753527685965232 9.566745670369249 -1.1775662763102042 -1.4591581225199257 -0.037118245008536076
Ni 3.153743092224889 6.671244942057242 11.058527006746694 1.265783911097717 0.1251924122396489 1.1179866169743584
Ni 2.304545710908873 1.0175680373856173 0.7305887684804705 -0.8357993032724832 0.8916500916935161 0.9507139877352078
Ni 8.970658075501646 2.1069276565049395 4.38275949912471 -0.28974558566510744 0.9016105453403376 -0.8751940030200218
Ni 9.279091886795522 1.7097196059064157 8.932213503796962 -0.6816683536216132 0.6835293180897518 0.9732795317405496
Ni 7.470010372811255 2.4886642572599404 6.269025026318818 -0.7579506704241205 0.08360661837806246 0.9007659379518551
P 4.603341460708539 1.156709724483416 6.076908136629943 -0.3564531142949861 -0.2079791058195773 -0.0085669157334046
P 5.925712724969719 6.475405321137406 5.673658019526119 -1.1377530009680081 -3.443542484378914 0.8116905831497375
P 0.47450816879229984 8.494369630288997 1.8854159335814968 -0.7159907810525669 -0.11788559416559054 0.10458682017415537
P 2.6079022328258685 7.924404735338847 6.810930295349661 -0.3079479676057471 2.2080654517948552 -0.011560965364722026
P 3.4362467904397445 8.233870590934375 12.972265184663542 -0.7712954671621427 -0.534981261843298 -0.6781364292089547
P 8.977974532425861 3.888964080977152 7.220141389763655 -1.614533486100858 -0.11235155172123877 -0.5529764128691379
P 8.549132481045433 0.37760842354839047 5.490523601134127 -1.2849769390863999 -0.39419768003361144 -0.7802094818223209
P 3.217766697652406 2.932977758483892 0.334881789459975 0.5026663517606762 0.4919973020826043 0.8750829313634542
Ni 4.774596312014009 0.5162193450053393 0.26259906521485826 0.4833406548488708 1.4130042496716826 1.1278136303671094
Ni 5.41813122218196 3.542879082035488 0.5912572589486178 -0.6548676884890012 -0.2626857533338379 -0.5453376653769576
Ni 5.141921151270933 2.995057066164545 7.905733948160201 1.0886845255761315 -1.3382003171869146 -0.3876758197546936
Ni 1.6287041282266908 6.803116245637149 12.953289391535032 -0.11249913304269657 0.08543647249794963 -0.06936939173275795
Ni 2.4918617516588104 4.336189421480765 12.3809305223923 -1.4083472105156454 -0.7505461504299333 -0.08199556513720073
Ni 3.0663049817036296 2.5866347484668144 9.77670494739107 -2.3198852993823404 0.8684718538048397 -1.3963491576135048
Ni 5.067236159620094 -0.1418240808139689 11.461116431203836 -0.5471999153966769 0.24467851812313993 0.875440571813189
Ni 1.1351012969175658 4.182276600315565 0.9545165808315319 0.9949215354903577 0.8317634426402127 -1.617020257078454
Ni 3.8677703140682156 5.282426611195915 4.947120946397761 0.0031714557494461506 0.15685091968519438 -0.15980203189371833
Ni 2.3867038090654273 6.712010691972518 8.70731077816809 -0.004423325878676253 0.694992581534345 -0.36721703767970953
Ni 1.7646667502881492 0.15987103407099135 8.430120265170492 0.49455760661061277 -1.2272980963176927 0.7383982022134896
Ni 5.08771118139038 0.3648884775305228 8.103609092171421 0.0886935459826666 0.4377668228738138 -0.73270063760808
Ni 1.0163977728649933 8.19366693657625 3.880180646795587 0.36717692847039346 0.2669280735499596 0.92684052355172
Ni 2.9870218641016786 1.2840289755185341 12.014404596001029 -0.3671928693099934 0.12279614409333044 -0.9804580517668599
Ni -0.08327215312146342 1.9056605883201634 1.933738643601998 1.7742154474769443 -0.5067472066982692 0.6825782670303921
Ni 7.924764107908173 0.09251171402563314 3.258502039119508 0.4228058306886073 -0.4418523057970971 0.3411753622003092
Ni 2.966924644263248 4.074040954179754 2.4859339472011937 1.134587715866149 -0.016469458409932927 0.22305476920577713
Ni 6.907813454167294 8.95380442346841 9.865204589194025 0.7789717527604778 0.3174168263281308 -0.35913528911283954
Ni 0.5552527348428411 4.071285764481592 3.1222463901938307 -1.007353076385491 1.519514512120796 0.3858385094356387
Ni 8.54798064588734 7.504215269666024 11.703241396116534 0.24211127161659596 -1.7522096326298147 -0.1924324163342299
Ni 5.063181699863602 7.525878985319463 1.2507612117483895 -0.08320192674047605 -1.2985330805042796 0.30031281965799245
Ni 7.18181200157478 3.7213029553649366 12.090927916564185 0.526849376764783 0.9531807041081456 0.0754510791504636
Ni 6.173486289497712 1.1574376843033316 4.580338851867332 -0.127589965937548 1.5749541811463392 -1.366495821697498
Ni 3.5390918480356737 2.5755587015865786 4.662647149328501 0.10040312111011096 -0.13600621502570123 0.006654529202040152
P 6.2562894153428 1.8096620389039473 12.472316202367379 -0.8153127532833572 0.3288914026266336 0.4951003664879603
P 6.8441584359903676 1.768315764068992 8.765842433561813 0.41760243211079695 0.022022527017678203 0.197831218752298
P 3.323136577914878 3.9337197878800665 6.655848131131963 0.2484595824321269 0.14817447495711902 -1.611368200998999
P 1.7217171209131266 2.2882910131578456 3.2017230161023416 1.0138019173346282 -0.7605816802890644 0.46464616376316104
P 6.91906457999156 5.790616282947147 1.7314118870717752 -0.8769354111911607 1.2426218711589567 -0.19886068845807686
P -0.2740971444970194 8.029995767951673 9.249971651062644 0.43059833014983256 0.4898566015905176 -1.2597204785124563
P 7.072968186475496 3.2533814407406836 3.414622697915744 0.9352896827603377 -0.7184698387206788 0.17241534978235468
P 2.895363429561162 4.641508670507154 10.42786592777373 0.4693474258935723 0.12964427736341544 -2.772009162308774
Ni 8.246651353848591 4.2729306345982225 9.405985419556208 -0.4104257118566996 -0.6528524578311853 -0.21746441960219323
Ni 0.42443835520400125 8.920622356234027 13.34995746181144 -0.3218838609605489 0.4130515795153209 -0.7099885407225449
Ni 1.5192337148014026 3.7031500332733693 5.2956413855977 -0.35549306437456196 0.5940824388808285 0.7167171176956302
Ni 0.8356407422393085 3.2020095926896754 10.837022655568262 0.09082216228989519 0.004409956142237567 0.10656374139486807
Ni 2.9114891217744834 8.147621174296269 1.617544227746946 -1.3823335600607032 -0.3627286628910527 -0.2341783899227644
Ni 5.157051657907661 5.208082562751873 11.108090934333557 -0.7780299576724988 -0.4892377370595961 0.1664532186616488
Ni 9.296691928011203 2.568960989801014 13.209130409510319 -0.462514462132139 -0.7838187964401341 -1.361477028326668
Ni 7.9705979325190635 7.052907825362125 5.467487819440366 1.4104825116910933 -0.23405420564007434 0.1496934827048067
Ni 3.4067690250737934 0.7110674662210872 3.0008263781044078 0.13431648602810417 0.13164382429194746 0.8139438979602885
Ni 7.8721482778864225 1.6756621439518817 10.87199421390426 -1.7915110013325986 1.4144471527657962 -0.6684806512867455
Ni 7.987230432201946 3.9736193577564554 1.2820524263872441 -1.0634046679634201 -0.1729568241081215 0.1963654328400489
Ni 0.5022075006741531 1.8865493393770618 6.730226273896685 1.0925812895273765 -0.775529045627516 -0.6264731965067082
Ni 5.6649556745396845 3.6780768855519717 5.066099067952023 0.4809603275421524 -0.25991616100850073 1.113175311628644
Ni 7.084283815068615 1.645198407690602 1.0835838569025742 -1.4831853386724585 -0.6677211474129016 -0.25742321938331797
Ni 1.4816746739662616 6.352555190515694 2.2046576445308035 0.3652871676468483 -0.7539454059194692 -0.0817166004442012
Ni 5.993882936966375 5.736949979261214 13.238396237207182 0.5048183651066726 -0.12973529441532494 1.0784152824396394
Ni 6.185926109205131 8.471627796927581 5.72556800496299 -1.052569010800497 2.833655731475978 1.922295305837728
Ni 5.4780819384904555 4.741616967767451 3.0016216050975566 -0.5829595894947895 1.6095278053561506 -0.8632121480677972
Ni 2.799604461857829 1.9887862280095172 7.379944235193287 0.8967493605932944 -0.09304925184820104 -0.514128586764005
Ni 7.40267869680969 6.651986258213904 9.7635150526287 0.018159444517846145 -2.022303762612582 1.73919573686865
Ni 1.6078052311182267 4.415739764839394 7.982944683945708 0.7949642715339921 -1.3678284244659926 1.605959628388918
Ni 5.0711247551138205 2.44940050039082 2.7283021796992823 0.32813215586310585 -0.5934304071191263 -0.4880740557687981
Ni 4.2644162691095895 6.8986172022650685 7.168420305292712 1.6138585715210205 -0.2906141043129898 -0.8676056491498026
Ni 1.811219320037691 6.054395748832021 6.314730766860128 0.47420706797871887 -0.6916084955534605 -1.2175800976989806
P 0.9254672981443921 6.050175424812763 4.328098009862184 -0.5029550866456887 -1.5702724593999535 0.80560503907729
P 5.649815953221692 9.422564474087755 2.3839218967915983 0.5954821474418325 0.08209121017480056 0.3065783409517301
P 0.13415009425668104 4.931844847797051 12.375010089679694 -0.02868811196331188 -0.5780760361502432 0.00401194937287051
P 6.217808906381184 7.1687824422664175 11.731536917876216 0.700633067649574 0.974104084524374 -1.0720674858447408
P 3.693916922646085 6.487107966343645 2.8666615403577036 0.06839597207589511 -1.5450131706125325 -1.0001254482888
P 5.9902892112731205 5.021116679889997 9.227611305505588 1.692440225880666 -0.4907418324089484 -1.4499777415722384
P 0.4716368741102022 1.1222468165532327 11.615686259143214 2.0661058473991964 -0.9962423111843101 -0.03422935349651524
P 3.6540634261760205 0.5453266801844471 9.847550181358882 -0.3946789905454041 -1.1983698433191166 -0.27726493669959346
