# total energy = -340859.8158716456 ev
CRYSTAL
PRIMVEC
9.40264019274827 0.00000000000000 0.00000000000000

0.00000000000000 9.40264019274827 0.00000000000000

0.00000000000000 0.00000000000000 13.76171435552459

PRIMCOORD
 96 1
Ni 7.87200324610901 6.4212792851064044 5.39084864180523 0.0795671582013662 0.9041361399756686 -0.6326222468272396
Ni 2.1839418474299146 2.961747053906446 2.7399989473875035 0.8542510822197674 -1.8314852277326907 1.263287112817792
Ni 0.7657284553438402 2.672644074245244 9.652521992967886 -0.6542616794738861 0.4155725461649617 -0.26691804624763066
Ni 5.5160212900876555 0.5320540399361524 12.985085671598325 0.021090502121712065 -0.20058152780392552 1.8036139552437198
Ni 9.280058025672693 6.1320352658415045 2.9581354997877396 -0.05018356283292648 -0.2408689145690626 1.1924650477989076
Ni 8.764642897916866 3.4728275645086053 7.337814806836887 0.5110291219030748 0.4682994442450322 0.43163808426825656
Ni 5.605590841076455 1.82363267318146 11.279156189287416 0.8195722998906595 0.6415072080216951 -1.8529341416350862
Ni 3.808633458274506 6.898604317223389 4.43793242443273 -0.7623871089289193 0.3249843542627435 -0.18904910168429376
Ni 6.839085604462618 5.4598593198949095 13.499939461731431 0.2680513885211255 -0.10702114064726084 0.5973806500161261
Ni 6.0499408138487265 1.0351836779458148 8.267033549995963 1.1088093213504646 1.1471406128304953 -1.357048046021037
Ni 3.367292330381135 1.8238489339071309 4.486346619062305 -0.22515458915759934 -0.996648031263161 -0.04900702602632205
Ni 4.0801346953941335 8.118201978325125 13.547389885735733 0.181553564638197 1.0985027972181338 0.8341735947436021
Ni 9.383101560134822 3.976564613078196 13.675579841273281 -0.47652903124367607 -1.9544680339155307 -2.3604912458291607
Ni 2.7394216252763646 6.807868838844015 12.313802976475152 -0.7128334663705078 -1.35109928463677 -1.0420537130914698
Ni 5.19479889134418 7.207142554274244 11.8245469341493 -0.9018360310875823 -0.7771051318653842 -0.06586343546202851
Ni 3.180678129407516 0.08046873549414667 2.652474470652333 -1.6258429975764066 0.8045606569731757 -1.467394908607421
Ni 8.882730656773504 4.9273031789695905 9.461743362629061 0.32906469497970425 0.4537462290212057 -0.2795920421708733
Ni 6.506269750295125 2.854613370937059 0.11586967602247214 0.2151357714690166 -0.7178404326667961 0.04750524466981496
Ni 2.89763985270535 1.9278045244731776 10.259619444975916 -1.877305371390599 -0.7546915400568744 0.8183777653619262
Ni 6.683669363827109 6.7974883240118045 1.959379530685175 0.5952854580499941 -2.83669066164756 1.8024836982940182
Ni 1.1391392685118615 4.514301608779373 1.6748142652069669 0.23468926812091193 2.0197599131448056 -0.9977854873017138
Ni 5.2294194127320415 4.401742602387718 12.036009492502524 -4.98505689780957 1.873093647302097 0.2658636368411873
Ni 6.617371347448564 4.81141563793065 6.681794477361943 -0.3164493202085389 -0.6980987312634945 0.1753554062472851
Ni 3.552129432348153 2.1859822203634196 12.488893301562578 1.094619660113644 0.8593241258673008 -0.4436649335258037
P 6.682550449637767 8.64712870011527 11.358864251185617 0.04460246920072318 0.5109802709430102 0.13130212468181257
P 1.5149345912464125 3.347659617546303 11.62105217314102 -1.035697688966455 -1.5729813736906846 0.7306722943241417
P 4.513737450364579 2.1140990356784135 1.023873241993219 -0.13800267663043977 0.3924066495714597 -0.6091269919187767
P 8.75713018835986 5.824756982583689 7.320475397958192 -0.18378142552745122 -1.672346026233952 -0.3821433199722386
P 4.0770976425944925 6.4674368460768035 9.774339779210337 0.4682325955628388 0.19257125590493934 0.5405376728851529
P 6.855859914662493 9.189764471384908 6.613604649765789 -1.709488439612204 -0.6506503079735438 -0.9453010442497526
P 5.387336755673137 3.1159597565903945 7.41292591791854 0.583334456335705 0.664430649587088 -1.2464921527476405
P 7.216723844685496 2.3320804445145806 3.6592123410602078 -0.6131991051056213 0.9749072971519596 0.853948206267368
Ni 5.403857194586356 1.2836014332601198 2.839743095387113 -0.7185775679431367 3.1341930084399503 1.2638149602968043
Ni 5.507765771951169 7.125386597330342 6.566209701338942 0.2950307453234467 -0.050414705007126075 -0.49827130801677416
Ni 4.641077407223839 2.8680027306481706 9.372896874675224 0.17228293796954847 0.8761617662499297 -1.2415497211407005
Ni 2.4758844244455793 1.24388468085862 0.297203354233619 0.9553617709198644 -1.7915449398943275 1.5960328561935093
Ni 8.74611969663113 0.8495915439669975 3.932258431972347 0.2116293009776549 -0.1180275190600935 -2.383998584922481
Ni 8.876750577576686 4.0147769430402445 4.977570633991764 0.293627694328333 0.3428661196391708 0.5115091468632867
Ni 2.713366909153127 4.778440578585939 10.488490991745655 1.1060263592886888 -1.4630302038808223 -1.2838186571122405
Ni 5.332227881188007 4.254591282528941 1.9329016957508418 0.4798874061929478 0.31410473123576227 -2.316277013205792
Ni 3.8632063822655818 5.477084956826621 7.787547791150319 -0.15028586487316697 -0.3237381405604683 0.4884934026944039
Ni 8.036304981777525 0.6793275941181343 10.378190499541226 -0.5372898553718166 -1.5396359654610194 -0.7040994289316197
Ni 9.180277207376122 9.338203952957464 12.572110428800798 -0.8015972034694776 -2.0766124033574753 -0.8785850309794417
Ni -0.02455123394781159 9.29699218075676 5.916285103535849 1.5371664208746043 -0.8156092014778533 0.818547458170571
Ni 5.8883188306504834 4.685251011102212 9.665113068522064 0.387804632023074 0.4998383953935779 -0.4649343844275412
Ni 8.43164839358469 2.211002646059535 12.020362558868209 0.9370364902481153 0.6753138721584949 0.6093013127131118
Ni 1.1365911530050419 -0.0938223651723214 10.458586834705473 -0.31350694975076326 0.8702914235120819 -2.338597531079863
Ni 2.729906153346838 4.4148216749706926 12.932268220541284 0.44576835302205164 1.0486079692702197 1.6420183217846882
Ni 0.8537964046852625 2.0993086825705634 5.103972207354416 0.7383367528479349 1.585051160371025 0.3363108350191563
Ni 5.558859719051016 1.9204516598003623 5.511263554122893 0.843528810706257 1.3021197694142734 0.09781607710922509
Ni 1.4406349280180384 4.9072191394029225 6.669903898506135 0.27680239524087813 -0.8492058064863761 0.22938919606423722
Ni 3.545209089126679 8.443599149338075 10.631970580588147 -0.49206697897827517 1.041805858746722 1.7900896955050396
Ni 0.49014271130110376 5.342147666648136 11.625593648380113 0.3732586158880991 0.22115703796243202 0.018955200946264128
Ni 7.832897665323538 1.656481937518235 6.142679054600619 0.2742469758088761 0.6167739669410732 -0.19312635707746095
Ni 9.088178346160996 6.181747024825106 0.47829350406237975 1.8430580201719549 2.1137206210636825 0.23652940665344424
Ni 4.534695935474177 0.016550527362007565 6.177440615592178 -1.1806960801884374 -1.0902716675575934 0.05576877023018782
P 1.5684168089688868 4.496163915743746 4.449382019460975 0.6386124029724034 -0.057896872316784156 -0.4743988722745508
P 9.110650656350291 0.9826981400894766 8.480133108016112 -0.5103791470239016 0.2547731833549806 -0.3619408768824347
P 4.682890948400323 5.428990451965429 0.22749500023764382 -1.1667223916171647 1.0160981695679727 0.1369968610737447
P 4.302300279140023 0.6963435521723469 9.330868953301119 -0.32576545540314217 -1.1425923313381807 0.3252486636677237
P 3.23983013919867 7.259571676289103 6.566856602987905 -0.7587266293581966 -0.060586760444121465 0.16167662320861187
P 2.4037473684739155 3.5720630296708755 8.292520346648308 0.20320739546254682 -0.19064164298239425 -0.13627643796795239
P 1.8923565707436194 8.960387062569902 12.286445054413742 2.0070710048232274 -0.014234398431827099 1.948715961923102
P 2.168530920065791 0.5779737141083126 5.691679534645974 0.4079507679536458 -1.0734132012393578 1.2188484228884429
Ni 3.0836428820629425 5.1134848584918675 2.4386443274850254 1.4421068234645937 1.436322869792965 1.0650110932185917
Ni 1.8497720130669166 7.878613302202346 0.44878425791255333 -0.7846595471738744 0.44494842822391756 0.06301465315932372
Ni 6.982955402875342 6.202310599044348 11.076666570521494 2.2865308922916103 -0.44571127453187104 -0.14783740333267442
Ni 1.7643772343475934 6.719324175642091 9.899365746304916 0.6982547972253846 0.9485660881542696 0.05613823775446461
Ni 0.31720371030209205 1.5424373139676215 0.31645337961041603 0.510112009405444 2.029367097217266 1.312128045579895
Ni 8.30600091196981 8.25073219260049 7.77245091197043 0.05542012864151745 0.23229377130554185 1.6804671126791897
Ni 1.174088882308352 6.905778531731519 5.147349407603905 0.4220980059883053 -0.07288177576139061 0.15118060877329445
Ni 5.688550335971916 8.278140888919234 9.282276108506858 0.32518772852280126 -0.8083900580215949 0.41793050487417704
Ni 3.0563376147869112 8.50875004360654 8.448756497513317 -0.18996749973350507 -0.44652348602052133 -1.7294160317740668
Ni 9.049608715869578 7.4388518178703995 10.269032428126753 -1.3205486655434224 0.16450920756140056 -0.01976921220712724
Ni 6.561989796396283 8.02640400159789 0.12609692781866327 1.314675237481781 -1.42501978607532 -4.8141633839883795
Ni 4.765709403692086 3.5152052640998837 3.8632985281399983 0.48542042019603493 0.5024192687468767 0.8877242742765485
Ni 6.319693159882493 8.998552379330718 1.8944928506076395 0.5658717807745673 1.2821207005845272 1.1226526549914602
Ni 4.246175919508263 7.363668306458848 1.9529528260766462 0.1991386247098119 -0.9742254405935866 -0.04545556122963784
Ni 1.8301863134333174 7.431950279929419 2.7111817355598244 0.01662115349644879 -0.17666589752859252 0.5798392986982531
Ni 6.857505376705643 8.766777297252837 4.261232367335092 -0.08664771919723141 -0.39360915451999307 1.2614341187694533
Ni 7.680800556695066 2.828558654813821 9.381347027464814 -0.8360618129052504 -0.01541144945906378 0.4562180876004659
Ni 9.062847633336744 2.947031921920568 2.3754924345329815 -0.7351953790054757 -1.7130622730063916 1.226886719811887
Ni 8.994208359536804 8.201086252098614 1.6384561359015408 -0.16464033382262616 1.6009102388904686 0.865379073812129
Ni 1.772012178227806 1.1373715721455069 7.824842423424303 0.07927970886793444 0.4005295357889102 -0.16085078487320684
Ni 7.252294032738259 4.742870390533175 3.552077717826797 -0.8806038611816835 -0.852718704735641 -0.4296256818239182
Ni 0.9980808595328605 7.040753432470991 7.735459984976411 1.0623219764222027 1.0395489443917452 -0.2440830506309861
Ni 3.667904141704135 3.808172728902424 5.887563798638684 -0.42968018921093737 -0.3379074900823148 0.9809964407688331
Ni 7.137158702919045 6.339880628491873 8.578378475160418 -0.7090894259470434 0.48640463848617516 0.19355804529824083
P 8.97173604934751 8.009328806910124 4.053471628446943 0.2884937155358774 -0.07409585067414981 -0.37040289160685885
P 7.973796229418346 0.6092506566244936 0.5130475429417415 -3.255210977586936 -1.2241433527387948 0.346503459281442
P 5.709311365636338 6.02256972809097 4.312425982421551 0.9602530375738948 -0.7081278333647224 0.22467276442517436
P 8.257163598529143 4.743284106704024 1.61068449766928 -2.6821822740526127 -0.7671629330510077 0.35333719437382377
P 1.1668958625197279 0.9338551850646588 2.513700903253248 -0.6811749589249624 0.5272507259682597 -0.5778742045520822
P 8.761069894623171 7.002306036502778 12.435841724763398 -1.0846502076057576 0.8830158130572858 -1.8056147877238322
P 6.888317828793643 3.5684148052552076 11.786908165242291 3.7684185951985683 -1.0112778653611938 -1.680483310629106
P 4.796860350828964 8.767031168539495 3.616468878763338 0.7471476662713455 -1.1700414286880687 1.2691983360959043
