# total energy = -340869.77323184506 ev
CRYSTAL
PRIMVEC
9.28625471890757 0.00000000000000 0.00000000000000

0.00000000000000 9.28625471890757 0.00000000000000

0.00000000000000 0.00000000000000 13.59137245013297

PRIMCOORD
 96 1
Ni 5.154456336425642 9.28377516891563 7.638826601776827 0.6888368463455943 -1.238089530506242 -0.24476002209335268
Ni 2.368839971886351 3.1757876377664025 4.210715639925669 -0.8770043167558832 -0.6066034541659746 -1.7268724394166068
Ni 5.272224617248811 4.640889312088435 7.4149359320229635 0.852394488627003 -1.260475868621242 0.3294315914008198
Ni 6.378700425216173 6.650704108672364 6.821088308052861 -0.1606247849053298 1.0616393485328812 1.15031283991089
Ni 6.166713805232631 4.872832093204998 11.484791161814396 -0.8721680717095044 -1.9519079864978381 -1.232875333295154
Ni 8.271081246142494 4.61205549155887 13.220150703728029 -1.810423007745753 0.0297332653983746 -0.03034673061265741
Ni 3.3876163914217625 5.986941202452651 9.56727987869255 2.209882964619568 -1.7655145772688368 0.9147583955762053
Ni 3.521022724989467 9.383295959451972 1.2024139614794513 -0.432106539264243 0.17689035483457277 1.6083443265710107
Ni 7.538739349709953 4.593585131161671 6.161975029510815 -0.6175357848077623 -0.5668477715345915 -0.40003896930573685
Ni 8.257792615811477 5.8096573159051745 3.5093870479770537 -0.759535241302421 -0.47829100824010534 1.7305308621048001
Ni 5.539835902279724 2.2183840748750776 7.051407851865538 0.45985105636736284 0.8304763483976729 -0.5579101027253295
Ni 7.235134541853728 1.6795120067558846 4.909067987275341 -0.4293744850450606 0.6795063129732877 0.32701166910541746
Ni 3.200581937545448 9.176379634479428 12.62896730620235 0.22884489352499296 0.11132388178767279 -2.2075340047714174
Ni 1.45882416621318 7.992493608175688 0.5275214791229654 1.615169062802328 -0.16424001306041394 0.6653500760775638
Ni 6.697181812939825 0.4853999568878442 12.261456351447457 0.05857770043389267 0.8000496564766996 1.7080020848746649
Ni 3.5435140336279876 1.2822738937790161 5.9829221114622495 0.41454770444487316 0.9189171549395851 1.2159078522028801
Ni 7.39248083977738 5.150008220472772 8.973214027739374 -1.190142313203002 -0.7285017690353841 -0.004917234795959273
Ni 0.9408090259231018 0.623285979674055 13.02440852891433 0.18670451271151717 0.762784601477654 -0.6705534746553742
Ni 4.222339244807105 3.882545902778992 0.19800616368490742 -0.22316352686949953 0.16840288618885194 -0.07104575099391636
Ni 1.5995016371318183 2.397172334667575 10.888660047838426 0.3676896064407538 -0.6067152971534906 -0.9558163419587796
Ni 6.663147689834881 1.1597139055828192 9.096148251995906 1.6331685847035422 -0.7932053798613565 0.05938065595116226
Ni 8.721956765682572 2.4077493786557147 12.980372180980916 -0.1926152217689973 -1.225419134127425 -0.375013908016309
Ni 4.719543888541063 2.013390004604503 12.264337876249494 -0.37236875708397804 0.6896750259761735 0.4879920375779531
Ni 1.8001683127593084 3.474285005593236 6.860000500698605 2.6390725873473326 -2.0078767885539737 -1.571450538868455
P -0.10971524083500735 5.366591536482765 1.61098501956881 0.811709352202815 -0.17733901233621716 -0.9066429655579223
P 2.4153548211722087 1.6258281689196814 8.752721198543247 -0.21684169841652975 -0.31882039154387676 0.11770895937841017
P 2.5857297342981083 2.1681361512404647 12.90457312781745 0.444623440784331 -1.1327385784725525 0.13125687326617394
P 3.24261152586004 7.258015873185402 2.320495730444511 -1.0921370029011062 0.08182690076982037 0.23126635848229204
P 8.57293095187953 7.252444120426065 5.320940308874606 -0.20890855961238217 0.4382707590934258 -0.5708360667583782
P 0.9476065642894919 0.31603074513500473 1.9432537094954399 0.5071938073173845 1.5181425714739336 0.22358364512605367
P 5.408231102104205 0.2827859536709658 5.242736115770024 0.8384773643252785 -0.26581478588112284 0.71141807408022
P 6.256381879639547 8.712029759516355 0.7697339292004455 -0.20475699933785382 0.09929086188253868 -0.4171056949800365
Ni 5.065103994675089 5.521040522971564 5.08841992272199 0.042035736914811474 -1.010760302294827 -0.0040685136424188
Ni 0.5680132636759808 8.87498495521774 8.013337535248365 -1.0289788821853827 0.39173944830110596 -0.5830534347601765
Ni 3.847369570358383 8.089247094841559 5.851058224783421 0.30739955130144475 0.3572409003036041 -1.3206232275350998
Ni 9.52221832825142 1.9723169005135968 8.723363633254303 0.4476270034973452 -0.6208363099359049 0.1604401796983495
Ni 1.3854720411365198 4.991779728362226 10.414048861543579 -0.30769265706183135 -1.3460475811454753 -0.6658126175362791
Ni 1.6373988421499026 5.568697581573085 3.2333605590286223 -0.13937024640192772 -0.13849375733424538 -0.9678352207965266
Ni 6.687421959356388 6.521950188658705 12.626561237635775 -0.22995561009066848 2.130665476448137 2.254032148332957
Ni 8.762974152245885 6.518356408128932 7.479142024945174 -0.1093050515854311 1.2886926973750903 0.672560477783074
Ni 0.3186216101680959 2.2573677716812326 3.1968265761856554 0.31918008887614063 -1.040620580189369 0.1593870558434868
Ni 9.064554556599552 0.10560885905137662 4.433465028989329 0.9012760448190542 -0.2095217677163488 0.6801935688482995
Ni 1.7819672537454772 -0.02717715270912182 10.291400653928692 0.15716510849150353 1.1911429865533745 0.5103549786541856
Ni 6.422355108085571 4.818293919945696 1.3928026105168863 -0.5885432542301542 -1.2431396913356396 -1.9836693380698354
Ni 2.457272974431614 5.834033734227271 0.7693448351327519 0.7565694738058776 0.38600048893479977 -0.2449788229723781
Ni 9.24391856417718 2.0925274662962736 6.242693940360779 -0.5244340824550711 -0.6899866436793214 -0.5228358847300157
Ni 7.068037676601237 8.951615128167807 2.8625195533745686 -0.047764668978788706 1.064463705355554 0.1441519840612872
Ni 9.455450157685375 7.8245331212455005 2.6362367444360304 -1.9093235761684084 -1.3800491349019006 -1.082109186351459
Ni 9.26766351718655 4.055901703631136 7.7817402028028795 -1.7719827014916836 2.111015820538009 1.220594459045272
Ni 0.6204063121229381 5.453733749638784 5.6787471275736525 -2.2692294248986857 -1.8214347854752242 -1.3940475060635218
Ni 4.61717221784286 8.828256522076106 3.253339935798142 -0.5834005336869501 -0.053599787603327044 -0.06853763986008196
Ni 1.6989109926129733 7.745349228280735 4.175514234617644 1.766202347364481 -0.191982730391321 0.8336259497702483
Ni 8.44366628786293 8.10341791935947 13.220069913313017 -0.7428112436795207 -0.5221072340941073 -1.242382501454641
Ni 0.40838719024830034 6.250160089058288 12.967297134505676 0.8446564965527968 -0.4812251511677648 0.8926888173706755
Ni 1.6974066193679527 4.034691898127263 12.63432176060407 -1.1004632633786144 1.3310351668970433 1.0545495315656355
Ni 4.86181859525071 2.057351133875665 4.04672224096013 -0.1211642649168623 0.26491541399530505 -0.9078853226054558
P 5.361846260382732 4.048156967295658 9.656398206827213 -0.3233151940904367 -0.18930569777979012 -0.4321134812427784
P 8.966222406651868 3.7447193120222138 4.653658840787373 -0.07515437384565121 -0.2692734338536846 -0.10380237659964704
P 9.16779913523005 3.658329285488707 11.273500082300314 -0.9174500834757554 0.4895920350752213 -0.5586534086492573
P 6.471869417606872 2.981212745155786 13.24329762194123 0.4347221225102191 0.7870424455837541 0.04624668967236552
P 1.768715768432856 5.298755446637849 7.976082939048523 0.15190103187908677 1.7469352716047524 0.5844037781404838
P 7.012413011553865 2.021933358835485 2.8397403708434825 -0.6856335089169483 -1.748051130376751 0.10753279017635675
P 4.7227847913960765 7.512719264323854 8.960179840784367 0.7409024566925821 0.5209034435939932 -0.670559131082329
P 5.708947884780175 6.066626553165756 2.9041906922616434 -0.17773161978894553 0.5211754663084572 1.457121037485239
Ni 2.2828492543005967 6.814569357324438 11.768552172218246 0.7253053735852735 0.44176540251024565 0.7486047104328463
Ni 3.5756909058131536 4.096139044808142 11.240662957413166 1.1619090293889216 0.3734105680849311 -0.04681027548531938
Ni 8.160899835326623 3.1685257866700676 1.620499716030836 0.7135392341882809 0.9711259757326565 -1.086736143600509
Ni 5.329604384415373 1.742807118101943 1.2071815245905233 0.7470602487638618 -0.15270553005825313 0.3851785072541366
Ni 4.612296934178441 7.371428900601688 11.185087509515169 1.0612557399412175 0.7724599197838891 -0.031237360747726848
Ni 7.286923983751756 8.089404961169741 10.889421520715537 0.22911485935692796 -0.428481798027462 -1.8125943043654589
Ni 4.494231493208109 1.9270092643255954 9.582338469150118 -0.1605479089208074 -0.20608728811350313 0.36957731038176994
Ni 2.927761063684555 8.499188804109714 8.11718850630417 0.09458754286959839 1.6371113714013739 -0.047861342457653056
Ni 6.076191395402617 7.539212948694497 4.620210680347618 1.600557226426424 -0.3636223783499157 -0.16598193545218512
Ni 1.721272293687109 7.137693872347539 6.468868100120509 -0.30473151755097844 1.4251236586430358 1.4258322546742863
Ni 2.7548695755623553 5.099723151819764 5.309550717609063 0.9561457002737405 3.1440896987283726 0.10859337023038718
Ni 6.389240324185916 3.936972640983106 3.644757424392424 0.4706890275231313 0.442260082758477 0.695050431355474
Ni 2.4064678755210673 0.7668273315109919 3.9254734719132967 -0.37503653372412826 0.188725656906604 -2.0971395767765495
Ni 8.729376483107087 0.8974450028226487 10.595371340216111 0.27842578977691407 -1.0133427183100225 1.1418060879914596
Ni 3.258788181371313 3.787092491756965 8.755303705947199 0.05504757579344713 -0.495471890894766 0.08568304129111695
Ni 4.0521221980093864 4.559876026967687 2.564705653886213 -0.2921868481167484 0.3708901156559225 0.7674604096867687
Ni 3.7796634880778504 6.3213113717950105 7.270473383729818 0.2066822413850247 -0.2716787008610676 0.08812636062528693
Ni 7.3427343738911075 6.918203958648091 1.5524333270718664 0.10873683778678693 0.6167189453334216 -0.3525483799239412
Ni 1.6617381154536024 7.145104303517455 9.578329593039774 -3.8091746940700077 0.7149050041875559 -1.3880753476404868
Ni 8.241040212515074 0.5274657615953721 0.8662599026286444 -0.38385027536101635 2.3316982328568683 2.018772609530872
Ni 7.479483759114414 9.009115616644157 6.260281177945623 -0.13985721334067527 -0.6420828780195071 0.9983999809572611
Ni 7.112565267402933 2.5836588995225553 11.061257161689843 -0.3768252501934349 1.055940241265575 -0.23129258373453712
Ni 1.6938592701111754 3.699133088196245 1.511822678459985 -0.11355379955945605 -0.7541158700590626 0.5245086444467484
Ni 8.538488233572231 5.982084491297429 10.934054974819658 -0.5348701901867304 -0.3882448048842862 -0.21188743973504798
P 7.583211222984055 2.7571075629206883 7.79012569070568 -0.6195029358364621 -0.32901944356406565 -0.43718961021410513
P 3.4065789233127033 2.4391926367275683 2.2698819283787017 -0.06707082550656837 -0.4578250270762696 -0.06645813162323394
P 1.8531092502276005 9.36268047424243 5.886545646733093 -2.047829931908144 -1.2393876804923751 0.642370584463255
P 7.641417466809918 8.354676110041733 8.482524620232 0.12035153920757982 0.0367372075200335 0.3083467457060625
P 4.869507614058595 0.30986838658317895 11.075364839676482 0.17619924230481912 -1.388404191734815 -0.7789835798350198
P 4.017057300643964 5.872274530665513 12.699152818460787 0.6437139858650269 -0.8405668998644555 0.005378490703093963
P 3.899372596112187 3.449769293452157 5.635566972314257 2.484311717421947 -0.5836350182952594 1.4806222059309726
P 0.31479288739697214 7.983003055975619 11.405893285491278 -0.12156612834097127 0.3270579489623206 -0.7329688036678023
