# total energy = -340886.0573106313 ev
CRYSTAL
PRIMVEC
9.12732303155499 0.00000000000000 0.00000000000000
0.00000000000000 9.12732303155499 0.00000000000000
0.00000000000000 0.00000000000000 13.35875986063535
PRIMCOORD
 96 1
Ni 6.546271294443637 2.1093791331963567 11.224510871395045 0.10940403905714062 -0.7774548018953191 0.9391399097443632
Ni 4.818094810671986 0.48882200340774684 5.693169611377697 1.3603082048295476 0.13956873556597899 -0.074834014391755
Ni 2.897715156983288 1.7776922116090519 4.849884364309752 0.2965669794623151 0.8134031949654701 -0.11001236206510086
Ni 3.830573214793702 4.719081609643393 4.795955575751727 0.004390415758211794 -0.08142015224970493 0.37439812880918105
Ni 3.667038966745278 3.20981484319012 2.8554748183918215 -0.07750924723107296 -0.5088285147073301 -0.8604222440274858
Ni 5.277911093988585 4.892811077598615 2.7004335444913603 0.13149341475701226 0.48122669382966154 0.10404457451744017
Ni 5.114541137756027 3.050451781800072 0.7949889295971949 0.14462866658738963 -0.5676353004328933 -0.263935566580539
Ni 5.530865726483647 8.627866856112428 12.602988574166613 1.7588086260035711 -2.4811191786265785 -0.44283626697692124
Ni 2.09348846367287 6.603791684642955 -0.041795837956317694 -0.3915491866671708 0.3492946488733339 1.0270287004375473
Ni 0.8651132402703678 8.930072524074884 12.851060088801214 -0.16851781450016137 -0.057302176155578734 1.3322155603583894
Ni 8.2140157719459 0.00041803139814800623 7.081411724405569 0.20935901688623945 0.7932048656407243 -0.29088407014492484
Ni 8.989299723694588 2.1449483113313517 1.10846410339575 1.6896240965881093 1.4648538873531223 0.383483636050217
Ni 7.421700235285771 0.9313155402058945 4.732353650168436 -0.9948937675762155 0.16218004520759163 0.27120973164444906
Ni 0.7159125404239443 7.693886137560262 2.3989927462049923 2.2639416941371846 -0.1302294604429241 0.26172107542772344
Ni 8.072441863284904 4.079101095583485 3.673939223011651 0.5970641472169718 0.6988934592506479 0.16954162777898543
Ni 7.991893236895031 3.9553984855594693 12.760982537091111 -0.3420518512679916 -0.4626615292329645 0.5673298533773327
Ni 7.861564190297752 7.6383646311206475 8.96591917283223 1.1817255498942163 -0.08837652896288005 0.7246438287418745
Ni 6.8644041412219945 1.4369692401491159 0.3234330833046573 -0.14542390879517536 -1.1734939060130436 -2.5582741278420267
Ni 2.1637779788942195 6.357518252659777 8.969445057747178 -0.7190390809605874 0.35415043430373844 0.16785524121549802
Ni 0.2229795906903052 4.917473104624726 1.3526683712313254 0.3676502685623862 0.15419831255369573 0.4172998132687135
Ni 6.877492722552655 2.301755722252372 6.935293321571255 0.25121271969723186 -0.08063776555772564 0.07310443329515798
Ni 3.7260653652567 4.908966439492106 0.6191428354142327 -0.11142209792843391 -0.5111291378160487 -0.6423934672813905
Ni 6.232948546940913 6.198775849240779 4.795607824741479 -0.10250602638572669 -0.6906859837391911 -0.526857347184583
Ni 5.726756334934576 3.1754413443817056 8.992435871913008 -0.049161806436631456 -0.04474619386743907 0.5591835701211143
P 0.21724671904889117 5.769152750751115 12.441854812094455 1.0888513901712988 -1.3460786914937268 -0.3512247760165112
P 4.524961701874576 6.070317903879752 12.295709940023139 -0.8524250847546222 1.0761066889111208 -0.3186856657382254
P 2.4165318102810005 8.645007968901117 1.2186345441862674 0.38055257844635104 -0.21021596556989602 -0.42985528133622103
P 6.783536058523493 8.235172906900205 5.6576351170704955 -1.1857804366898803 -0.42759579587808294 0.131340948339548
P 4.840100786674929 1.409514252253282 12.414082193354613 -1.492753699087184 2.180678832251786 0.7567509936890645
P 4.495854668496977 6.147699349152651 7.895280521842702 -0.40635874087617757 1.245242339500939 -0.06278042566133059
P 4.90934978706246 1.6276298924616424 3.5856515393621784 0.5103927738706564 -1.3696747336461121 0.11035611855776478
P 0.4424725439550091 6.01437654057737 3.655317658415547 0.7371159930669563 -2.436704657066945 -0.592201934028664
Ni 0.840664792604882 0.48470284249106144 4.7992952632753605 -0.1301584979956726 -0.5956664955384967 0.07482193020689694
Ni 2.264543625958717 6.929016461472862 4.7019760934148085 -0.9183057466078314 -0.3565577581936505 -0.8102983307879014
Ni 5.771179016480128 5.579140138378949 9.556977235056475 1.1930851978814097 0.1603206234013497 0.453479091402748
Ni 8.878466639246744 2.5102237819401556 10.263601811490128 0.25108030788442565 0.2512407447216899 0.48211886662662784
Ni 2.5115837530826024 5.645979525467111 6.755338106527021 1.2146030173485276 0.15705686504841337 0.35254220927635416
Ni 0.624249572690735 0.41192613172396253 9.12560899238939 -0.9686098941790222 -0.47256644705150225 0.09235479688433772
Ni 2.137345251185996 1.1334492376597316 11.13972260342352 -0.6111303955020507 1.183384168543562 -1.319923630364914
Ni 4.396366846666994 7.151814418433404 1.5382615337566952 -0.4502233034696117 0.9644513919259583 -0.4977977108144652
Ni 5.888675046793651 8.230125497223876 7.896670613151391 -0.6364997275047748 -0.41389053047684843 -1.04730030620239
Ni 5.946049399823309 3.310489217023581 4.642075297350053 -0.3438421103991949 -0.4446694635309181 0.23203974631320684
Ni 1.0920020634459742 7.74006126514172 6.7541086561049575 -0.3105622653001426 -0.0627428875551758 1.1868700702096333
Ni 5.597203110801108 4.580966956438685 6.860110648434029 -1.0539054702237334 0.4352515126511278 0.49251795047276464
Ni 1.0774987470342452 7.296245179225851 11.042818726764184 -1.0474494301857444 0.1021383586336628 -0.07727270574023465
Ni 4.6285203098087955 0.24702643613922956 9.94854943625926 0.03151478277882959 1.2782632745116502 1.5874736537695888
Ni 8.78472903097207 7.566642126172023 4.815859529243897 -0.8905434888928986 0.5775301909491021 0.5410040709986103
Ni 7.549583159291267 6.473654311830853 6.766719878437295 0.455478381220964 1.1451374663575373 1.5152014865677388
Ni 2.5760135268713964 5.723260570185871 2.4783037075820067 -1.1560512850565638 -0.2210300254662645 0.5232326059478021
Ni 2.668464182588452 5.519712137650965 11.185116432147302 0.7845104231905199 -1.280544100126027 0.572133445413563
Ni 1.4328345627831542 3.591994116186917 3.4744533619901876 -1.0737394742305248 0.1941653398649366 0.5528226609000931
Ni 1.987784934809288 1.1751154676279774 2.7068053287500313 -1.858058350235529 1.5784480532322105 -1.6875440741306291
Ni 1.4224202871218687 3.6858047430464196 8.016070603064337 -1.401822007802618 -0.3195346440020819 -0.09401033020988972
Ni 4.23992452867012 2.565900452872532 6.755044206723083 0.041163104501871044 0.5802306205994008 0.13260233155047485
Ni 4.3325303488799385 7.254140837748629 5.90099145658974 0.8725987314890198 -0.6669012226147675 0.12689191142925887
Ni 8.610890035139604 7.22045188817299 0.38472305794578965 -0.9421658410548805 0.02805922013006135 0.06200240984472548
P 0.14917240514480218 6.177116711515775 8.404703806227738 -0.008733008997623668 -0.26234199684117393 -1.535692150321923
P 8.795134179310253 2.085739366357856 8.09201540768072 -0.21092507582177866 -0.18529683373071315 -1.3846354687210025
P 2.1288659680226885 3.2921341702621043 10.120636898788131 -1.8373555704705389 0.48673193991860697 1.1787245582843635
P 4.262103923812034 6.6143063608583805 3.697517836785357 0.19151376117470242 0.019702877745566068 -0.0413407677303159
P 7.191627801811606 4.039242075589765 10.643244601396415 0.31648197321868715 1.063755623544936 -1.8708020230544424
P 6.470049019204904 7.869386306197596 10.537777470201219 -1.1156757094529945 0.5790162885763254 -0.008170451625934315
P 2.7560408477681486 8.812111000283075 5.7233071195336995 -0.39873953376802296 0.6116057924765724 0.6078566098467854
P 7.1658339867206395 4.593142805458977 1.826316199979224 0.6556901843902966 -1.1335703303452285 -1.13638080321083
Ni 2.291989486531447 1.6010237456144494 0.10585047876555116 1.059051276090731 0.43856720728792215 1.1338845191515377
Ni 1.5803047221691222 1.2436890461058367 6.977720770286346 0.06288532667031105 0.43026202985633644 0.3151246878598444
Ni 6.972964522217025 0.7775803862415684 9.397286502767006 1.6524816832098574 0.04273790518815865 -0.6878526280554541
Ni 3.1525865273301203 1.8997336488282002 8.89784212073121 0.050119799474526584 -0.9699620373315424 -0.9739637022917677
Ni 6.80604403729714 2.2116964251884776 2.366650989519454 0.005880627150493098 0.8260805333228225 2.4701179424200688
Ni 4.159138591879552 7.204342162895015 10.140487913806298 0.12572051682897703 -1.469545893512153 1.550280589659059
Ni 7.336670093251998 6.162230047533692 11.687819268531108 0.1482876034962156 0.15512416680207478 -0.930399444547572
Ni 7.779965921750957 4.497442822717016 8.298902615006948 0.6970996005750187 -0.6321033982092921 0.2235995859656536
Ni 3.182770584833951 8.585662114081066 12.418382988001062 0.6391199387364412 -0.4655925868368304 -0.15466162534335942
Ni 0.511952465617063 4.8579903399581195 10.08186950663761 -0.6089909805615447 0.24809525711417277 1.208357807769764
Ni 8.86241167790739 2.7684631345122415 5.56563352565014 0.9969509072155605 -0.20741680555820408 0.5590773835605533
Ni 4.019618330916879 3.027596964748487 10.908683586432675 1.0399834608260023 -0.6721452446225262 1.3405716456325687
Ni 1.2644171968742675 3.690386659244461 12.36505569003557 0.24626566010460169 -0.2919523635084391 -0.09367968634334835
Ni 3.440626589835683 8.118443571727392 7.983702377141799 -0.42910657609565456 1.3608303958816046 -1.120710957884057
Ni 5.778818585917899 8.424856935640639 3.524548674844671 0.20604897867639999 0.3672792583762126 0.008956437862339413
Ni 3.3653626835228345 8.677364329303622 3.260739829714727 0.46098208464801255 -0.7401668640781383 1.1474743420208302
Ni 3.5653605873704133 4.487128947609871 8.889840196566224 1.106742411519107 -0.7827936976097293 -0.085901070839194
Ni 5.661167391111616 4.225329939027354 12.144395352145905 -0.7266585451790581 0.7283611296924617 0.16972263344153996
Ni 8.306475554986061 0.007038078845238594 1.781123172363721 -0.8195026229949887 1.487158978608226 0.5997378373943929
Ni 4.76590477716521 0.6431194004752588 1.460607181522996 -0.22943624725208872 -0.10922611871837963 0.21055457985623738
Ni 6.199204833426652 6.007960032435491 0.5296950689982838 0.2791945496221385 0.08147954473273064 -0.6232665166439524
Ni 8.382259718715819 -0.02971582582861275 11.235986654733287 -1.177015803123373 -1.114742399005448 -0.9889807445258904
Ni 0.36951054852890575 5.230996653235731 5.834424976462378 0.56230591780018 -0.07522147963816078 -0.49383641217387214
Ni 7.511111492409306 6.843329152175624 2.8319372775720817 0.32506251579884665 -1.2757435934135901 -1.21276056482315
P 8.863643866526386 1.6383179878160377 3.3699345596654617 0.7532720340015285 1.4906376811854458 -0.9474965092391746
P 2.055135451991256 3.4841821756863878 1.2785326020540904 -0.03594376508446068 0.061477904799823166 0.08771215590600379
P 5.329069739984646 1.2315862156703727 8.18584702738336 -1.4448615033915952 0.1351376963778189 -1.72323150022991
P 8.7825658553965 1.6424435378588957 12.383262874162767 0.16560629728032125 1.060449441989838 0.46151918809840514
P 6.558310233617376 8.110064689118223 1.2197426012110528 -0.9765921410535504 0.315813743507069 0.15209437883681548
P 2.3538088459125928 3.604096946622382 6.064770316897343 -0.7092012689345593 -0.5808805954785738 -0.9911576975725511
P 7.456959084435241 4.539410254347683 5.950071811115095 0.19102036647805168 -1.7611295608272635 -1.5297888974636107
P 2.3097330026449785 8.505588108492583 9.762368474126013 1.6963056223733433 0.4709404814123051 0.8179303934118624
