# total energy = -340871.5520172868 ev
CRYSTAL
PRIMVEC
9.18008034051320 0.00000000000000 0.00000000000000

0.00000000000000 9.18008034051320 0.00000000000000

0.00000000000000 0.00000000000000 13.43597551508460

PRIMCOORD
 96 1
Ni 2.212693159173567 6.706627138493306 13.165200240241646 1.666095674448866 0.6093131397876539 0.5315786639196523
Ni 7.7926398398084515 4.784281564861666 8.020699661259682 0.2606617809252737 0.6514902873763361 -0.6438754511435556
Ni 1.6950192406110665 8.172621731194294 8.627898642708342 -0.5109705007509975 1.330454868913541 -0.24436664330967595
Ni 1.8817971581346542 0.18286995726163 3.917500201596471 -1.984298487013402 -1.0091230238017201 -1.718851368884343
Ni 1.9415594820842539 1.0108370222332297 10.075422913475904 0.6835511724666228 0.43254696923577113 -0.5326351302086246
Ni 6.968608275340261 7.744086394129583 3.303865983728662 1.928728977278214 -0.8285822166987536 0.016951026032041773
Ni 4.304144995397462 4.770575704699338 7.7303484036855625 0.9063750566085164 -1.799456224321604 0.09916693471016469
Ni 8.491381665833611 2.6366843563987916 9.27326839880868 -0.9893543258152251 0.4867815622096197 1.458518689163714
Ni 0.603801433661601 4.693967933061948 10.699403082048967 -0.12047212394584414 1.320749725810635 -1.5315007379483947
Ni 4.553531061820631 2.294460136042858 9.185061595479997 -1.4536197092001997 -1.0707809058228333 -0.524527927720458
Ni 6.11825742012499 1.7981482647661822 10.995075114271504 -0.2670154910574434 0.6143465884465033 0.20381777535303608
Ni 0.38682105134628014 6.144530810469651 1.3059738557635592 -0.2133498832131874 0.4158749078967289 -0.5728019322354975
Ni 8.584844065239274 6.750957747149623 10.333528220342595 -0.12164737520086791 1.398892492860649 -2.3568814169907153
Ni 8.54801358233823 1.5312557848603892 11.904032521303463 0.8296841915136808 -0.6777685043465747 -0.40529301861582456
Ni 7.089014210965907 2.905449572723282 13.394243248312693 0.4244469658364561 0.019634229291159735 -0.3775557006015562
Ni 6.11351131851486 0.7479718436356838 3.713219542622452 -0.5988875735789557 -0.5922849806607735 -0.247515987571935
Ni 1.0076790745467992 8.318474849921058 11.062228321018617 0.05406901393026172 0.3431445701115381 0.7261558945110268
Ni 6.856987676737622 5.288791248010383 3.165139361481478 0.2356814568308522 1.064828030673508 0.22928455216557286
Ni 5.424013833536897 4.777020121198973 1.152709658062215 -0.4297814906754921 -0.830682293760892 0.18741208030150305
Ni 5.645878018669604 8.712281942515519 1.513160010210704 -0.8436092862352051 1.3725466558772683 0.0666548210150723
Ni 0.2198812877482047 4.080132671431543 13.051828082282695 0.2579875765272202 -0.03795025399152819 0.6686572860739258
Ni 5.496775151451571 3.8678065899215133 11.91298126375908 0.20726768157484948 1.6267254001813596 -0.08209352416764572
Ni 1.5654791249040307 2.8563453222153847 11.574529138473943 0.27594287545406027 -0.3598904221113092 -0.9986905156144866
Ni 3.8484090798592243 5.860168637403169 5.573122208803221 -1.0343848836923022 -0.20612508332997403 -0.09600550626304755
P 2.5143047034691275 4.8768534964604005 1.1330477616819916 -0.3416926681563599 1.651696982525033 -0.34016800398171737
P 1.5345055333516577 0.962008174139847 12.383938670747522 -0.45642120475020753 -1.627670023482816 1.4282395785641984
P 8.017597712064203 3.593010060719161 11.259885551923567 -1.7276291150769731 -0.08338781749903704 0.7734906750412486
P 0.11056856137919492 7.487971328711782 3.2432563383504065 0.45093421349370727 -0.412805782053102 -0.08942682460426533
P 7.493525277404488 4.263798541671119 4.987743360656529 -0.09141531578920385 -0.17805095080157723 0.4166984322392889
P 1.3082349095867216 2.440221453964785 2.5905774021688583 2.024842212763719 -0.15787936094970875 0.24145923985489384
P 6.585982520775082 6.598999874901124 0.9715536218269122 0.19655569447398408 0.5528913093544994 0.607413865882412
P 0.648278923605658 4.2537738937828 8.372171894695006 -0.28600463056543646 -0.3593296645118328 -0.4075756440024142
Ni 4.472526031631496 7.410225227094401 8.093684055130113 -0.37854300421549003 1.5501774884222914 -0.9139508120732454
Ni 7.802205483672582 8.535831615536216 0.8585183728217175 1.3639164910060961 -1.585344780352044 0.4197814420399867
Ni 2.3402411974156156 6.835735790417603 2.5850014212829926 -0.16323625438624792 0.3346828124974301 0.5812150959998571
Ni 5.287469316420715 3.661080357506608 5.443786808890974 -0.3401407502882078 1.4826919439758077 0.21334859766160677
Ni 3.452242706580426 8.077057093357837 10.283076334019674 -0.12349137038814216 0.5198256371487822 0.6397778840354142
Ni 3.6239469319495985 1.487026157089395 3.919301333387395 2.373144672927113 2.2100860817693095 -1.316380907318978
Ni 1.1508148894503567 1.9492799297711376 8.081847259354289 0.7286421512679903 0.22367106263353737 -1.041008045435775
Ni 5.8544861675836914 8.300711394184887 11.224589060471368 -0.21000539222098674 -0.9774493468475232 0.603652856178083
Ni 8.013163733190524 8.97170183690749 5.45252073746327 -1.2969104572991923 -2.25188347742107 0.7272537555608959
Ni 4.1899723344203235 7.063034583196726 1.1750328597746944 -0.8331161000133651 -0.8623081481962891 0.6943894007327073
Ni 8.567374372078586 2.8471468815706076 3.4912580486366163 -0.23566937264599414 0.4317784665008629 0.9919166872257628
Ni 7.987615569204081 1.0005186117694278 7.523152151149885 1.7091989333962432 -0.4542614780947274 -0.03804538480849577
Ni 8.072356892150125 4.134157445078762 1.602132432251737 0.48173165849053806 0.5543020736590969 0.1440529965895777
Ni 2.4703137577907124 5.991985413070189 8.562384998335634 -1.262675190265406 0.5186110480153907 -0.510111752295128
Ni 0.18134973593351117 6.461261947322046 12.396058213002249 -1.1884016763628114 0.3828136065663859 0.38668234549317276
Ni 5.9460299301682396 2.992109532490443 3.224661167322402 0.12903929678956488 0.43419478925183935 -1.0513089131411508
Ni 0.6413718310496397 5.211605131302513 3.37754898172391 -0.846532116308955 -1.2906151112087838 1.0087494425123855
Ni 4.355746227796955 5.823475855709383 10.014289085502023 -0.5365339510423985 -1.0099300930840478 1.409367938470676
Ni 2.3773195424897224 2.113722711477617 5.72291909010583 -1.3985042562832948 -0.3690121819069193 2.4381537308086463
Ni 0.25853218060918776 4.6303040749067295 6.064945938731362 1.3080716161223342 -1.786641074834807 -0.42432072467123694
Ni 2.260200075677281 2.7990983403183494 0.3876518486300649 -0.41803386322126074 -0.2816119008143795 0.29991841243305123
Ni 8.559332621574768 0.4506492329421591 3.312142744292865 -0.1088705351511738 0.09070363443415992 -1.5367488737212116
Ni 7.337619970547951 5.233655684624623 12.842307433368518 -0.17943883228803936 0.5138478222987924 0.23870687392073725
Ni 1.3920215041624506 6.7731643618399575 5.058967015090165 0.4024812601986423 0.5577728058165168 -0.39029577387604397
P 5.896962399982277 5.894217555917619 8.483757608991807 2.176655055804374 -0.12843611598792717 0.7105652391616214
P 0.12677232144116704 1.416110035351967 5.155759947695355 -0.10817402330478143 2.1024483905839726 -0.2936829730463007
P 4.5425241453205425 1.7603263331728873 5.892347573523066 -1.0981035048971863 0.0420377937973405 -0.2591494580458053
P 2.64205470348182 7.4868054584903385 6.753176572602559 -1.3370158099605103 -1.3115896565779217 0.9137009008459684
P 6.847486293436879 1.4868517355602027 1.6228509558956468 0.12600308106640234 0.049269278548773214 0.5899781869044679
P 6.677122359818343 2.6095847588105863 7.804394014859922 -0.25246767515025553 0.4928236546386416 -0.03553521679213235
P 5.044766348589759 0.0714871227435212 9.385244266526044 -0.2535858479150988 0.5891058116018435 -1.031548699795088
P 2.52064813908344 4.503830106081286 6.746780810529488 -1.522067617559953 -1.298941371686292 -1.8661066744613024
Ni 7.1827061123836655 0.25604529680612376 9.768746718777425 0.8516900063608106 0.42836712682646877 -0.15583790503964776
Ni 6.615083375908758 5.881778546862057 10.63926437479953 -0.44895035029445907 -0.5340332961077319 0.2853536272449989
Ni 2.977862047579571 0.6174292631398162 1.1929000504203326 0.5783084638760234 -0.7267210229858775 0.05609992831736144
Ni 7.029242706935823 1.9950701712243792 5.498471630324978 0.38615681200700597 1.6262787995622445 0.20560186383665235
Ni -0.022144190143045233 1.8689266852963533 0.9932131037204123 -0.43934522310452717 -0.23507801891889835 0.050197446789997414
Ni 2.4897571682554207 3.8886453726197607 9.398693084434825 1.1663259275096947 -1.8725388032398913 0.6270059290817266
Ni 0.7397253773370777 8.849514965667986 1.4823911344531195 1.9029356703641938 -1.0991165195427328 0.05257211766976107
Ni 4.8471834763367285 2.3237262326252424 0.27997501260326996 -0.630467919488398 -0.13589925713419176 0.17540040055260758
Ni 6.122131414089156 5.91918737483358 6.258007621346118 -0.3824261413199801 0.3460707426193975 0.45450804688789465
Ni 1.2233834256748706 9.1868737433675 6.156216134917493 -0.07579843518755333 -1.397317177953729 2.513501708722342
Ni 7.134409708958344 7.66788254603348 7.988346303610593 -0.6449334600944248 -0.5739784690421018 -0.9121957770553515
Ni 2.499010689383101 3.8727179329803514 4.436693423479042 0.1555813089441514 1.917262885620143 -0.8967190215759913
Ni 3.720640719685564 0.8736039990807617 11.843799259225042 -0.16547388546751504 0.4492259725533489 0.07340011015870586
Ni 5.09754263129118 6.327251132419396 12.603281087771329 0.1506476190879599 -0.8181481658496231 -0.9810252371242394
Ni 6.132302943265217 3.8402479883091174 9.463683464219953 0.6986792863573128 0.9484357332239924 0.7202487849979725
Ni 3.55110299331057 8.896214035089125 5.567465443209097 2.0472529763587515 -0.2773914349751287 -1.205120788889705
Ni 5.759527415059166 0.46679515849708314 6.962737613870865 -0.4676862361410655 -1.008964900957301 1.3771358179098476
Ni 3.3250435113967622 0.7331294895094607 7.728870410727669 0.15693113810382653 -0.2599215603251394 0.5395372566450966
Ni 3.050476484206504 4.642559482352615 12.297465066614182 0.06721686416612939 0.9705582761546445 0.15865634832504932
Ni 6.519601358796655 0.6488903169658797 12.983478711048539 -0.9171238104845881 0.0134682096897639 -0.8441397048173785
Ni 4.825004401887845 7.127845951412421 3.8623187378082924 -0.2315224403571561 -0.9948670281033383 0.10295057012231301
Ni 8.125344316702675 6.400994718945837 5.348015619243632 -0.10218566693183048 0.9070247743773734 -2.365652735425442
Ni 0.17857643361935233 6.624456238082728 7.175617254234068 0.8926934453563659 1.566954193659998 2.309441735451513
Ni 3.588227238787096 3.3102544017373448 2.2837258679331396 0.30872701186361673 0.6134006795934661 0.3941406015434309
P 3.7448485919213694 2.943565266892059 11.236009080593227 0.41066713844354436 -0.19467776072498086 -1.3305726254383277
P 8.057870725146675 8.322835388150867 12.07629489556605 -0.2896841362995527 -0.0447258821524649 -0.6492634549283464
P 4.081638204630888 8.812666122605975 3.034918083802544 -1.7909872676186445 1.1046922138582975 -1.4344233387774072
P 2.289218310086603 6.259529678690333 10.826050554395554 -0.6898102660024571 0.21112073677235252 0.9628645070548127
P 8.816227993833692 8.647902038082563 8.790675239807008 2.47603919300051 -1.009558568677242 -0.13928617132855367
P 5.965757923127946 8.05559406518669 5.497020259600489 0.7768163969803717 -0.8895566994995969 -0.01170211892827662
P 4.745312123207894 5.00543888379712 3.5259358026642067 -1.4519166104661638 -1.7265268831517298 -0.13140831124237368
P 4.302933224773599 8.303731640664061 12.790027793021272 0.06200703783041579 -0.4368090869462348 1.209979402533587
