# total energy = -340896.8893062059 ev
CRYSTAL
PRIMVEC
9.00935452743038 0.00000000000000 0.00000000000000

0.00000000000000 9.00935452743038 0.00000000000000

0.00000000000000 0.00000000000000 13.18610103041230

PRIMCOORD
 96 1
Ni 6.336171039085834 1.9420114495486158 11.301821024481265 0.7521057816075691 1.3786445412448902 1.0631550138464594
Ni 4.605645181459021 0.4164087698896208 6.025098743260732 0.7228509985075099 -0.7156123146672256 -0.32238676873889643
Ni 2.7625113995998394 1.4956249528735897 4.911981259525186 -0.36651486940636235 0.1227506355673757 -0.9109251378730441
Ni 3.344344534638689 4.036650376849096 4.916293136678367 0.4043370824604585 0.7974361301132524 -0.3559553487229612
Ni 5.212326116724518 4.299849664674075 2.8572699903263943 -0.03216758587148009 0.7379608575657548 -0.7131376278744879
Ni 7.301451318956576 6.116982448906676 2.5735185625895123 -0.12171396677274522 -0.3786800440139865 -0.06181754752742903
Ni 4.950820587580689 4.468486765704674 11.378537481511705 0.3141677232632138 0.15039693652973452 -0.08799729124659038
Ni 5.413523025593808 7.884149352045374 12.280281990259038 1.0467336350656424 -0.06387700115961903 0.4230999648902584
Ni 1.94707470688269 6.557386734069558 0.2859154747326907 -0.7535304298692377 -0.10959867156644996 0.5584963142461027
Ni 2.8020354386115525 1.6831006145546323 0.4690981789053948 0.28615375454879105 -1.2385965520496476 0.18188832226979643
Ni 0.5708570382237205 0.05487057378548811 4.545658195146806 -0.0954113243224744 -1.1524232013856734 0.6334367723087349
Ni 8.487713050589182 2.0654936648881503 1.306751940280599 -0.05509488409161479 1.5440250956676504 0.12854538787228184
Ni 6.993142192213967 0.6207057977066948 4.756820351235346 -0.9745571129013926 -0.20123124557278244 -0.011633984694502544
Ni 0.5842305243210506 7.301919805400298 2.491144230815659 0.31678819160519633 0.07404005773554989 0.1242526740341989
Ni 7.413266419976492 3.901185719775899 3.761625410062008 1.7881333431096171 -0.907089823287354 -0.17292031444323125
Ni 7.923475185253974 3.868725014838766 12.485233998161855 -0.6314801628029963 -0.22399810695565292 -0.3978746146645664
Ni 7.797182051252106 8.79246348223044 6.901829679655176 1.2137411835688645 0.19154924239832818 0.22603159244591395
Ni 6.749276979547213 0.629157473338536 0.42048910662734695 -0.18332171228221328 -0.09027914530223162 -0.4429342260073662
Ni 1.727048246717645 6.7240597957784 9.161756029913644 1.2852255647620963 -0.2827439575362937 -0.8536563860585621
Ni 0.09964436377329519 4.8161577630746315 1.3637721460943968 -0.20588648495660672 -0.09121399841167517 -0.015858564298811398
Ni 6.461698377939309 1.8937753645546083 7.105752819252741 -0.18061922574938571 -0.0016514195604939302 -0.1901474769547951
Ni 3.34629956460576 4.487766784734778 0.374023359829328 0.43854843823484474 0.132586647821191 0.22235028693958478
Ni 6.069512159061061 5.610512565824285 4.791473032167818 -0.34472605566604503 0.233457709706656 0.6747618563097669
Ni 5.227966356461088 3.026026014838862 9.270607053241548 -0.007046108213503995 -0.8153497771688797 -0.5416900413220412
P 0.1463578678252057 5.748022346411422 12.361508530245771 0.5648109436102208 -0.48451307789041714 0.4077183402278655
P 4.059894511941464 6.18404808519644 12.430524691825264 -0.5912269717099043 0.1684298827720454 0.6257640862548256
P 2.3093408588455295 8.454315372764604 1.4697753124057513 1.4678003715759562 -0.3168283008145124 0.525455838851366
P 6.280583320667263 7.70240363994524 5.755390196674423 -0.21331774442367135 -0.29899590061878184 -0.18264756903332413
P 4.826707717413067 1.0364361631883872 12.612809163335676 -0.7703914672906345 -0.26930968640825875 0.2966654527133923
P 4.058056603585324 6.072494255462446 8.211354699308423 -0.020578338371983917 1.014795391596149 -1.3495154850894178
P 4.656881381563787 0.8976939028800723 3.850947756170448 0.22993504126537817 0.913758236446465 -0.6995850860010339
P 0.14508484600793767 5.388729281495282 3.7293989483467365 0.08716296827075311 0.9546809428027558 -1.0438005205792475
Ni 1.449695262679445 1.2399304575028525 2.6559577617171115 1.0138250572630796 0.07536880384930246 -0.9854027973666448
Ni 1.827547598250733 6.255240005932833 4.844850755881676 0.459123434172719 0.8982629690243434 0.42605364820194375
Ni 6.098143888256234 5.562438649214643 9.11017206871796 -0.9512924859464971 1.1571607160706587 -0.19801299574580092
Ni 8.559472560670853 2.535160334074292 10.15077956312641 0.24490837474575886 -0.2794105222876865 0.24290908492754296
Ni 2.285907527304735 5.263706466504276 7.020689195104829 0.4576913297118827 -0.44227242405365125 0.13617256540023642
Ni 0.5559006085078909 -0.0011306740132140348 9.061132349285876 -0.22341806608246684 0.5268578614052152 0.20324699045123062
Ni 1.4749935306404411 1.1727476996021589 11.265176375227506 -0.25356373642791175 -0.09399284670839296 0.3901001129254701
Ni 3.9477640835075047 6.6589401801010215 1.8109793949814053 1.2151532334250428 0.963157098594567 -0.7370985095654596
Ni 5.798717985234972 8.010649701205041 7.887753994855628 -1.0750947027068387 -0.5667616395786884 0.5810258628071865
Ni 5.440902454487492 2.7402492841683506 4.933012697106435 -0.6317542423999895 -0.2766483861615171 -0.4256476710127766
Ni 0.6519349238581195 7.334506641303049 6.854174698038478 0.372436634207436 0.17766759932022952 0.012040476104301845
Ni 5.141836925653708 4.435062059816037 6.982066992497281 0.6096581818318985 1.2026712989079482 0.10793439649014959
Ni 8.233117696490254 7.078866202060433 8.991509858135952 -0.9297422705795472 0.4448247581618597 0.5997504357998833
Ni 4.587401238217918 0.5357007343642479 10.381589319916284 -0.48353785846134145 -1.257642255827189 -0.36319968899020033
Ni 8.156114741980769 7.0519102128370355 4.850955494617563 0.6236321275134873 0.38039754092572553 -0.7215626187133896
Ni 7.263233636374473 6.074458294784205 6.948139564617111 -0.08122577685071174 -0.43127401606061855 -0.012322783231411035
Ni 2.2350407107421337 5.388116645376567 2.693670019501276 -0.21540805129379675 -1.5018942279358714 -0.5061198575269155
Ni 2.2923402065512275 5.343186993552677 11.278309311554695 -0.3891629458231814 -0.07046313901756897 0.45954663775306664
Ni 1.086573222021344 3.3555611812239596 3.8774388626919984 -0.09385606402021256 0.2801085767959757 -0.2415541135615453
Ni 3.5878223450539024 2.713644659777745 2.738146500784413 -0.3666809626705814 -0.7834308169730958 0.1744004985331835
Ni 1.1833336913593417 3.2334123503780963 8.211842105396988 -0.8577254139216132 0.38158564769655573 0.022519521258754765
Ni 3.811533631285916 2.6394796519946535 6.910070536387343 -0.8437959483247144 -0.5925688304497795 0.6566744026804368
Ni 4.123068107006459 6.930761420361425 6.037889324109816 0.05400987855755214 -0.6730135061600925 -0.5793057947922862
Ni 0.6752745581101695 7.495738052780964 11.200485604833228 0.21791796219984405 0.0030904659998656453 0.47861239613526596
P 0.2506663745199424 5.464840309890756 7.890088318655021 0.05239265466910332 0.20912093273350438 0.24963097703240877
P 8.510704923750316 1.582394047863744 7.952814148792074 -0.19321917390158336 0.4758325193972837 0.8103404968797463
P 1.8066458953769755 3.2939371951651233 10.437920310096528 -0.21741479731118038 -0.22985919372212024 -0.4929167285730801
P 4.112383012347719 5.910082618520538 3.924408232417018 -1.2393298306712461 0.38446708300940885 -0.18883312901874577
P 6.866515712088682 4.021352492590631 10.350047569157221 0.7835799409564504 -0.5244993884753676 0.8128802325824646
P 6.269826151171028 7.702637883167102 10.060454475841311 0.14933147137969766 -0.1282615380832759 0.6400180250706784
P 2.301286495755383 8.333887328663952 5.796992693812418 0.5145353352841203 -0.4035328413916082 -0.16156812265520562
P 6.969285421002885 3.8430843913996653 1.5436312993230796 -0.5531191090945893 0.23543026005199455 -0.9988126430146476
Ni 5.01489511811438 2.911814425472214 0.5629567350987215 1.4181780805631383 -0.19090878060085184 0.1873012657552516
Ni 1.446938400145234 0.9408198818956337 6.915780665387941 -0.31729367048670515 0.5886916068825603 0.6326818964205814
Ni 6.87058794040719 0.655491817088533 9.404986984010433 0.3099968797149758 0.7028221048810929 -1.9634067311660575
Ni 2.6944727530038843 1.5817814117450304 9.106506162295833 0.39768615280284414 -0.08829939586804147 0.1276843254235672
Ni 6.297151523936591 1.8841173363301826 2.6343190936299603 0.061308469101494414 0.48708546660328367 -0.05697076095808898
Ni 4.075823051028017 6.883192027614253 10.298332071383108 0.4016399952442696 0.4957801661638042 -0.5687979532824269
Ni 8.011748842476852 7.346362952071094 0.2513808163466187 -0.01002370278458919 -0.2354567424145558 0.3955279688092608
Ni 7.56781289027668 3.823858428497683 8.123218885212255 0.8193542703425826 -0.08615946670690323 0.13524773959312192
Ni 2.9846280300522605 8.352329477708167 12.280822551540254 0.410686421717254 0.5685752957486595 0.23995591583648995
Ni 0.2290979793993496 4.987776960506617 9.945709532677196 -0.7395369438036231 -0.8556770160330166 1.3509848705460927
Ni 8.656106899043232 2.1459472022427426 5.653197987395654 0.10439810120211698 0.719182291406671 0.76008520026862
Ni 3.6315897901231753 2.4864827907006237 11.476628632536968 -0.14942197421097494 0.7731494896517459 -0.3385926890747975
Ni 1.3890442869268007 3.277179795447369 12.662652517205839 -1.2954750104042465 0.5357469363647289 -1.0580842841917713
Ni 3.327361901053761 8.422224051369637 7.865957663061455 -0.9794440086800487 -0.9245771814388398 1.1129523969845607
Ni 5.541591002469007 7.827336361389377 3.630911385715247 -0.5438798498845084 0.011582819741592955 0.13840839670929067
Ni 2.9268870758635055 8.347797772300623 3.6304104655946516 0.38828028610791193 -0.5384705059434791 -0.1470503886550048
Ni 3.320451726008859 4.405250105156871 9.243958283012976 -0.21549058370527402 -0.6313266679442675 0.05796037856486792
Ni 7.214592130419552 6.175849572431303 11.30216337995937 0.2995628288658454 -0.7261371254579494 -0.056665056792212086
Ni 0.6606298520665089 0.11851896184248566 0.46524487790578006 -1.0442273237040212 -0.193532334266628 -1.2214796898637028
Ni 4.556039674552594 0.3037449876581933 1.6219694401971725 -0.5617179065071939 -0.6769843178823824 0.07926248247675381
Ni 6.112126406730403 5.5209415615264845 0.23971370202699976 -0.644803876495096 0.3950011497715133 0.9445461683615991
Ni 7.779019192203187 8.848078228713073 11.401085193486772 0.13811786205206533 -0.12121671542135254 0.513263153439916
Ni 0.04703603894970385 4.655872333838848 5.88246444172765 0.3290950339970074 -0.2540314200929496 -0.32445444990120254
Ni 7.695385352644095 8.862258952990354 2.535621613034265 0.7661180367262612 -0.9175542131537875 -0.20594356344678727
P 8.543201666106196 1.669037011888281 3.5075291742127384 -0.9173030163749298 0.31777806632229144 0.11253127183221266
P 1.8594857606160218 3.390994973207791 1.5524262313684944 -0.1746637794968992 -0.40118748108788327 1.604312065483166
P 4.68869341296346 1.1037720801187592 8.181066149786318 0.7917732754005202 0.22151236441932173 0.43890067936794086
P 8.644656009236103 1.6702082279975863 12.319629445918887 -1.0755132783014962 -0.16765906604429187 -0.125216580609365
P 6.119649217894018 7.602435840338683 1.4711339230925458 0.28947022051653376 0.04048896125298188 -0.9504090549002795
P 1.8032403593053028 3.0912086959990495 6.141307706561481 -0.31089419471826457 0.06715824301405209 -0.8112522100607383
P 7.027440805507241 3.810101143890688 5.920203727575874 -0.8045938242039561 0.4801925961381923 0.9642626729539199
P 2.428228303294712 8.537796053294016 10.129523792613455 0.31885124478181215 0.29143248644922715 -0.09618188393991177
