# total energy = -381168.0725962727 ev
CRYSTAL
PRIMVEC
9.23906036511683 0.00000000000000 0.00000000000000
0.00000000000000 9.23906036511683 0.00000000000000
0.00000000000000 0.00000000000000 13.52229874288638
PRIMCOORD
 96 1
Ni 6.278311144134717 6.412794908172191 3.674495376134392 -0.3056154628178285 -0.5509221014432706 -0.7427899035232821
Ni 8.431261685654393 8.696395003638962 12.719304588733038 1.4682397731062198 -0.6633718693052705 0.3211045595923631
Ni 0.3425104493265477 5.319952641809687 11.461716939706493 0.009663234121376907 1.3138799952739955 1.032702610893873
Ni 5.369409332445343 5.854607831496729 12.33455407889516 -0.5432591855813741 0.49081716573157397 0.44317719525610777
Ni 8.601297354337111 0.3567422980571965 5.5819779398559355 1.120059440342987 1.0023962466008478 -0.2966978486132245
Ni 2.867286979008365 0.7395599964471055 12.085987320219164 -0.4712245883116271 0.717962560066957 -0.9493659583477455
Ni 0.10105961501587657 7.8751718757030655 4.100149978341267 0.46551648218325636 -0.005420142574306794 -0.5387127038612722
Ni 1.4377179151664885 2.337574686666752 8.896023382971038 0.3938932614193152 0.04843829800704561 1.5828824348544803
Ni 8.122584675727763 2.0511822905666137 0.11897045762119718 -0.877991877480133 -1.3060463581621895 -0.9031035849460962
Ni 6.710791564208511 2.4733796363498257 6.672308105679705 1.514887554871746 0.7606626700386449 0.5319748709168064
Ni 5.032941228658813 0.7066347566902805 8.175338787041145 0.8787907192323445 -0.7414300470612779 -0.557413365594569
Ni 2.798474456711642 7.299550691941954 4.195847242666888 -0.02035130996284237 -0.47390342069537095 3.213112762865305
Ni 8.8893804985012 8.186167889804839 8.04941870814288 0.6999028743517688 1.3967466501622396 0.7553209461107572
Ni 7.47027929015908 7.3011305712804 5.423645389056306 0.3420942744701528 -0.3265840946496956 1.2132971540529105
Ni 5.560288321522989 6.361379536719281 1.1745756147107789 -1.5621560009404065 -0.38835947608527954 0.033760127169580566
Ni 2.5982270603288304 7.696211274617199 7.854833008009186 -0.4997324659433328 -0.2701887465791024 0.4911460098259025
Ni 7.501359489542295 7.174989678837171 1.7570872897620207 3.3250578231767443 -1.7990322494103081 2.3042982435773602
Ni 6.730230547413708 9.20312975261968 6.813426439032603 -0.7728975215419399 -0.8851889094492045 -0.1860853910702795
Ni 6.89171084611163 0.766855876666418 11.9611084834346 -1.9763085268293898 0.18786125202377968 -1.4137400993964426
Ni 1.5901254564939253 2.6115313073894213 4.946687208028074 0.09446952923449536 0.267632555816152 -0.7496393223449477
Ni 0.6100717923996745 6.623223749180537 -0.011325240310328067 -1.3135879179548733 -0.41944539885680665 1.2289076068966578
Ni 0.8086958858598848 4.4482657656481335 7.324839848229628 -0.14990765559814181 -1.2152951583195457 -0.46725789035439524
Ni 1.4674307336018084 3.803961406436722 3.0536462197095933 1.2886451319666066 1.349591846853308 0.016872864495938687
Ni 9.278603637507157 4.657798417791983 4.954840678882915 1.445230199584924 -0.8926561643605272 1.3972647274492387
P 6.276093769624618 4.565564877232345 9.429004454902955 0.9200407270210671 -0.16727108657725387 -0.8188799018093252
Ni 1.1734623079255004 6.1483545197220275 2.6209052581308625 0.5854880123435982 0.37744797137909836 -0.9111177134998244
P 4.4167605694838175 2.1809356556492103 11.642252800600575 0.9197579056733257 0.444517511334086 -0.09533959054427452
Ni 1.705216432628496 8.570485087707201 10.002201309199691 0.4837661724220636 1.823128114017247 -0.7418043996815612
P 5.469782485269135 8.207075883622975 5.163936323467065 -0.855113944440695 -0.16032268028387872 0.519399348244641
P 7.5077898756215795 8.707555788673123 9.85056245770242 -0.5174049435224315 0.3716730165685341 -0.09020869707561238
P 0.7686556456437812 0.9281098183831017 12.635371420089534 0.20577695596193593 0.407005373321241 -0.03540306208964225
Ni 7.2711221029104 6.652363745867416 7.950503479059478 -0.33229168655743413 -1.404941013047574 0.3848177814806082
Ni 8.836551550798104 0.7183591244124262 2.802361329446635 -1.1170229675095085 0.4126322325897152 1.6278420302843062
Ni 1.6300566757966155 4.556621466708281 0.7501849159746607 0.5766935539804197 -0.21374763287223833 0.5096152722746836
Ni 2.4453945222202913 4.986099192132984 5.0410318739025355 0.7086734214555472 -0.22448661655629726 -0.43454883015714846
Ni 0.10048309764325097 3.533940625469478 10.396308215564138 -0.7694540430780297 -1.3809991575199958 -1.7252953247374738
Ni 4.833054155633893 0.3923967562735345 10.34004233737039 -0.3689291352748098 0.15248158697290515 2.112736402773542
Ni 3.8465534751515307 1.9378744531005805 4.6244906809321655 -0.5665083859173019 -0.023171810130772994 -0.7938707813594973
Ni 6.605392362495162 2.0329536242815123 9.658125763031432 0.4430833499907208 0.20839845274518304 0.10298348024277747
Ni 1.145320129768167 3.160035848704119 12.463462069945782 -1.5901727978683065 -1.4330110318109126 1.576031216260602
Ni 8.410492277743137 1.3642027110962647 7.929340487172681 0.49708217280467937 0.01329877399143516 0.8161097952633557
Ni 0.2440534776418992 5.840730762687696 9.117613009013548 0.30510869838473903 -0.2970794003223593 -0.7902408979163938
Ni 3.6434789262683434 5.85202089456828 2.677293091922667 -0.0395772480719899 -0.38927324614880054 1.2867196328091195
Ni 3.8881015300345014 9.089951262000067 0.8300408872377205 -0.7825103620413556 -0.13384134616389853 -1.239235471185227
Ni 2.2329608050923966 1.7036365532900506 2.1544537366563135 0.4834645820212447 -0.5598073197480423 0.4650616540340249
Ni 2.4589851801551035 5.376495691817199 11.979459105317758 1.7305228916850004 0.10118165114734833 1.006453704499673
Ni 5.212243674981654 3.874658697067029 5.231128314559325 -0.892878050563346 -0.32847308414229237 -0.019181200914141158
Ni 7.167737016377059 3.8563745964191756 4.042437263279678 1.0630699103318209 -0.34338291137458926 0.5046916097208212
Ni 7.2389147381512196 4.966133582481637 6.206005333078542 -0.2881448168368908 -0.07431825109760104 0.5157458106524536
Ni 6.646866504894463 8.864361122778922 3.63356356658402 2.089151416364751 -0.7726051871125017 -1.355074467234434
Ni 4.547465557793665 8.286263870814869 2.873921548323789 -0.33546777029257063 -1.2419310157395194 0.6318041218013183
Ni 5.578868072105522 1.817480256262691 0.19614248182099184 0.06441873259570197 0.010191595821021159 -0.13841071070213581
Ni 5.457300514589372 4.460322739546794 2.5860453591139767 0.6113831349428052 -1.3599001707578515 0.7160956820615473
Ni 4.961745028763734 4.73872334835012 7.534489836441303 0.3777919849820784 0.14490840261133753 1.192151887433863
Ni 0.4159517409131016 6.707613327410703 6.4099622122355395 0.6283670710953113 -0.2789718920883712 -0.027223611602643437
Ni 6.476793879969907 1.6171497083357504 4.466293944321281 -0.03483227718783679 1.2844709459842587 -0.10773590732609833
P 2.2197212314550168 8.192025454135683 2.4896717955627747 -0.039378501797622506 1.1023627943941725 -2.0712323699924844
Ni 1.964935661184241 0.28706869532571827 4.335721998482039 -0.19766178305396925 0.6883195403895436 -0.11976095681143246
P 8.794024155506506 2.6307947484459016 5.53375743550966 -1.4870764461967485 -0.4488737314202528 0.9010945249358676
Ni 2.86702828531552 6.677521707496574 0.6958287515777337 0.3110248067588579 1.076149112113282 -0.6262777926664505
P 5.831103661689685 7.982483562931375 13.283643955767976 -0.8517285729082299 0.5802679015952394 -0.7375047438649428
P 6.9843139490896196 1.9849197489565036 2.2092053328408747 0.06928865909349358 -0.06846899140567562 0.23307230134277923
P 1.3833275662458642 8.733452875138981 6.294995039511115 -0.3941783967599018 -0.7684266302547799 -0.22839083670670987
Ni 7.371763188487496 3.1998839164626807 11.796637500866183 0.040538069323362444 0.26385791926506813 -1.4425346550306317
Ni 2.5233537143711713 3.1864410834952084 10.833633598942498 1.8852881324857595 -0.18315047681167165 -0.23386831488151336
Ni 3.24732649191833 2.5162581159388555 13.49306389137423 -0.042556642415288 0.1373670999289699 0.6013542899518934
Ni 1.391624242537816 1.6086867289555413 6.888610217421676 -0.8122315432548721 -2.1301507415952474 -0.7376338132436393
Ni 4.042671011509284 8.03633804634539 12.115695519124255 1.0319827020087131 -1.2342493308245452 -0.25154876288041195
Ni 2.9929566793681976 3.2584041254083638 7.1197206952669205 0.9297736380381147 0.1520025904539576 -1.228506257693181
Ni 7.988147106992584 3.6644515935096917 8.381229401552158 0.0009052854230887634 1.1905230935811884 0.33206414392766037
Ni 3.9490978071831275 4.495560516136443 0.834530146714624 0.5261816612737971 0.0727323946677199 -1.809017385647478
Ni 7.595450081254141 6.10126302856381 10.745508668568862 -3.708866703776865 -2.858658681278219 -0.7761934186843923
Ni 3.7685850439401927 9.062769946130445 6.248844084707599 -0.2612875874347307 0.004063885656728485 -0.8128223827613356
Ni 5.536996650106496 7.354513862611021 10.240531188887397 0.6437535808537106 0.11530549214324012 -0.28534977059025696
Ni 8.760089086441539 4.453384205142278 -0.04991587194045476 -1.528687693979632 0.34309700470305426 -0.09231314501312489
Ni 4.212743636433839 2.744518343632578 9.124009210569135 0.3203016040750935 -0.06568242979947397 0.6195291610887073
Ni 9.031477248356678 1.058574591121022 10.643833732126433 -0.2627757419444829 -0.11431998830151924 -0.45376525518459915
Ni 9.133531910183962 7.478123252488554 10.655720707312653 1.0562246052752133 2.729219320836758 1.007907406227064
Ni 4.969912358209263 6.231524541971638 5.709330997031351 -0.9209429271203623 -0.1106232561762224 -0.048640129605206556
Ni 1.7919619712756407 8.009738791284668 12.32466920811035 -0.8931061074137522 -0.22011856939558866 -0.33619153583247263
Ni 0.176335784009537 2.697740980529959 1.658036246489875 0.13114040229296767 0.7530722592858965 0.5213305038290829
Ni 6.29394363443091 4.071395250475518 0.0745924785197134 -0.2659389701638129 0.6942258785716495 0.7322262690748228
Ni 0.7487621006640143 -0.08378534367616342 1.1291388392807231 0.8455666670718922 -0.8342748962081568 -1.1845823026167213
Ni 4.521383690118632 4.923587709069123 10.496265610667287 0.203087839165547 -0.6080777247186561 0.06598607708282184
Ni 5.067107274235249 7.347104136123109 7.895494113088119 -0.8865937602165312 0.4885332547934038 -0.2843745511611812
Ni 6.964255948833686 9.06015529202062 1.1622525558709067 -0.6447421700192252 4.166090606934025 -0.6128759174382477
Ni 3.050571460388923 6.821974417769033 10.187970173937604 0.6965624971246261 -0.07158439710620576 0.14175031659833007
Ni 2.784116956758754 4.744978192280689 9.081292414538133 -1.7752387465351362 0.5466813238890456 -1.2339544252919459
P 2.624392079547992 5.665973934110558 7.023738867879169 0.8404200898739462 -0.0736119690591958 0.39593008934368584
Ni 4.6637206555460375 1.3262763679131218 2.4376919175158362 1.3038557782687739 1.4813670545167972 0.28928175865481154
P 8.574088321286112 5.887489647669398 3.5722799546551265 -2.465625968086986 1.626826444535598 -0.9898207239286825
Ni 7.6139097240507105 4.7467428528283095 1.9845058390479517 1.3578206625210036 0.009776362660473485 -1.1776308109995524
P 4.787810476567424 1.803852642086044 6.466931182930199 -1.0847520232909447 1.5631438187749724 -0.725570454321202
P 3.6789938746717543 3.436200604876428 2.7567370010892667 -1.843467854015864 -1.1729807138220507 0.5721702121887695
P 3.0798592820431407 0.6192766683347207 8.969475761430141 -1.2535148639223765 0.30711390174022596 -0.0364268753684663
Ni 7.470842872847063 6.636795928994432 13.027220300077866 0.6698857591643882 -1.6907921487542816 -0.2826130883853843
