# total energy = -340887.109485456 ev
CRYSTAL
PRIMVEC
9.05497243959495 0.00000000000000 0.00000000000000

0.00000000000000 9.05497243959495 0.00000000000000

0.00000000000000 0.00000000000000 13.25286745599199

PRIMCOORD
 96 1
Ni 6.685856592243557 2.382263635903702 11.299089763065615 -1.129314897502984 -1.5289419760822829 1.279576079785803
Ni 4.465450588136618 0.7621126582342806 5.851670881126124 0.7616507449835269 -1.4037410792022018 -0.8430346446786577
Ni 2.8243002239553157 1.7629306880993258 4.346675609560879 -1.0445181154715624 -0.20969711695194854 0.7269863608321222
Ni 3.414313171101906 4.41969581255793 4.365693768109844 1.3183290321842844 0.7221750554864079 -0.09963513259583485
Ni 3.7717853718332415 2.5356277035815635 2.141702900426495 0.42306011279125855 1.782987794352936 0.6014386221355835
Ni 5.06613029278008 4.742387864269329 2.5102257894848106 0.06256136767198903 -0.2408051512106627 -0.4524514214691821
Ni 5.535186918497795 3.1663789715926933 0.2369650059339065 -0.21004678698188342 1.19818035301613 0.5951535604578202
Ni 5.803866059794217 8.304496295018048 12.473651887007682 -0.3989969011944677 -0.5078067583110352 -0.341394934410283
Ni 2.082788533446955 6.517678589705863 -0.06752202375078514 -0.034029835891199456 0.7329058116403506 0.037970822816818475
Ni 0.7878767712273621 9.12089260734231 13.109179652964142 0.6053191881369122 -0.8560020034726031 0.003841999453909513
Ni 8.00284799918333 0.07600743839451925 6.948809368989028 0.12303705645954292 -0.6188989837038761 0.4587372544778939
Ni 8.629787123810603 2.84143223175165 1.4922594528730966 0.9632146913053797 -0.519323500701383 -0.27664427239645906
Ni 6.932486875725987 0.9249835414435228 4.910213628380344 0.2307930183902993 -0.056984130694527665 -1.4435432988008043
Ni 0.6935665171041269 7.458770927063592 2.3980138549105434 0.2174011704644256 1.3254859549440396 -0.4028383864277449
Ni 8.051581860684319 3.9867775817213844 3.646088772348667 -1.6506333171472087 0.6769922883021824 -0.2766085340625172
Ni 8.030239290718166 4.010655543961835 12.566236263389913 -0.7361777975234032 0.21328123475878108 -0.2850769765448445
Ni 8.576996634670735 6.8399450577140755 9.415406490416597 -0.7036122048825559 0.9306670963866617 -1.3128399840452551
Ni 6.855447170476932 1.074064607172301 0.5404188632668212 -0.8010575289159236 0.5694875231502837 -2.7047326485493035
Ni 2.446101191381586 6.824787033902731 8.911598691590655 -1.4033289313654476 -0.8112722646653964 0.6648769930958872
Ni 0.1750416716231179 5.388632190070907 1.2236853492566087 -0.5419924030538085 -0.9378093638583976 0.4575476050451668
Ni 6.7313668835672225 2.275831490217595 6.6968067703768055 0.7426346088923403 0.47981412975285104 1.726123477065724
Ni 3.6483932628265565 4.85269553814615 0.27771147627361303 1.1912715417114386 -1.566074362158206 0.1833016576775553
Ni 6.045389338838417 5.795861464185359 4.6414194889343365 -0.04412244424051111 -0.1820245907373446 0.7547990121690161
Ni 5.677558249672089 3.1610003179822166 8.990957375273451 -0.1315011280664961 -0.7168896387177524 0.13681996917624825
P 0.2366652863471947 5.891708347126268 12.16028736237398 -0.5136349349570379 -0.23516903597080788 0.7646967308987024
P 4.354146867294894 6.434698822557021 12.302451334680129 -0.4253275686691965 1.1519760865459256 0.5514062401685407
P 2.3514495647985614 8.367211033917314 1.0433700617029489 0.7108845701742532 0.2565063639960034 0.897728693787428
P 6.638915615279394 7.964726565344763 5.7372459112952905 -0.8287467673010759 -0.7516519818996024 -0.38232329719352864
P 4.968209821157692 1.4561572778815612 12.42219066781734 -0.7513447350718286 -1.2938942961806879 -0.32966273357501935
P 4.366733278942307 6.40257178045269 8.101305430669525 0.3379694536685018 -1.324572956211467 -0.32238754006984477
P 4.737561563975753 1.3668390300469724 3.598736699637171 1.2561533299864882 -1.2396843857971875 0.347639372658098
P 0.41001548912445884 5.813328505960798 3.6807321912852395 -0.821274884404063 -0.6983239599004232 -0.18792295849965054
Ni 0.45327109231848056 0.07544331361348772 5.117833279733722 1.634974013343397 2.0971238930472653 -1.1613822103511742
Ni 2.046324159559091 6.717730095120457 4.8452749882576205 0.43379935358563354 -0.6490917052371725 -0.5839479215499879
Ni 6.391615263838756 5.875572386294836 8.880203291256906 -2.1941516699272405 -1.2027119223378964 2.720164666833657
Ni 8.69062748342137 2.5016715570507744 10.252286055825472 1.5812027331592122 1.4845475091273077 -0.7988492084106952
Ni 2.8370315151612595 5.335153523028016 6.733835269045701 -0.12760822076999315 -0.04706558602923507 0.6568263548772688
Ni 0.5450876070404945 -0.2578765592134279 9.15574338514703 1.3119902344504502 2.5735673065556712 -0.7986903142353277
Ni 1.5766789606348433 1.5060320659059847 11.256760483548954 0.2764360130403949 -0.014777415419490679 -0.3434919261486278
Ni 4.117069579703125 7.12835498388799 1.4476501313040473 1.524867034681961 0.023587814622269054 -1.1594307430517579
Ni 6.038009536325726 7.930091295883358 7.977881629259412 0.02260205367023204 1.6911094228843842 0.07858731078660014
Ni 5.518281285011665 3.0719446643474653 4.761198663950146 -0.7524186848622978 0.34960626657648175 -0.922283757418973
Ni 0.8681119762392749 7.627926866621372 7.119016590843401 1.5506775679871616 1.0321220558000546 -0.3997345506914406
Ni 5.381234277613398 4.488848636839434 6.788900367254511 -0.026205454750774224 2.010313680130241 1.051225866509041
Ni 1.2259708242924412 7.42406321782292 11.044979166876761 0.1894105987887706 0.42971592754487925 0.13775147985158212
Ni 5.125947440508719 0.7978526343294876 10.093264441386962 -0.28282109063113225 -1.5593522129430242 0.2171175777857358
Ni 8.575919092954159 7.186850105645029 5.290651050133383 -0.8541513234171095 -1.701120527263483 -1.9756546952954752
Ni 7.384339053868101 6.01127020280428 6.922714749503046 0.31321410110069287 0.6299531846355086 -1.237487635256185
Ni 2.420240190183737 5.727903896261739 2.502684808463253 -0.3212066323878661 -0.7892242837264214 -0.340151291811169
Ni 2.9405479597319224 5.279293398241764 10.770459568377044 0.060376444205528276 0.863028057081449 1.6723282856221393
Ni 1.267515037701311 3.5424500856504935 3.7032881275540923 0.19307416368328686 -0.220939008414355 -1.402621620885778
Ni 1.7947498611417776 1.0217087567080276 2.2028121927177855 -1.9161899642709388 1.3606193083120632 -0.388266402150841
Ni 1.2579801517554652 3.570792149288192 8.075330336819333 -0.2960512161681611 -0.09643899425604036 -1.0348155434718178
Ni 3.9990017944724685 2.7927255351678855 6.81084690388029 -1.0897065390827427 -0.06527336728651338 0.25335033486552494
Ni 4.558979398141024 7.216034281716691 5.9871151584081375 -0.5340541220433382 -0.19541129645689573 -0.6293078377420258
Ni 8.108899836028291 7.363213803239746 0.23436351236102757 0.08369583565775908 0.47689515633384316 -0.015725638265372918
P 0.38362929952693336 5.77713578124518 7.825751754320789 0.8032352532935327 -2.2052441802959764 0.6485728566192249
P 8.99235727400776 1.719548315291589 7.811690287668079 0.42793338172315976 0.9711246901810757 1.1624636163408109
P 1.951491433527902 3.4201989031672433 10.210380549017515 1.2460229264207057 -2.4418031546357755 0.39033254065125034
P 4.249715870511002 6.462859786746556 3.570110309865854 -0.793402326363511 0.1440105733874165 1.1907611777339233
P 7.081269127365294 4.207411039419842 10.367823881765277 0.8915215365354516 0.9504393939175825 -0.4688416899017474
P 6.747059150750651 8.123605111219225 10.22038629352859 -1.2474156930031741 1.0947626134494113 -1.2835615467961121
P 2.601873881720032 8.476441166077556 5.757337084074628 0.09694447313754918 1.3720764011090691 0.4798506394177413
P 6.950723590156123 4.368770647734154 1.583571605631973 1.687620435894519 -1.2017282182683884 0.6890852149109745
Ni 2.748582544677859 2.172505200067505 13.251621612923222 1.0274994694263786 -0.9156703658675134 -0.2825958619942036
Ni 2.0717143021917135 1.227175135622733 6.873599673663671 -1.479807166228845 0.2854850106165406 -0.7394880928435588
Ni 7.2514935536672445 1.0462567869066863 9.099352638977658 -0.10634391207457815 -0.3789806059735409 -1.0733599794039193
Ni 3.03893023494713 1.7433538377527746 8.927767250322754 -0.35312070748764346 -0.5256910947906236 0.3657769627990733
Ni 6.554459887628014 2.0926222334822713 2.567080150241483 -0.3060391806188084 0.5635428755310745 1.2129091745858724
Ni 4.516810391635988 7.361746897709616 10.375881901711344 0.5237036320469497 -0.1891897410272161 -1.2172563958109746
Ni 7.305035605516993 6.38010639390792 11.182743328089758 -0.49017618971346544 -1.804938073371782 2.3919859740033322
Ni 7.738913663428809 4.068942401353486 8.28879406736497 1.8407653674830362 -0.8494395197637371 -0.46873524623087015
Ni 3.1962332156225632 8.778895354456607 12.004977381125594 0.8751780621804218 -0.009557047560815797 1.7959921770324034
Ni 0.6756204672882945 4.978161235834315 10.085140320142315 -1.563020920043863 0.8703127636683206 0.3045073173553143
Ni 9.056964502140344 2.6717420488217845 5.764957748853377 -0.24333845915547767 -1.9282888044170015 -0.18578997131704778
Ni 4.045363253202506 2.6529529810747476 10.880656771590484 -1.0186188791072972 1.2913699870969373 1.0624371618438282
Ni 1.406010840684891 4.0260399420833854 12.661100681824529 -0.38083282869093127 0.18497955960061044 -1.1386855400846065
Ni 3.622731471021688 8.562626393458904 7.920324602643862 0.2926902701157281 1.1467503193706123 -0.12561535870968044
Ni 5.637245512510735 8.357223399351057 3.683608050522088 -0.7915791571118431 -0.5891649469745531 -0.0638075813742643
Ni 3.0573027739633893 8.49716799791995 3.230518963149012 0.8221593438915453 -0.7759473641118572 1.277297053943639
Ni 3.5888296543253477 4.05091395128874 8.860827461297816 -0.1774022614739848 1.9381888371395326 -0.686200951384644
Ni 5.205703637480237 4.768466184804975 11.301276538902197 0.796317700238093 -0.6328636734140843 -0.0590798368812918
Ni 8.293566943321338 9.232268767963298 1.8880830837421667 1.0339393115144515 0.004003978953070524 2.0917865399947524
Ni 4.492334801216595 0.6159002077644236 1.1208290121745044 -0.23949620259125204 -1.4304067614188463 0.3238119312211971
Ni 6.275150208724352 5.764178115729031 0.20865463469963622 -0.920272383415899 1.1331792655543969 -0.16979539566100435
Ni 8.335781224688414 0.16729061524168964 11.105690945879333 -0.05117960819760863 -0.25461531762087763 1.492803578488513
Ni 0.3665923689408852 4.901021925888769 5.828703849109939 0.3845182479623185 1.044295972158427 -0.17036463790091305
Ni 7.230250588397582 6.61099913534488 2.8672715010157193 1.2983194218315768 -0.41769447760397094 -1.501281276942221
P 8.671050633074818 1.5832709805480205 3.7112266218643706 0.5707931293355847 0.8558140558315132 -1.5012182849147693
P 2.159484149744498 3.7355926471176244 1.4248162073822626 -1.6776286147891302 0.11725644522202387 0.8421283308143045
P 5.26773019847648 1.2446240674533546 7.8601162801071895 -0.6329724310778067 -0.7142876823185311 1.1561942383923314
P 8.66633299245014 1.72526200288117 12.699228454143782 -0.4263398119837947 1.9978186329870238 -0.7472697936715066
P 6.27105736119584 8.166815439551206 1.5218402367362385 0.7947027903424894 -0.3966595113105426 -0.7739735282149379
P 2.1896009879742064 3.4298515037543953 5.75788038241912 -0.7967005374988085 -0.6188161941820826 0.9825085065379853
P 7.183545040716032 4.173590717475176 5.689403059079269 1.0744498700339882 0.009760421820873513 0.008931241051358813
P 2.6536230490329555 8.937284931821024 10.013124313585335 -0.34900102889231505 -0.5158609960740793 -1.3362730182572147
