# total energy = -340863.5314706001 ev
CRYSTAL
PRIMVEC
9.31864009657283 0.00000000000000 0.00000000000000
0.00000000000000 9.31864009657283 0.00000000000000
0.00000000000000 0.00000000000000 13.63877172391163
PRIMCOORD
 96 1
Ni 6.702003338077976 4.482610747074565 2.5811925259345476 -0.06311646884451065 -0.30868561710271997 -1.03862283303305
Ni 6.4201517452565975 0.41757106492771945 9.270900850074531 -0.2915160473019689 0.28575343378657886 -0.35459394959906027
Ni 0.8715155783200188 4.56894794893564 0.24218120943845517 -0.4166873764956952 -0.892999920853191 0.5617605868196712
Ni 7.433563190436711 9.511256537889178 13.56763174833711 0.05277214949570912 0.5718004875541766 -1.3310115127479591
Ni 8.994854770125192 7.8981160438828315 1.6115022770514436 -0.4831272532864841 -1.2408745494505466 -1.1775611341038819
Ni 7.842250795619783 0.27334740173466293 10.98413472267021 1.1569604271343945 0.035323100781326264 0.7602903743008906
Ni 3.269584709226769 8.738433746529813 7.350357051697636 -0.6772609685825368 0.6716024847451788 0.19712467960357663
Ni 6.7893562717256515 7.413630618954699 10.24785963834799 -0.964103007447604 -0.2413299133658812 -0.9192629683147783
Ni 9.271907263220887 3.992096161908536 2.692771128624666 0.5761214835270336 -1.0894843957696076 -1.0473219034689447
Ni 0.9988650477591591 9.392537061180047 2.651499802847816 1.5687704209331306 0.6979115549533528 1.750279248376321
Ni 5.522310076383129 6.302569142657242 12.304572999155013 0.31240523204615234 -0.5906852402738214 0.5634868254821586
Ni 1.6443393015434085 4.631951275625626 4.699839433531542 -1.7199646565531794 -3.209605006822363 2.1835841788240393
Ni 2.3603370246945885 6.375366360243719 3.867655971953587 0.3270024131340368 5.08061657478445 -0.9994183949194464
Ni 2.673070591284731 1.1849955679937094 1.3242635783049828 1.0932598036516397 0.41060568907798967 1.3554022828874979
Ni 2.2844273812665996 5.920421024889209 11.829479831728854 -1.950399777383428 1.7264543780425814 -1.8812818395398436
Ni 5.352188980087847 0.4506941716751766 7.1908377724080035 0.6767493190534409 0.49196362063119137 -1.0286065864476286
Ni 3.734556901483871 8.05971058435481 11.470998264588625 0.12627458956023413 -2.38561118082524 -2.9870333479005913
Ni 2.1958816616676864 7.000730988381319 8.789888482365354 0.7405301609548279 -1.5261055350747526 0.4422305150721223
Ni 4.6305068863878 7.19743816529286 2.6789003326214056 -0.09451349509855335 -0.308433648992914 0.8043503407345826
Ni 2.3246932257611173 9.200125777421011 9.656741944971278 0.42026326677241177 0.8813345687001207 -0.49318052375742805
Ni 4.453760236879003 7.725935528093617 5.134193369538786 -0.5115292014679448 -0.3384682476817913 0.6263814081238502
Ni 8.603210957948479 0.29173587452823646 4.31777611538973 2.8932400187975142 -0.4964378543524611 1.841978928175163
Ni 1.5193204240293037 3.680406283025727 11.792423326934387 0.9069232158025026 -0.11280637987047024 -1.051411757267602
Ni 4.585525809929796 1.4286873290157243 4.665728550918216 -0.7161417048081344 -0.9932420909054055 -0.6770735351620791
P 4.572908371039359 8.745003387901864 9.332479356671204 -1.194587493458549 -0.4351934057196828 -0.28956509422318516
P 4.80834381680515 5.483330204242289 1.3994883016750344 0.7199608214439085 -1.102869558827262 0.03645078662786625
P 5.613120225561344 2.4855795495745503 8.222351608126198 -0.12916682350636466 -0.008544547135901413 -0.44549453053537463
P 8.981734124661577 5.711823263026266 11.792450350991093 0.26222449742670323 1.5091833053981172 1.525879277996559
P 0.10089105419422394 1.7520441454840778 10.593929708547178 -1.3239219528910295 0.8163296245836458 -0.6071377294028899
P 3.2873926307331383 8.683323308126532 3.545657813232815 -0.44697471462532695 1.1749836031846925 0.45803277221170147
P 1.9563180582737834 4.7648164482252175 9.628509260623895 -0.5173172689046317 -0.13333715283397035 0.17073641941803497
P 6.912017533258013 2.307845124199884 12.614527747224383 -0.28630956340036495 -1.167426359662725 -1.278514728400824
Ni 1.670319670543805 0.7488366113711938 5.4140600919881825 1.186417298942931 -2.333703693322671 -0.0767739117269452
Ni 4.035306696720172 4.522065869867851 11.633722224258182 0.08424733728585491 -2.6076992152423735 0.7104595668216926
Ni 7.552832466920241 3.877113459937268 8.382170947631689 -0.4012797836913734 -0.3754869909979856 -0.9133982820038851
Ni 6.904171238172528 1.614510334122221 5.024973314694434 0.874798824464132 -0.5100119934924701 0.2451174054327714
Ni 2.729504276602666 4.5939219047896795 2.559070073995185 -0.2086807598722922 -1.1518629580068291 -1.446388224448767
Ni 6.651775867162574 6.946487183520735 1.5282793647599282 0.8974561568523317 -0.7511035655953 -0.14419080771902265
Ni -0.0376715350505754 6.123325097563041 8.027413109132977 -0.8263687539872028 -0.4975688826331108 -0.1507610047373726
Ni 5.86388483452859 3.2153036298052085 6.042344250114242 -1.2509676720204908 -0.4326387576186291 0.5374451500027584
Ni 0.8524095702276538 8.207112835735112 11.40384068807784 -0.7270984609299542 0.04291788240944867 0.33179880608141565
Ni 2.9724225904844253 5.529969998663733 0.2837414130628705 0.9110161549249537 1.4493763605428136 0.9736590265671554
Ni 3.9558746072799345 4.824698030433448 8.764084235665571 -0.1691965857347409 -0.5897213336986553 -1.548124976768637
Ni 6.3681723699753165 1.8383533914244206 2.735105711253362 -0.5877667810754459 -0.8453170129549313 0.4438274272455969
Ni 8.269510450809236 0.8694552269620606 1.9575593011542902 1.2850435306582773 0.6070611105286836 -0.8345646595344336
Ni 7.82832874709518 7.53907815392003 12.335437267507315 0.21106880048849455 -0.8714432777283379 0.7354548033144496
Ni 6.414849438957737 2.5811701611979614 10.335066269343834 -0.04246999623875266 -0.8515974466470042 0.022947867045424994
Ni 9.283546244885699 1.9622353948287519 13.246575704145013 -0.6327981102834714 0.6817940805662001 -0.7117433186301226
Ni 2.184941578021178 6.8524807407388115 6.28361409653683 0.5926328509184955 0.37737469493900166 -0.17485044158640856
Ni 3.4278804510523577 2.357355059816494 9.239013395023434 0.8511891554649922 -0.010301381926008065 0.24223879833339573
Ni 4.473804632043943 5.114162952334212 4.339188486942496 0.7721066502095283 0.8275985126292457 -0.6637441650430247
Ni 9.02150608122316 4.758554321981219 9.9581990250021 1.5082713351068089 -0.13890281984720595 -1.7378063127202912
Ni 7.3898401304116526 8.00915696103087 7.635816822021507 -0.6730124777188281 -2.2626584565493872 2.4783483007496607
Ni 5.075499913961669 6.916322745050762 7.598391299073375 -0.24080746520350785 0.5141383569560177 0.5948997925758013
Ni 6.523933441654525 5.215279517622341 6.515022957853168 0.2915746684540463 2.2749329030413654 -0.10004059556436966
Ni 1.0594548466259384 0.047890355942194894 -0.044638150497023264 -1.0220919252575622 0.20374321336135878 1.044915350909981
P 7.73916799724016 3.638062381756787 4.335506692182075 -0.3574077648987716 -0.07024613791075644 -0.10047485488831083
P 2.057043240671663 1.4933959668703713 7.395638188371498 0.20212084726658738 -2.521449502814509 0.037889318846605714
P 0.3504209433291328 8.065972710598809 9.386762299820814 -0.6337884992211987 -0.07373538201093753 0.45083548313231386
P 5.501725200084034 8.267022373864075 12.892813096424364 0.8184790668264806 0.7206326506999525 0.8368051188291782
P 0.7882134575864294 2.1727714338624553 1.5581074003170912 0.1585650741628237 0.35304434572375326 0.9983981811850483
P 7.8798421903642595 0.2164412613563547 6.533967753469312 1.8655464310824579 4.461353522872937 -0.6474323152568785
P -0.06405260558146614 4.4505266687143195 6.566345368997245 -0.7054094059922948 -0.4509434694650879 -0.4668786526381057
P 3.742431152490089 2.3029248821510286 11.877856620691789 0.5977395760174415 0.06994171929646019 0.4899201078386014
Ni 3.53365633646251 -1.304609634166268e-05 13.18085040263974 -0.46703780392378924 1.5304506994173255 1.8389198296338654
Ni 0.5516905265041583 8.246456134845468 7.36210040213318 0.22788947159025913 2.2387063166091634 -1.9587964860875555
Ni 8.457905400623089 3.620356965293102 11.760617875917438 -0.38412461206832554 -2.1558242351019516 1.3163677946928554
Ni 8.484165328830807 6.0137099323723415 2.9986340617628744 0.3906783540264433 1.5718724568972218 -0.22830753296428424
Ni 5.60610328945758 9.006652168674155 1.2718648642127193 -1.0832474137209602 0.6335961807047347 1.3494969731466566
Ni 6.753125398456805 4.765729674969133 10.793983209170355 -1.246555401885408 2.4229649388833496 -0.7316572839452302
Ni 6.50403814473349 6.1668245102222405 4.157711695645822 -0.4982988188205999 1.1243634670349796 0.09243218708949243
Ni 5.332694384697305 0.6625236379747536 11.589614304391045 0.6228101458328241 0.876194419260078 -0.49137226690409574
Ni 8.58185263450913 1.4368225019487753 8.42862436924825 -2.393368970393788 -2.050761503732642 0.7909037283113733
Ni 6.76113011042644 8.270917565486087 5.335678213303448 -0.9566285534474299 -0.6128044407703639 -1.6078108226650438
Ni 7.420852565143834 2.8036620156647745 0.9484633182711942 1.3092862052557257 0.8225779194862026 0.4850062154767518
Ni 3.628333721342005 2.508223845367579 6.577065532733996 0.8221521448026937 0.8462791197578845 0.32499103913096283
Ni 9.452828663559016 2.2495943040343604 6.453785513489429 -0.7039729306560844 0.649880519687055 -1.0796974915861728
Ni 7.998114372341676 5.2655535817389625 0.07296122565477296 -0.5963342110294827 0.7270501241905221 0.380500385052177
Ni 0.8185456315807952 2.2268661404791352 3.987363224528586 -0.1818204451463385 0.583726292457485 -0.6709918477443735
Ni 2.503816128532146 7.939108742316384 1.6370204414957357 -0.03670635428209807 -1.2115264353057327 -0.6763202019358223
Ni 1.9204972051756752 4.781058838170587 7.240755864467302 1.1377152057515372 -1.1961820916391785 1.0827401350672385
Ni 8.478881659812433 6.2257462724853365 5.357473580970245 1.0055982984779133 0.10595104751153364 1.0584131282860998
Ni 3.1449478959626704 3.209050822201454 0.2702014287882734 0.14033081054298413 -0.03578821334320288 -0.7701811510520413
Ni 5.153403746401884 1.8046758255824427 0.2608343316149596 -0.22744107119893087 0.3026003301405885 0.22700886875751874
Ni 4.687639469724038 3.3004573643552892 2.5655344147324786 -0.5616538860384779 -0.2434312759796001 -1.359775472254529
Ni 1.8632527981565081 1.3802490370271796 11.556076518152727 0.8082504471199371 -1.675361158911192 0.6623236305464142
Ni 1.0543482317722017 2.606013656088585 8.724327188928378 0.6120094556728943 3.216723620145015 2.141197229217396
Ni 5.942058907535881 4.128670153325256 13.409994834376777 -1.5202747873255882 1.0637234847554196 0.11162907173291742
P 3.9605432460422003 5.512749151492738 6.28807399775763 -0.027589222472178293 0.5788064865583644 1.5956795866191487
P 1.9082711491754885 7.596303923658709 13.163487912137034 2.3010008037730114 -1.195790769738031 -0.26592431487579365
P 7.106860982120746 8.904081895507952 3.148251353929184 -2.533402047190695 -1.7469342431634882 -0.9967035670914447
P 7.032339816089119 6.047611145580176 8.539289745194454 0.26220032905698715 -1.5325438345009283 0.5588246441197988
P 0.7349201540307373 7.780999373295677 5.027346772364593 -0.22908400611899257 0.45709149134435473 -0.8442284078764428
P 1.148680826962667 5.995613133018407 1.9225482378933894 -0.5183020014154042 0.4089355004644183 0.06358543806112919
P 3.5217471142306205 3.300615781239438 4.359483553530001 -1.4894431466567122 -1.721292631335984 0.39809701508801765
P 4.7175523049074215 5.947985562731094 10.312084638773971 1.3394151634306224 2.207506493967592 0.0749851952576386
