# total energy = -340860.5829790605 ev
CRYSTAL
PRIMVEC
9.36808392358390 0.00000000000000 0.00000000000000

0.00000000000000 9.36808392358390 0.00000000000000

0.00000000000000 0.00000000000000 13.71113776259903

PRIMCOORD
 96 1
Ni 7.1619188903376525 8.551636667015842 4.730342776202588 0.9452192831692238 1.5086721700896533 0.37792465390520075
Ni 4.188648312664821 1.6901428597966617 13.268953122532526 -0.8217091437280042 -1.220480302064911 2.071476110572174
Ni 1.9424722000877854 0.8382720745917299 7.889813389799918 1.9048228600845776 1.5230472078644028 -0.3543687209621316
Ni 7.273858125055997 6.387590546134826 2.632716370289609 0.5043524812138476 1.4284437241552046 0.2624438125263609
Ni 6.2111145813156625 7.254147676495666 12.507491841589022 1.0749242385672457 2.3750223495658003 -1.1825153927853633
Ni 3.841635748229558 8.630534669760667 13.30643951032443 0.003753810615477406 0.14306492164469553 -1.5901329457693065
Ni 2.4750758749929744 3.4272104519311086 1.0745510767087016 1.4939302358937885 -0.16873353005539327 -1.5377857996261581
Ni 3.0581079456207214 3.564518457895356 6.977008839568457 -1.7910651720444313 0.2540584166761431 0.7335958957288398
Ni 1.6122659781987367 0.7487038242660037 3.229905489331982 -1.3268684371138633 -0.70557575636683 0.733614150561285
Ni 8.635434177649 6.343972747419568 8.400704656611818 -1.0842645421315649 0.8250225243719534 -0.2835931929104665
Ni 6.439555307619692 0.9037006462814 2.9947319211171584 -0.7860109189954464 -1.3288031922427308 -0.24415015642349563
Ni 4.00762882714615 2.16400864854535 5.531827322062586 -1.2189990895336942 -1.1252677240168039 -1.5160754045322602
Ni 0.6600976761585028 7.080069941159128 6.344692216264355 0.2860732790198428 2.855096417848257 -0.1823194962699441
Ni 1.764441133338481 5.0633463079491055 2.483333840965375 -0.8019576721326899 -0.6056413473630214 1.1118038852024144
Ni 8.911361721325804 5.211212144487257 6.328992244428681 -0.18308825611516855 -1.2045664590481318 0.2819679986022176
Ni 0.7554910010635133 1.089002282958306 9.720442846433698 -1.1487691495728538 0.6673131133412057 1.816511122921362
Ni 4.71339216516406 2.936388431293542 11.542734708381786 1.2347797494067185 0.7959299778813712 -0.8106896526890489
Ni 0.25434535194995606 3.515439066256774 4.450731701929811 1.8976237712329767 0.605184462331261 1.6262924264089993
Ni 5.825758449410134 3.402572391230694 8.31040288531543 -0.895435269767561 -0.40978884960364914 0.6412490692643021
Ni 3.8160702472214094 0.8602355473339812 3.1035712568675313 2.5147096129875144 -1.1122947087959039 -0.19996677703806207
Ni 6.1082811241641615 8.487193617754189 10.515784739669643 -1.137748630092634 0.6451448047742824 -0.2941457716153321
Ni 0.24537166436633376 8.085686909176603 4.22931048090442 -0.15112815826880424 0.39556859223920904 -1.1117380649614854
Ni 4.178952345811235 7.998704250011832 1.7888234453479746 -0.4450877820152593 -0.04773073041705973 -1.0117985137513543
Ni 7.6610504014091605 3.211650841012276 6.400235585805328 0.3022123506735505 -1.9531863389896296 0.40017369511138823
P 3.165119568198984 8.52253939837117 4.107486980845768 -0.08801528896871938 -1.056158013703336 1.3396709881951703
P 4.48200049242633 2.361075661812997 1.8822653983731765 0.45941731126405394 1.5922188817640577 -1.554004832588182
P 8.129866792926851 8.031820426656685 6.7718075190361064 1.1014042871356449 1.1539563502007482 -0.685091263260233
P 8.943082053467098 0.4206766186959346 2.6663777694184025 -1.196426603549817 0.8743172568420232 0.852178773071771
P 3.6774132371731847 2.369656826680518 8.671280213947123 -0.9800358766277766 0.3887415420150466 1.3245338754434157
P 0.5264207395202939 6.112281295996509 11.9513405509513 0.27340236842039367 -0.9541289269540277 -1.054638491735016
P 1.0787629672375634 2.3537029797707056 6.379065589770804 -0.16528336672326374 -0.4735223832068684 -0.6808934231288015
P 5.931308650897423 0.9114396204048267 12.058754064329584 0.059657306651316605 0.15212728895727995 -0.25553422989072117
Ni 5.102523634887939 1.320993513066692 7.353132724774265 0.6636243516357088 0.7970340095788274 2.1212346700525404
Ni 8.090539576645353 6.835862729623616 10.95478814093144 0.20538049185446566 0.7548319222894806 -2.0679773533902965
Ni 7.755817938308549 2.417537103577786 3.8536934090384944 0.0223984222998582 0.34184076369844996 -0.5890970698510951
Ni 2.1625846997900404 7.209087192857266 2.7857599468084135 -0.4956994335245399 0.47882528347702047 0.732656414633706
Ni 4.098873964492931 6.238272656589617 12.431874541831759 -0.97741900783022 1.6291790039281748 0.4239510000366441
Ni 4.288006210683297 5.493135261870627 6.750513864293884 1.1899739059459375 0.2781874485138628 0.9040523220126108
Ni 8.8646524549181 4.867487777506688 1.3879509560515364 1.690848970134146 2.530271214871197 1.0196025831768052
Ni 0.36975077771740933 3.7185484936505686 13.100827867716536 0.765845499791165 2.2557830695857923 1.0039435364833098
Ni 1.3280945206754047 8.314277524823297 11.050080290530152 -0.8858859355162291 -0.2573131761680149 1.710407351882048
Ni 5.966673167682237 0.11792075629903544 0.6195788396028256 -0.34376420597340795 0.39542281068996415 -0.16506687983708346
Ni 7.585262602524616 4.71768274759782 4.567413060726693 0.5755221593801378 2.208469372101493 -1.573992331453702
Ni 0.7896282988552658 1.8060166897599406 12.265188224705346 0.18234880684598273 -3.1479265559759595 -1.8347998939282208
Ni 6.996047596511974 4.24473503107295 10.420629364096111 -0.23195489990888438 0.6291828821283875 -0.02871408010524087
Ni 5.82504647503248 3.4445039348409807 4.9074763805126915 -1.2941292950096293 -1.194757186267194 -0.07398555034853065
Ni 3.8940782819941657 9.055883151905764 8.80499087568743 -0.7059161704253842 -1.8797713164325884 -1.1095994213519278
Ni 0.23586680642464547 3.575713318175582 7.971367244335073 0.5152516446248546 0.7294759600231954 1.1884137605476695
Ni 3.4036497208810923 6.515062063986741 9.839921515088049 -0.2966898781934245 1.4449733463791112 -0.7433290638562037
Ni 8.975514359986047 1.0004645218633954 5.2014712108308725 0.5647664635255305 -0.034929721997649515 0.16071837306040063
Ni 4.083435362198527 4.3160823581810694 9.869331677735532 0.358406381366615 -0.3516364096326331 -1.0539543211837976
Ni 2.4733334113845036 5.0664565118093865 11.668795392795875 -1.200851986311022 0.5143162772947787 0.5439862935553857
Ni 6.397361457659743 6.972037197433966 6.336958862991279 -1.188896870831675 -1.9365397315718842 -0.09627418654340195
Ni 6.487032756908551 4.255986099856675 2.432602856132313 1.1588540446126818 -1.570575078242037 0.6416748439478109
Ni 6.218018859162128 6.569696729387812 9.262366963126283 -0.41712292137121704 -1.227130203281261 -0.8928703372538623
Ni 7.9382332683307775 5.078307137963767 12.580338998932175 -0.11530806324640142 -0.30685499165188446 1.0569555699039666
P 3.822768427221712 4.4749463252372 4.847833537449856 -2.049563883880116 -1.221383787715787 -0.24647803322572392
P 0.21005398800110128 5.8944077683503 4.227089308207817 0.4113770200263754 -0.6600901132302051 -0.6617577307406152
P 0.32202882143832956 9.260763147159777 13.262468534845521 0.8250392365425017 0.47171824011859403 -0.24215780858381522
P 5.845103542697722 5.2082705661374735 12.208122541527942 0.44736346542331334 -2.41202875158682 -1.4117487799980266
P 7.099705445048127 7.690765963592321 0.7510430348199556 -1.0057497364541133 0.3660039912082148 2.638225923076321
P 5.950175971905268 1.0686079642720694 5.505830889194278 1.4400545689212554 0.16371679356709226 -2.514907330820617
P 7.597038284007667 3.485404989220452 0.8757949979109082 -0.19772940306711106 -2.251119345561536 -2.072480640577289
P 8.714107346379828 8.791300357851847 9.536398406618387 -1.1287302286441079 -0.2060983438570967 -0.2772507956322064
Ni 6.956055246272405 9.320859405484171 8.069799575662598 0.07680785028867418 -0.9010497877408611 0.6722329192403261
Ni 5.160793116848614 1.1948335269630885 9.753006306127478 0.5954626070578067 1.6159807600703457 1.30778699500238
Ni 4.412845296954673 4.849763362736656 2.5501207848229392 -2.2788911163581655 0.28785093974555587 0.009282710853506595
Ni 1.2279965440275245 8.115720986212924 8.785192367138285 0.5344217897954022 -1.3066266561456916 -1.4201285194212898
Ni 2.923769622258007 1.0466679117396094 10.81537325289437 -0.011521370376038221 1.2352908847151822 0.3656219252784477
Ni 5.40949700866405 7.77920067576415 3.549621330851326 -0.34194772158995945 -0.6538284485912094 1.3164295011687264
Ni 1.8564638216503322 8.516871707601682 1.0103787650722351 -1.1359701980359727 -4.1600125190607455 -0.14445408868273832
Ni 7.61987767259611 2.4234858368647685 12.331084263782449 -0.5970849731525781 0.5844806541250064 -0.5238455569414526
Ni 1.853896966657209 0.006823712324783906 5.8130834318710995 -0.5614109167897363 -0.2125369003935888 -1.3918432993233514
Ni 2.101982564934155 1.0582937038799949 0.7352793600136488 0.5820226795028169 5.028909633328462 -0.6591930553372325
Ni 7.27256532947552 1.9330479076677791 9.579642418785376 1.9729673782712986 0.15038562367582486 0.3626116776972142
Ni 8.657561591859789 7.430558064727416 13.212682789679633 0.16460639526089718 0.6248603434936335 -0.8034705092327904
Ni 4.160506588579633 9.077289223654983 6.114207374049744 0.36997223182734346 -2.0808094721579584 -0.35084810940338285
Ni 8.908954123759262 1.3148293138496305 7.744914425438125 -0.5237709949497753 -0.4499186277449993 -0.7646527650346444
Ni 5.5803708593011425 3.591002031127322 0.17362713050015435 -0.15713142704009067 0.17922748760818163 0.02293012643361212
Ni 1.1971287075226331 6.402410854890741 0.18343551436073746 2.1701367950698818 -1.7807637901184235 1.354988849499163
Ni 2.5944908406766922 6.399937680736783 5.209684210000475 -0.13817005544623945 0.21896902917217773 -0.5609617450674597
Ni 8.007388463802434 0.006259753673010167 11.476893940999789 0.9109945576583988 0.6130633508587054 1.1083462656711172
Ni 2.7934314707276413 2.867064610311388 3.5802662069590045 -0.2877879477181044 1.7196694939102641 -0.4671519609041503
Ni 0.5881489180629436 2.8353349100861784 2.280696565000973 -0.5818303609863529 -0.7529120795589485 0.07826309467796198
Ni 0.8762746438074334 5.467907011883473 9.844432247493847 0.3372107211256063 -0.34798364337139426 0.20206274033514232
Ni 8.781332716564684 1.6680154455858716 0.5840597494333882 -0.20761452339130693 -1.175278251606976 0.764638109746625
Ni 5.667728241822573 6.125387245395704 0.6132731823186245 -1.1222302227420609 -1.7381400419106259 2.3533327804075084
Ni 1.9527396200602773 3.222489714103675 10.545756987352116 -1.0301577329848324 -0.837666695498525 -2.894693977635221
P 6.882075487583746 4.905063162095798 7.44985069674507 1.1497356272511812 1.9743344338221545 0.16616037001157835
P 3.4110973475947164 5.97023303957051 0.8916654688738631 -1.0287989049640927 0.6236843209076615 0.5418643621163765
P 9.092549832354972 3.374271409718926 10.600176186823106 -0.43175121280735324 -0.6762883202566223 -0.429165454358048
P 1.6696642283551768 5.912263336295163 7.70801729012457 0.734719982030954 -1.2063173803009675 1.332656247440234
P 4.794060735769103 7.370911474431013 7.7391286968112905 -0.9173279560755944 0.7465239166444176 0.6006580352158172
P 3.49726498345875 8.459651451039656 10.863471806146892 1.0055229651552875 -1.9113349501714825 1.2083290114143577
P 5.5862540160007095 5.656983049570339 4.452568783185839 1.5334953997809202 1.9538985345653062 -0.7587453984112739
P 2.5754361579905165 3.0491520573965407 12.503652800800038 0.8992870394134835 -0.5137920293601925 1.8875838704984718
