# total energy = -340886.5350881092 ev
CRYSTAL
PRIMVEC
9.13351876336456 0.00000000000000 0.00000000000000
0.00000000000000 9.13351876336456 0.00000000000000
0.00000000000000 0.00000000000000 13.36782794041024
PRIMCOORD
 96 1
Ni 5.137713876837835 2.605254010479956 10.051750620513008 -0.19615305971892671 1.181658701212023 -0.24102909429601072
Ni 4.476392321090899 0.7590986135976341 6.328757597344437 1.424329959097147 -1.7303575697517297 -0.5688555459932397
Ni 3.402728929643177 3.394417427616691 2.9685671177431883 -0.26378875659002954 -1.1185327192858157 0.3175188991236338
Ni 5.200452016859735 4.576130345408726 3.6408753831468923 0.7959829426064937 1.3708309587377423 -0.5834951502832854
Ni 5.05590494974857 4.73103482273751 12.327556784404239 -1.0652725744100944 -0.856593871420331 -0.3366306802524202
Ni 6.207851730063334 5.806497517371187 5.601654613141289 -0.6796832048707843 0.2842727354759943 -0.34295328003633835
Ni 3.6077855582108986 2.6771439362497 7.511208503448274 0.030065451926812738 1.027829341961972 0.3070403681898131
Ni 5.261710526850547 8.201799333254634 13.082664963677288 0.7613915777848694 0.32612926650046414 0.9241588629544987
Ni 2.326572087587509 5.43038835039465 11.812561505213258 -0.27035458273300533 -0.3851347985003948 -0.3898170344674125
Ni 8.047342398342659 7.506117480119085 9.398746046903783 0.707579159950104 0.8391358238448839 1.654624183474157
Ni 7.830695334531409 9.282577735777775 7.33868364182334 0.36241987340138226 -0.22811341467560714 0.18875959546833299
Ni 8.49685765519487 2.7614463139469105 1.8088541064689514 0.6236208146595776 0.2688998525643498 0.37474548484627074
Ni 1.4768351743632435 1.8077060231670512 3.280317858478595 -0.5077789903968932 -2.017050998854075 -1.7422574065131091
Ni 1.8354627865280286 6.543800815270137 0.624420313453082 -1.2028013967279092 0.0571921329402757 0.23038549853923548
Ni 7.766185291879688 4.184457662549628 4.416676462410278 -0.9076863192207724 0.6918100700413053 -0.4777415634945385
Ni 7.191504294619831 4.054405489631906 13.264267629548515 1.4180286994694675 0.12048575079259896 0.14594172897185834
Ni 4.460828805208338 0.5118606555695628 11.03118532612903 1.8583069759112256 0.33319671487020686 0.5523256666590164
Ni 0.16142306963241468 9.362678694868192 0.9256419338191122 0.9518892389902317 -0.970511482077109 0.8514596355175594
Ni 3.4601148277007687 4.511446765901505 9.664966196867727 -0.157637934362864 -0.39607767066514366 0.3045150306647981
Ni 8.808146239883529 5.341144739075101 1.8940871897227538 0.33675769274858774 -1.458321228440927 1.0841953794565264
Ni 6.428544942663301 2.1978077408079564 7.625783928911184 1.0629110161564534 0.9597213334401407 -0.2114668072578616
Ni 3.0371689767771803 4.315788528086809 0.6053860604605591 1.2804230011671303 -0.19878484091481893 -0.5522883856631778
Ni 0.4823192026525686 9.452917859727176 5.219187603790427 0.5365545198676888 1.1301160532480408 -0.14966751456287772
Ni 6.692795905993278 1.0437876517459264 1.0339864728177708 0.7366575653732991 -0.2745439382240046 -0.3907485451427464
P -0.03529648305643224 5.596727993148886 13.096340581242407 0.385561087404536 0.527205217442305 -1.8299592780064677
P 3.834132418892618 6.2413808772492985 -0.14158506699337448 0.3051218110108616 1.5635001736731267 -0.013223183558493355
P 2.1701514461527935 9.011093025629144 2.0319896219720857 -0.6631682379348965 -0.039079739610281085 -0.6848007286030077
P 6.378164453456603 7.925510392264318 6.131769519205504 -0.3580708524040672 0.3905413142279468 2.0449952906728264
P 4.592899485761063 1.5337095953730515 13.153087132990269 0.8431567720788189 -0.82520404425514 0.5386805650717561
P 4.055720716326206 6.473408786568902 8.838486875687686 -0.19731057036213762 0.854284249450548 -0.33806612714736617
P 4.482484378070752 1.5103095204369463 4.271876396830835 0.6428269552743833 0.8776434930017789 -0.9622191601613299
P 9.218917110366123 5.967539719273377 4.198019111130865 0.05010900084124918 0.4557385768608861 -1.0357367697345066
Ni 2.5247511765662813 1.5810212222930462 5.4036773749260165 -0.2114863476418874 1.5975325806674876 -0.15007272042109637
Ni 2.062348524813663 6.600045023488925 4.99177394812333 -0.2343992476843189 1.1105756692222681 2.112642300397839
Ni 6.893523246692259 0.912550861451462 9.881912840092678 0.29849247861980205 -0.44948873929643235 -0.09656806363473691
Ni 8.678925217168455 2.474809096257685 10.883630591306524 0.5147898744970877 0.24276047516482063 -0.5175802927580312
Ni 3.867186623105641 4.801399450882615 5.665004698916787 -1.7119024483703353 0.12658749281496262 -0.5978398490407316
Ni 1.9982129564290678 6.92202895858749 9.685098298809242 -0.12204229664644141 -0.0026099268190213115 0.038988208337739305
Ni 1.2554478143412844 1.0645390062560092 11.942670305946985 -1.4303034030717625 0.042825322695642376 0.5096576954768449
Ni 3.898815998399838 7.488316252152469 1.8494124096544589 -0.5910876179185627 -0.028115527289293514 -0.005163032258178205
Ni 5.855827651926185 8.288869167121103 8.585072832307626 -0.9645241541454228 -0.5816804656720498 -0.677857207405639
Ni 7.10353937591974 0.9511281044286785 5.115239027347095 -0.1606013878665621 0.5762621228699559 1.9187379275037728
Ni 8.2985050293606 7.717357500853762 5.251511126506616 -0.34739023276176945 -1.6562185245444703 0.12486948168259139
Ni 4.988554382777906 4.733537406864167 7.763887298572145 0.20480173653286018 -0.2536961482407179 0.14270471009179939
Ni 0.28934530598686636 7.444676299754064 7.3488830421672695 1.4504122580064955 0.8533897626607367 -0.2006946563430221
Ni 6.645730884078465 1.9657798314883534 12.102509623435013 -0.9055355914263565 -0.025968141928987536 -0.040648883869613864
Ni 0.3474828926343261 7.608148017633226 2.416261414620127 1.3589645463174598 -0.7211466142218934 1.6411647155351412
Ni 7.004742104029088 6.125732263337914 7.875148170095042 1.0644197394914958 0.394880565033249 -1.3052565152710425
Ni 2.3473873767285647 5.7737355857568975 2.93502701033477 -0.1433629125010886 -0.9292411625734124 -1.4241836633272698
Ni 1.3803943502998801 1.0138205768570265 7.562300493762513 -0.9507109024114143 0.4128636318742309 -0.33798693716999856
Ni 1.0843313413014972 3.8985693933946566 4.040372751485211 -0.09499789093413963 1.4174059782838042 1.3199285154609204
Ni 0.9449812463365633 7.558068934543974 11.737834708532057 -0.8338542637309704 -0.1895548376761187 0.6749786003062633
Ni 2.426282711349204 5.819558449127093 7.518026675165606 -1.612139789057701 -1.4621244042371013 -0.1574651562304256
Ni 6.4371395837698095 2.2943307665397135 3.251015703751814 -0.12399067862206387 -0.049574211383701716 0.04155416929270263
Ni 4.116897024648623 7.108745481584681 6.632500982226416 1.1587437442870625 1.1654185852040766 -0.7106354302779245
Ni 7.890656884865341 7.11301996834116 0.686833300208891 -0.7088819379219277 1.7579851016610113 0.5378359576832737
P 9.230608014315465 5.723391630625041 8.550824877199151 0.8353002521488775 0.11373300544979768 0.5349843471670915
P 8.552325514323272 1.7975769509171915 8.688245973012442 0.6683212428907458 -0.2737121863513286 -0.5652485453682717
P 1.7543845409355978 3.513134903814778 10.694115558176458 -0.7167173748059463 0.6060429536768144 -0.5692450681221745
P 4.221302277027477 6.624988663087093 3.8868565690004093 -0.5807373850324902 -1.1429247749769347 0.7773452729006484
P 6.580709364378958 4.261005682861688 10.862696566422233 0.7929634390538796 -0.8009369441776593 0.180111947095664
P 6.41086245043992 8.193451297153306 11.076582567527321 -0.5532852023588084 -0.5254694656981208 -0.9159300472868032
P 2.314278371403279 8.628316389993998 6.297169322884438 -0.1103023825016939 -0.8716065427790796 -0.4992154170975983
P 6.739029777705443 4.266056518708552 2.062936723418614 1.732605742355958 0.05051883468515816 1.3218385879994397
Ni 2.358301931587521 1.7419355549332904 0.6342379327149164 0.24342047734632272 0.5822841606943198 2.0351263682985468
Ni 1.2502782427511847 3.4630649542442353 8.490669696268558 -0.26303928001851473 0.3045188873195401 0.12097837415830132
Ni 0.7126044366022224 0.19449645423472978 9.7265918743107 -1.745416263857065 -0.9541361260428795 -0.254294186836033
Ni 2.6659188417545896 1.5221739612417866 9.6162142140471 0.5844850250003805 2.1445360637826423 0.04410007564300791
Ni 5.26415830986494 3.012682013114534 1.300197489263005 -1.984408273118389 0.1066611862046808 -1.0461587363987788
Ni 4.298489643649267 7.234203494591061 11.06770570069266 -1.5165289471299108 -0.29313301408010156 0.5133508280577158
Ni 6.966034251734311 6.23838508311228 12.06549421215728 0.5347123244526275 0.31855865324205784 -0.2751707731747261
Ni 7.930999637009283 3.9187818703008244 9.080203621655306 -1.1750939035103118 0.15019819025536715 -1.3980077762628504
Ni 2.7546418425076453 8.699210762224306 13.196599216126726 0.6455345840135334 -0.7427510798655467 -0.2683650631068023
Ni -0.09092052535478337 5.264185710421071 10.72606460662552 0.5044201012269893 0.0009466801839854665 0.9361060080140459
Ni 8.927037252937113 2.718765381013101 6.48207284241761 -0.47022417207157075 -0.6451872279764438 -0.11829619934044788
Ni 3.120685871865294 2.445791907314669 11.880670154236888 1.5047576655265957 1.3015808661916681 -0.3028800661645364
Ni 0.8231337132764144 3.4605897706737103 12.750902683447343 0.14326675324285648 1.1228197766969437 0.7366513947257118
Ni 3.247075503780137 8.800757223246796 8.344077634318129 0.045601085668566625 -1.7841123948756823 0.0794512014487922
Ni 5.5599107792271685 8.43455792407107 4.237868653264443 -1.106377314870204 0.1654412324573667 -0.7238966661632049
Ni 3.0950663518825556 8.857786914074682 4.022098407249395 -0.39667339526761364 -0.9707536799949024 0.2046168742155637
Ni 5.559581972553594 3.176299867293064 5.475275028097028 0.14044676729555813 -1.0774048388972541 0.4137429491553906
Ni 5.926859026937149 6.131331110307404 9.87627197893712 0.34994616641440374 -1.0521576342946912 0.21345658399438075
Ni 7.785703621363862 9.019084854500763 3.2032793682117844 0.1916240615003216 0.6478508908515359 -1.199324236812586
Ni 4.501719568474904 0.6224840074864721 2.1262064342294607 -0.1373483308758925 1.4962899943752166 -0.32571840421529064
Ni 5.555535823764875 5.839259448985476 1.3661113537405194 -0.0013639702270621672 0.5867781919099313 -1.0012724174090497
Ni 8.062166099209676 8.891699669046485 12.226188426996604 0.01362710386513137 0.3669357589938648 -0.18007389476887697
Ni -0.16365164819775807 5.108523151039321 6.27642253513371 1.0780357876130338 1.0203248060548105 0.6770768775961887
Ni 7.031886921636467 6.611927731331186 3.5445596882898616 0.4182274672893055 -0.7112134142685816 -2.085495821890034
P 8.56302086473318 2.267633491349145 4.086932689815337 0.5209708064968189 -2.218293300170451 0.37762820571070443
P 1.5283208193339017 3.6146265637250057 1.7892572287238664 -0.8633944392819323 -0.23263110004030257 1.1664213154369782
P 4.836353426987406 1.093601862792577 8.404286703009113 -0.04774050060907262 0.39490293363075213 2.3929372821730075
P 8.664329854269198 1.809560127465267 13.2123737162915 -2.2020920078202395 0.568908253608046 -2.017082623422959
P 6.169153011287268 8.249896442783724 1.8897158876679452 0.33272157500600114 -1.087219768105147 0.16569885699412754
P 1.9722372292166228 3.4741713129961105 6.328276260908398 -0.4501322864177022 1.0538861869500238 -0.22897499134495405
P 7.017227624106237 4.247396739983157 6.844006788355568 -0.23130081126465324 -1.4993544922331532 -0.26373913429901674
P 2.5227874700435406 8.89873247845351 10.843045800916755 -0.27621181284473073 -2.3316743215974682 -0.16273283238726813
