# total energy = -381162.14884862053 ev
CRYSTAL
PRIMVEC
9.30533040820978 0.00000000000000 0.00000000000000
0.00000000000000 9.30533040820978 0.00000000000000
0.00000000000000 0.00000000000000 13.61929164963207
PRIMCOORD
 96 1
Ni 3.5360906812947532 4.3856394288972105 12.201223635457058 -0.7887959379397512 0.43569939882182385 -2.5084356070533445
Ni 2.0110586961575465 0.06878593269386865 11.27616027076375 -1.426093478755473 0.43439636373968415 0.699261384113028
Ni 3.0084598381503502 7.415026955069707 8.300739938656724 -0.21001464819236734 0.22251817997601678 -0.06512938550948139
Ni 6.289826405653088 3.9520761705531107 8.446820598142926 1.0244180022875777 -0.17209319055624553 -0.24531280927302912
Ni 4.234167260989472 4.868865235473502 2.662176856628183 1.0098514173273125 -0.8221171777997002 -0.017636739245156723
Ni 4.138378190069073 8.69936726462628 10.761119539622001 1.9809699368608014 -0.7865305389443422 0.7721758128845669
Ni 4.14093715592327 1.258713429693081 12.348121302950531 0.4783606851357761 0.14374472132053953 -0.8672937743363387
Ni 8.819582827791292 5.157246729245999 0.4627354690819524 -1.8382348877516985 0.44767971111215155 3.134865094806311
Ni 5.710318345646316 1.1435599662541904 9.410821187273706 -1.1099573189119787 -0.8404128907850945 1.3314588846980229
Ni 5.783681570353566 6.259267700688779 7.496657035285573 1.1200722958587936 0.878381656719384 -0.20918418187127197
Ni 0.17864001048197573 2.0363878054489133 3.4004785184848125 0.956212548955934 -0.4141162733344093 -0.16686022429208036
Ni 3.167180858423252 0.4477259711807863 9.193593832776507 -1.385248162604337 -0.12931183372466115 -2.188460533079734
Ni 3.577676202758058 1.5520081379056385 5.021269797485206 -0.5344251322295119 -0.6682600506355072 0.5388515434319816
Ni 7.700356300477926 0.7084324818733971 2.92054772939569 -0.5264079183519902 -1.9036548079184055 -0.794543896167122
Ni 9.15763617512636 3.157028742979872 13.26329682358322 0.060192353219180206 -0.7674154153814461 -0.2938140993075262
Ni 2.367527292312458 4.107019226692179 0.6504249133574087 -1.9904681061592238 0.13307798563531273 1.1042001047132273
Ni 3.172382538105057 7.808260911551654 3.736330224652232 1.3358289887412607 0.42385021279272167 1.0556898158176657
Ni 3.2949709605166895 1.5809104940625027 0.8230164590930993 -0.4009283138892256 -0.16179412262308265 0.9732237388019497
Ni 6.630271222895534 0.5262536542483256 7.34064851881812 0.28946482119989503 -0.14219228923175511 -0.9369608998151734
Ni 4.503751987396592 0.11922547601269755 2.87881890584455 0.9645184977184679 1.5565391689742614 0.907663693512953
Ni 7.903454441327804 6.180218919120022 2.2172210823011955 0.4625036634988615 0.521179065852883 2.279567830710216
Ni 3.364211923866087 7.0257756799899305 12.16338909266949 -1.3089583896026618 -1.5541290168708717 0.273648937213561
Ni 6.027127623726354 9.084747522268435 1.0554040578436028 1.2968312673218245 -1.6702058399624977 0.028847263248995482
Ni 7.888807851311415 5.002266451785416 11.421641666973553 0.4088614526933732 0.23707293786174014 -0.26185785811590384
P 8.036111231209405 5.893168087591706 7.729247490238336 -0.33673223882729103 -2.701789763870895 -0.7916292936234882
Ni 2.3532622208416036 6.207530063782094 2.556258933590351 -0.4212086614048165 -0.3101264633143046 -1.2231362516305193
P 0.40520061134921204 5.519103111690294 12.469945757738055 2.4799318431866966 -0.32198156288067775 -5.958300691216177
Ni 6.131849811810498 5.6706590275714435 0.901929382838325 -0.6480061854824776 0.3304050110576826 0.2023753864795547
P 7.185762225194363 7.721451484446893 3.483937096120131 0.478142398477383 2.183120351813743 1.085380400903563
P 0.8108013519047168 7.988840152884593 8.776925332268338 1.2847375693820842 1.3832781833621597 0.289042903171128
P 7.2021861333131225 7.418628117926342 12.841330798490345 -0.7428814347958238 0.6050618207104677 0.9574322802956478
Ni 3.2717913825428493 2.4335113900292393 10.161775306846526 -0.7154714182139872 0.3639658777322635 2.2350067562703897
Ni 8.95820433444577 4.244403124406262 9.279980797882066 -2.0056257877362684 -1.442532855258419 -1.4687570790622704
Ni 1.292947740157055 5.475805409437271 5.768546450492285 1.051883297587382 0.5429090013308069 0.7474004057120999
Ni 7.614663513018634 1.7888008800575135 5.100383716366616 0.659164258981826 1.0247532741398093 0.8170245937681413
Ni 5.204536418231571 5.359870298246553 5.069686361979662 0.34650474483302257 0.5196675143043631 -1.1149457732655055
Ni 1.4491190999061385 6.721072636732841 0.11272291114392202 1.3881439960948931 1.259205743659567 1.2843318493032332
Ni 8.379580280824994 5.350741769144851 5.425748315197016 -2.1100771107738243 4.002829669957428 1.454469715905321
Ni 9.132790943014697 7.70252444245621 11.801320548692555 0.36031773945671497 -1.0880540910809842 1.0021100828189966
Ni 2.2421937974390502 0.9610917428543351 6.902543328716079 -0.8690578082152969 -2.207524234579405 1.00674346782595
Ni 8.755487712141429 8.068642666214041 0.9862775500578665 -1.1768034300022507 0.2967572410962502 -2.0929314522324733
Ni 2.4801031792363935 3.318587889018338 3.167343701704883 0.138870938168006 -1.0778833211955694 -0.21027612938387014
Ni 4.220739669252719 2.367611040285868 8.071922795172604 -1.60060530605554 0.555071861945586 0.576522061399562
Ni 7.751358816284679 2.0074110066490176 9.044530814903865 0.5265079342649642 0.46318037785091193 -0.1303425889820207
Ni 8.769929584889482 9.287492060563913 10.119651006754282 -0.261238222254034 -1.008078898807922 -0.8103212136060367
Ni 5.901803434183326 3.654426567723228 10.87693833418298 -1.631598669113261 0.454326784115024 -0.759509273160492
Ni 5.242641746133167 7.724512938141552 5.681246632476555 -1.0548014996754416 -0.28974635699605583 -0.8317894107821416
Ni 8.679518994928086 3.0943480375476 7.0872746084640825 -0.28342607120498287 0.20582966357674232 -0.769458928174036
Ni 6.548635559481441 0.2649674214731093 11.922422909842677 -0.14416124003266786 -0.7340710355930455 -0.3700089986025499
Ni 8.715847004727312 9.033028496022506 4.843319311984307 0.44106760511227266 0.30936181723413814 -0.10382577363841473
Ni 4.604370524783641 3.8182189930526307 0.3814627135526375 1.403071563939003 -1.5943271863563124 1.371382203255522
Ni 5.395472492276225 6.965495749795415 2.7960675333180274 -0.9853128087559999 0.8309103506112981 0.1819042631093964
Ni 1.7751592657220459 6.636263855659545 10.340528842359124 2.118772067444661 -0.00884973708114605 0.9008379288403712
Ni 4.230026388970861 4.7110561375777324 7.702839893156055 -1.863988342566719 -0.6093843593452215 0.2808637097944453
Ni 4.716416007875979 6.30122543536724 9.935804663925312 -0.9635772168511212 -2.2147562335514697 1.635908095121892
Ni 1.6682968516507553 8.496743695625728 5.20398554267314 0.06675483692804632 0.2461533028964535 0.7874229688516245
P 6.046222161663858 2.019247386890979 13.188091143460948 -1.638956909250545 -2.0650108145628048 1.1297841238299189
Ni 0.9436628590546549 2.1811136088319487 8.521495874433603 0.9267433358522232 -0.29050508953895127 1.128295455099534
P 0.1036297422976607 1.9231977667199702 10.486051182022592 1.3783388370790133 1.2786057454527335 1.412177382895013
Ni 0.07433004853361742 3.7316328938769634 4.790177500723445 1.808609351575782 -2.6793440332728693 -0.7716726479959033
P 0.5266658803841109 6.3779944109931686 3.9924817761243716 0.3888428434796013 0.2364659004053605 -0.5963046433431279
P 5.370571428182289 7.9749193786377575 9.148704919028692 0.9602147281367913 3.310204045993364 -2.495999695282837
P 0.5581206886639075 1.4627886302327429 5.542248259941734 -0.4099598279638746 -0.06345174069674234 0.16905903171561204
Ni 9.031688528447946 6.396316606509223 9.676439051340301 -1.5845407963935099 0.42918010964606734 0.16346302568507332
Ni 4.2925395984563135 0.06757903134372528 7.057816724083598 0.7369133901378471 -0.5892785897342819 0.2230210877543643
Ni 3.149044769514776 4.265740246965081 5.214118116922725 1.6897449384366898 0.27156454388070644 -1.3603603982237218
Ni 7.476032701033778 7.46712749986117 5.721382383466828 -1.684230436376364 -0.30157985929587416 0.5192191139130348
Ni 1.9420968927195166 2.420511843489916 12.556796128296483 0.23987132654248364 -0.7602921740731035 -0.5232279779621117
Ni 5.0207840592394275 8.179953028206446 12.900696945241652 0.9090829424579827 -0.33266578206740127 -0.23825975908098967
Ni 7.4761350596679454 7.7494512235570046 8.452064151811438 -0.3137537756542468 2.1642633670082407 -0.6891155539282776
Ni 0.6697018357703384 8.257568788896853 2.8597792693562822 0.39523383460760964 -0.41720236845890085 0.711774171868058
Ni 0.1242112720297123 1.3252558472325968 1.1934235096225652 0.6634713709976122 -0.1829663858253236 0.5036482560579714
Ni 8.837337398154235 0.6716233864935813 12.70903226382833 1.3257947444337101 -0.66193539396906 -0.5893130425166432
Ni 6.935039403465275 7.27243207234344 10.629544029130425 -0.49232923150072627 0.2914751667617045 1.0986681191514047
Ni 5.10054935124736 2.6022542511202174 3.800736138336753 -0.4193808641674584 0.23860068736017614 0.09191565246439008
Ni 7.554690658726622 2.279805942830565 11.627375077386736 1.302972604332872 0.9375954480753788 -1.5531609965306477
Ni 2.2028973872489543 0.7349480207880734 2.8466494481916538 0.20260704287438655 0.4537724542734507 0.18877707896982973
Ni 5.899765566830347 0.3864885224902815 4.7600245081636565 -0.3708224956427807 0.04481227121868411 -0.027248037082675654
Ni 1.7046248614499817 4.382466311238006 8.000489495985939 0.6597098470726509 1.7301135720617238 1.6588261373706463
Ni 3.6470939673846545 8.269861130327381 1.210965918452868 -1.8143434258460818 -1.0661356937413382 -1.0635905587219812
Ni 0.17216443107129903 7.352290417655163 6.8424411303318 1.0781915964646076 -0.6347961145501066 -0.10626729320037183
Ni 3.460940833154755 6.36367350754004 6.219957332503115 -0.8208511666030831 1.0278573669864297 -0.18070690036718556
Ni 8.970626950501602 0.2926842785397016 7.525462616006496 0.7724511780331406 0.5184560104947651 -0.37775393265529134
Ni 1.8722883042170069 3.0063475281543397 6.345187538209317 -0.8831361406852339 -0.05864660599861513 -0.6840756775115251
Ni 6.022828561091302 1.7678918026961246 1.8625195683852374 -0.3660279024676148 2.6838028403751713 -0.9792830576221521
Ni 0.6426410044954586 4.651399664518602 2.6163750899701985 0.008050381108302265 -0.3011183462784234 -0.09569594544242874
Ni 6.7848606764802035 3.8968676454150954 5.744099486520837 -1.3609383822143786 -1.6247500216225434 0.8742833182802943
Ni 6.7926678486681 3.881606903593699 13.18467236507974 1.161575814419219 0.8972247575678162 0.9329980585126836
P 1.4814830389639533 9.04485557093409 0.4246729457000988 0.09265150218915011 0.435475969957108 0.19424247295977518
Ni 1.2681025080453916 4.12063292503651 10.83046937533683 0.8737282171077726 -0.018911749302838395 0.879897322032962
P 5.358921154547906 2.116143792126467 6.4702390815722435 1.7790185252925426 -0.3858482796276516 -2.8885521264035416
Ni 5.709183095340089 5.824364474770117 12.233937454937122 -0.5945699200402083 0.2107499836964951 -0.6140529684654843
P 6.507589747180111 4.0733618467116965 3.526797447845346 -0.5555120348067981 1.5855460977295726 0.7581337329692039
P 3.7380721824991623 4.441173640598487 9.90418049863262 -0.5579250151236649 -0.4276073658423087 -0.49244390270171967
P 3.7153950923657826 5.870062952260898 0.5301693372717668 0.20399389591958417 0.667885698015224 -0.0032105365174976966
Ni 7.939577733858695 3.7473775128780624 2.123887688067788 -0.48838515925131376 -1.9211925596918527 -1.0327779442164988
