# total energy = -340894.4133921849 ev
CRYSTAL
PRIMVEC
9.02079371100111 0.00000000000000 0.00000000000000

0.00000000000000 9.02079371100111 0.00000000000000

0.00000000000000 0.00000000000000 13.20284343185667

PRIMCOORD
 96 1
Ni 6.323847155202178 2.0467008680118632 11.492864000991517 0.6815994480568907 -0.7518607554762987 0.261104267779331
Ni 4.488864320273913 0.24418116412995333 5.952105650619508 -0.029321888892568853 1.0995338095858096 -0.19161943351463126
Ni 2.609923156618917 1.6525011949091715 4.922957552367184 0.4978277927214524 0.03297028427843354 -0.8396821832666571
Ni 3.567074494511343 4.137107482520959 4.833706719494334 -0.3963700050945819 0.5260448785856167 0.29716270406478495
Ni 5.072094729774849 4.684137446058347 2.553522446851189 0.3665858318536138 0.02803582309129365 0.35636081169149597
Ni 7.363755256431157 6.188580350511569 2.479177573836341 -0.32180569942444576 -0.36289424193463954 0.2248555698599418
Ni 5.215687727245012 4.363312910625105 11.524036256429255 -1.603904288521786 0.7778001010498798 0.5070374842451784
Ni 5.589211740704432 7.725940131944855 12.520626505299163 -0.5120385370041955 2.015158152706736 -1.5277890934247624
Ni 2.0015337529011012 6.405674776765932 0.3746849896357233 -0.3809888946528213 -0.025268544758801643 0.19844057020152275
Ni 2.769221356287569 1.561752008167757 0.32590955696069057 -0.04658504684839074 0.2135162335877226 0.21629456766380814
Ni 0.6749664710961794 9.12281908980716 4.526383606307203 -0.9445142866823991 -0.5769676335774128 0.5723509607410078
Ni 8.59452531522225 2.3588113165273903 1.2270814561610164 -0.7162540620162826 1.1270428136393558 2.271469369972798
Ni 6.626990934570491 0.852833975029961 4.531189885302811 1.3473853261202924 -1.6679175581489536 0.8290959231103787
Ni 0.9147806688939737 7.404249600296189 2.4871248932716483 -0.1411029128223183 -0.5819123791771978 0.1906241594808975
Ni 7.823734558730508 3.8531328902128337 3.615241925676796 -0.6411392831593151 -0.28835770417864537 -0.3264156873926314
Ni 7.514609992999415 3.756177397260873 12.635174350535726 0.593645608453726 0.4677975649079492 -0.42129170803692606
Ni 7.986983866132038 9.10775436397633 6.735219713672626 0.5921551399511286 -0.27389807710988956 -0.24407816553497966
Ni 6.925642358571288 0.6133436237335599 0.38272702740709214 -1.5088246365071174 0.35076352010937656 0.158059852391631
Ni 1.7525057162029412 6.152668569953163 9.188862126186011 0.90489050164319 0.580779036903703 -0.13807903839432994
Ni 0.056306893511057256 4.79431742288336 1.290145826390562 0.24880308181447472 0.22581022046372723 0.6719521547751137
Ni 6.384493952663661 1.860556785665035 7.052497272940189 -0.518341596404088 0.38305349049133386 -0.6462552642296419
Ni 3.4024991304049443 4.412539382995671 0.5860024994696877 -0.2266183181873194 0.018087196519014012 -0.5005310505852283
Ni 5.94821227596766 5.4898296541904985 4.871809650893644 0.02802039647232594 0.3286985698895371 -1.9109582835583538
Ni 5.412097473062191 2.572856714439944 9.375880323462786 -0.4121102986479741 1.3184305907591551 -0.5504963267597616
P 0.2399873970408794 5.7729292294892876 12.557131854096891 0.022206360893710142 -1.6684050393083332 -1.0821858052256652
P 4.150340987187922 6.109449946327107 12.53612693547588 -1.300469378295044 -0.449654061229703 0.13190144882870833
P 2.3277076191233745 8.614334978650097 1.3045204614872266 1.337623104527206 -1.1920140763044182 0.06855023826557227
P 6.383438519776113 7.899500206786288 5.793896260775875 -0.47621638509926373 -0.2100377881208189 -0.11838567373046065
P 4.737928440147716 1.0887105962857446 12.61315188636159 0.031055583754223934 -0.30032876049759244 0.4238597258744184
P 4.136872941879281 5.904452404706963 8.301222319931094 -1.0498984059468692 0.7667407579119246 -0.7030234222586215
P 4.481205666243747 1.1972036846494618 3.791289033399403 0.31903405021657955 -0.6648816210815774 -0.3747611685755546
P 0.25145011986317717 5.614686462708184 3.593193301200318 0.3018580526579253 -0.6460079241055261 -0.3774477142687822
Ni 1.657913671255578 1.1603808039060766 2.618969208752545 -0.03465101441496613 1.417756162534371 0.08734577370552053
Ni 2.0584008377140117 6.224275632016121 4.77673589555145 -1.2177677882297544 0.6705323916094517 0.19359738317660852
Ni 6.0794918897497485 5.563385207738162 9.169837271828394 -0.8599967264542931 1.0914314921936492 0.6127931279164542
Ni 8.424591599532908 2.411646106462228 10.160050721482843 0.6044131313828751 -0.017845255711537007 0.817054161454496
Ni 2.4836861666328978 5.356015197319509 6.985783089494383 -0.5551040007351021 -0.7352730263209466 0.17645840950347674
Ni 0.5477417041769407 9.018683044902302 9.054959265534698 0.22858289811285792 0.2827241600419518 -0.22122568641683837
Ni 1.4177801373533456 1.0083263017476984 11.466207554985465 -0.6695417455614082 0.16654089327944868 -0.2328452729336377
Ni 4.182743678915075 6.8292010508722365 1.5506077193705061 -0.085901070839194 0.6273923658868679 -0.0005571580550506534
Ni 5.3875518928312385 7.883109424250588 7.866359614117241 1.1699025891173593 -0.09016678809408343 1.0277028436864364
Ni 5.644310749910849 2.8368322066480967 4.802481241372524 -1.0322531820612804 1.4569104641363295 0.07466149336963271
Ni 0.625516283036628 7.289243498728962 6.674314921505296 0.06968229498748645 -0.04549772732148293 0.6832287561301975
Ni 5.011321641198616 4.525660138635566 6.800784647974211 -0.25045527270591705 0.2884844595644967 1.1518963823479258
Ni 7.87795855092759 7.372388156203676 8.999137690736037 1.1177032814059846 -0.5118824710423054 -0.918229127733625
Ni 4.6385192912520505 0.49493397662383515 10.409518070844454 0.19716427459226044 -1.7711200963810723 0.8271298005229433
Ni 8.18903160814339 7.062271303142408 4.799273447057887 -0.704006097886865 0.7428706361625464 -0.174695404065783
Ni 6.870985368266494 6.033125009048867 6.9775840899089685 1.7672135622378145 0.8855192962054298 0.09031025565048317
Ni 2.3624466964733934 5.243561980429005 2.549310638174294 -0.34110594241495445 -0.07169855408656683 -0.02993689676874844
Ni 2.555527769337533 4.849109725096815 11.460807707750536 -0.48720450867965126 1.4635706497653247 0.5506683335612517
Ni 1.22887569206985 3.5285827668944822 3.8029204450678304 -0.22469076214730335 -0.5250966557397343 0.14776232712036488
Ni 3.565369564462225 2.917956206286818 2.744989699684708 -0.1649036147863418 -0.8997349255841794 -0.41693497373012706
Ni 1.0111768726234724 3.4960808464343116 8.449107411143958 0.47944723333173556 0.5108830832435137 -0.9306231305226038
Ni 3.764873442590766 2.6935368953769863 7.071020571156374 -0.38691760143243037 -1.057288013542721 0.3361460273065179
Ni 4.1260750515682 6.9431066155823595 5.944051885816055 0.1626454148797844 -0.725674326888918 -0.17208779123960685
Ni 0.7254089464859053 7.30839464420133 11.122088623436682 -0.14055783895212567 0.059395825459813846 0.22224024372428178
P -0.0360552111815865 5.716179414997216 8.002560070977603 0.03671021093684 -0.9692963787230855 0.48983269033111765
P 8.652447832922709 1.8170946006033912 7.97509897015472 -0.46854781281041247 -0.908363804903771 -0.022498438212832223
P 1.6819360454397119 3.0863383454235227 10.573206690909434 -0.26176684106399434 -0.08957517725667154 -1.1168414476263215
P 3.9550588406095777 6.170349326018091 3.7609223348578893 0.6824096026630119 -0.24813408077190813 0.278449701036314
P 6.889523099752936 4.058040223893871 10.443687034019318 1.9306362216032555 -0.6388785121495965 -0.5216056118673404
P 6.2505622254718345 7.773290279182 10.194403708853484 -1.437794826352801 0.194142199936485 0.7266785997837163
P 2.2214877708251484 8.450679735522588 5.824632811867725 1.4850529880088166 -0.060845156311830705 0.15082811052988218
P 6.873330774683271 4.112164987357935 1.5184594140316339 0.6238982366906805 -0.7195756701903478 0.5945310963824729
Ni 5.138875667095594 3.006414111374921 0.5726571369582315 0.6755666115992495 -0.989685741012715 -0.9079331451242557
Ni 1.7529928390741176 1.2371297184981198 7.0828107487976295 -1.3681536690158953 -0.01065053773531069 0.4984607983197609
Ni 6.97307369295363 0.7331605146933503 9.144130715421136 -0.3364355335224786 -0.8187652306083318 -0.3989223392027904
Ni 2.75284861533969 1.536160015843165 9.352630129237406 -0.539820077992838 -0.318249092421439 -0.8115933954502409
Ni 6.2394486073738795 2.055884036212933 2.4782394112696307 0.7554147913761442 0.34029733047073 0.19340095089508627
Ni 4.086221184070827 6.737549784739754 10.417044119204132 0.0909175502171789 0.7866914900022387 -0.4144638864818152
Ni 8.130459593281362 7.321610107280473 0.24588699625846241 -0.33680962903244577 0.29102239549500203 0.2261393216683718
Ni 7.344522923813593 3.8008844518821907 8.200378864803632 1.4865388285257237 -0.2537591402681694 0.3809598411870988
Ni 2.842497265224002 8.221596674160935 12.394790038562777 1.6067188751524457 0.3437564926639241 -0.6310106793657455
Ni 0.16315007866851147 4.859528742063648 10.387706693247827 -0.41150428963285907 -0.6068695633431678 0.4427002556196892
Ni 8.77522985884094 2.4187815544455735 5.615895249092215 -0.19681177634884814 -0.7421016192070058 0.3513111650827304
Ni 3.6211090500363 2.656813243366618 11.423061097710695 0.42325294552835496 -0.8379358899995117 0.36014778953775395
Ni 0.9196158144300969 3.247548953401239 12.636137771325386 0.43370473698929823 0.7163080551826696 -0.5961776308469603
Ni 2.99281977495153 8.129602617859847 8.035620378580846 -0.4417690020546714 -0.018551537749942244 0.04721676689511868
Ni 5.616607891811158 7.707456525221877 3.6499791988680323 -0.3977424599620763 0.2879262730681815 -0.06671575615999477
Ni 2.970736871458192 8.257950473620966 3.5494126821136276 1.117099843494031 0.5559429516966297 0.2562052878158168
Ni 3.4579409297799675 4.0705701066358015 9.32955223217572 0.015853936313121084 0.33331781382910336 -0.5907317772410406
Ni 7.399125789354923 6.162167465941106 11.320263738622181 -0.5682798759954277 0.0014279906957781858 -0.019045189556909137
Ni 0.32304455281465944 0.19908531329108595 0.8644518555075225 0.7753349273388389 -0.5186097624638102 -1.1156353431333625
Ni 4.618015026693081 0.3763899196848413 1.6050563293359636 -0.5161299334647499 -0.16214739219744334 0.19402290074980133
Ni 6.131605016171731 5.679699324422437 0.20043662821890543 -0.08507728938631799 -0.40852746639272225 1.274829823350069
Ni 7.899247624556789 8.82397822913424 11.218706738696383 0.1051511773180576 0.3315910609459838 0.46700540802395696
Ni -0.08299761853396954 4.862740144695848 5.78222515761424 0.8476921980553273 0.3172707876685697 0.5238201030201559
Ni 7.9529754730887845 8.654910509660324 2.6911220288470976 -1.3454156039884313 0.30486650046694597 0.22051503350305893
P 8.571946268063824 1.6124037659762105 3.3785155456346265 -0.8741236527739784 0.7376718655704263 0.8011907120596782
P 1.7143116747851328 3.165098897057647 1.501097091991753 0.5085215249898726 0.472373871424722 0.5295081545438688
P 4.6160214312388215 0.9082405933087325 8.221833018961394 0.09693238895269111 0.524982241649057 -1.0765113805487072
P 8.508521066077853 1.5033784507717634 12.490787523201423 -0.15543424184332585 0.2780946316897404 -1.8197543124490079
P 6.238907359739239 7.84119881574158 1.3998576240116116 0.6125573577565644 -0.9048077121213965 1.2339359133491845
P 1.8199090883035227 3.389355833677087 6.15486242703224 0.06597167890511864 -0.11624985833438044 -0.3580456555930866
P 6.974778623002748 3.9420688973782023 6.074562025877563 0.27915135508902894 -0.4974285004005046 -0.958474348406917
P 2.3553202692839585 8.378224718832028 10.188172144419989 0.39864388873042306 0.2087319248252018 -0.14371078275881058
