# total energy = -381169.1226775896 ev
CRYSTAL
PRIMVEC
9.26549712924640 0.00000000000000 0.00000000000000
0.00000000000000 9.26549712924640 0.00000000000000
0.00000000000000 0.00000000000000 13.56099161945145
PRIMCOORD
 96 1
Ni 5.275097663875563 4.393142792015765 1.3118322422714221 0.6599350757095797 0.34099975585439335 0.5297382682768038
Ni 6.392238648465222 6.623403535456409 1.4098009757918564 -0.14536451631214964 0.8568550955015178 -0.4400399351787067
Ni 1.9043932106545582 0.7315554699351381 1.060400006937435 1.314783223814555 0.6626990116079619 -0.16182574719196646
Ni 4.35807288551604 2.3872738571908 6.748627655227725 0.9814731232949356 0.030224860322812463 0.029543003764439444
Ni 3.87218095242434 1.000414252202991 8.934238894723448 0.03780832909702521 -0.23402335240213892 -0.7578712233364366
Ni 2.547520629426664 2.3337007529949187 10.426123835818268 0.5440860523580435 0.6160088066402746 0.4163593037323152
Ni 8.588939761432417 2.7298841432252345 6.890190552574106 -0.6602423225373532 -0.16803059045109772 0.9936300703724438
Ni 1.2976606644665796 4.9203588421454505 0.48549536981608904 3.16223243107567 -0.4121378094517999 -0.28642217771882933
Ni 1.5206811795123873 0.024193139461408792 10.060234914885575 0.7917632480981913 0.061686935486835695 -0.28481369558112885
Ni 4.289573065502178 7.900161238479559 4.5793301764649135 -1.126321619202615 -0.9332232871496121 1.5828994041353448
Ni 6.432089551465306 2.0632223618350833 2.4308485634728494 -0.19879846776157375 -0.7206871580869717 -0.4096965470001589
Ni 8.405733087398318 7.014222202869462 6.164691011539423 0.8139086738469788 -0.15786521988232166 1.3633032829021294
Ni 4.977953172080006 3.1464701580559193 9.70339097221577 0.018184641328826745 -1.4131459174558694 0.5784689007132876
Ni 5.431758688736158 -0.03638097433848632 3.20824600682887 0.7282402878438814 0.18366572588519336 0.4636372628826725
Ni 1.7963019215592364 2.9784403682613316 3.0322923639197334 0.2177215299183218 0.20847918538444743 -2.1992643085634573
Ni 2.785579046255578 0.4492441124369148 12.274758211512538 0.24473071151731404 -0.2714097634703971 -0.1708760303196928
Ni 3.374410652058492 5.984334404411352 13.076295054446824 -0.560914436769292 -2.2978506881798038 -0.7852421591502218
Ni 3.648030046733098 5.011262634131924 3.554024166319647 -0.5748320752916488 -0.6967468452212904 -1.1860660862510992
Ni 3.7947677242063205 0.22288431223853047 6.505858659676366 -0.3145338483533809 -0.8306419274412599 0.5941186914354025
Ni 8.350631176181972 5.153478749023412 8.361951760531078 0.7302197801677554 -0.3667051310402975 -1.4209816114502043
Ni 4.806421024383992 5.281481591373135 8.952397415927718 -1.6098641056496468 0.7140596254681251 0.07049424936582054
Ni 1.7905109858756623 2.014439519636655 7.268800074466766 0.6949241901902549 -0.049831835920462565 0.7853730283011313
Ni 8.661423745196577 4.351429524099844 2.2704896787221513 2.4985597427005293 -1.3434741639913443 -1.4109851623591247
Ni 1.6253998276655959 7.675398809980132 13.565873728832115 0.8721503310976916 -0.539618246394677 -1.0869297476685538
P 0.46211944719834624 2.335164701535726 1.421042803415665 -0.4052243701614182 0.5056871408648711 -0.9995747179916525
Ni 6.472107233413078 2.7143181081077876 5.422823969888686 0.4783876817189696 0.05234508926061954 0.10681596661499024
P 0.39014691887375846 5.017155490283529 4.516000503829346 0.2987696435405887 0.2420043137250864 -0.6430066753853572
Ni 2.963272749518914 7.31498023853157 10.895863227826489 -0.7065748870553057 -0.9676287612126754 1.5880552373046712
P 0.8958568236992136 7.888310667696693 2.008260359624854 -0.6178571727029231 0.945122095469727 0.9332999060238184
P 4.274868721614446 4.76587520910188 11.11210695829795 -1.387517675364804 1.2531554237004288 -2.571729482015984
P 4.065644531741186 8.7897230834533 1.0587349971096938 -1.0435909756716026 0.6117325478624238 -0.9325658560712713
Ni 0.846765440447564 1.0450554172005275 5.182102649195038 0.9861751567562951 0.17248682645023844 0.2705276179757599
Ni 3.36433905671762 4.361232420024998 6.957913923931515 1.1613696119456838 1.1766301376491801 -0.3786196230896963
Ni 2.086330511586818 2.751213317534975 12.909440129683718 -0.8197157674470592 0.16906674502509592 0.8117060097687053
Ni 5.516547252640778 1.752513182294322 13.274881527106785 -0.7081622861470835 -0.03321428196843958 0.25310865116836406
Ni 4.117438660495073 1.494580274199382 1.8150979089635542 -0.2601509027271262 1.7781998860459893 0.12974429327638948
Ni 8.898027478981778 6.294645167577083 1.0034459228520558 -0.6027804808754587 1.7582298706819657 -0.15253558013929214
Ni 6.698435530921342 0.9598869679150657 11.41400187045346 -0.7669086509483566 -1.7993220127365848 -3.187037663044808
Ni 0.2055772902171734 7.638596255523881 4.121347773718912 1.6444277025571292 1.2351638722190148 0.3951227629510421
Ni 1.106531990417351 4.336280436351614 7.14949012149037 -1.2738985697850511 -0.34938155216018535 -0.9103237568436193
Ni 5.463039006924553 6.354092596930382 3.323528248218627 0.2941491140494418 0.01651291005335866 1.0091433355166943
Ni 6.533278045225808 6.643843222045152 8.74479190839673 2.064961192271792 -0.9602221843359591 2.0942941369079544
Ni 2.3754974103846838 4.676611410100994 9.033383419825077 0.1446579771634283 0.052763664855276865 1.3648215193188689
Ni 7.550842732549272 7.279067171796316 10.753296877144857 0.8019134491583157 3.265432141094312 0.9842679124312532
Ni 8.615809703004201 8.24919251399994 8.50961691426338 -0.8630437408107331 -1.79106260094127 0.629236361074142
Ni 8.898870639217305 3.865871148903518 13.193963161338212 -1.6652914333800162 -1.3842834846982224 -0.48207438654193746
Ni 6.077545305174161 0.003850740592149475 0.9642936383328383 1.5994064006514326 -0.6273206321086681 0.14829608813664782
Ni 1.058573777460263 6.5814771611073315 7.649375734842713 0.8174346847223664 0.20666527210416022 0.11784265674279704
Ni 7.940206716918611 6.167930229323386 3.595845840551565 -1.0336438917612198 -0.983659589423293 -0.10801641468099461
Ni 3.702399983679039 6.936197451843257 7.057912727865183 0.12319800751743944 -0.16212219538646272 -0.1426733426332317
Ni 7.442492009535325 7.9232323262429185 13.201448756440229 0.08150936952940156 0.8567129134966988 -0.7432498738788361
Ni 9.181384911101881 9.282823573283913 0.4406309063385939 -0.8190166844975056 -0.33524948363417745 2.0284826377297835
Ni 6.622375065279006 1.510424274229641 7.988020388121037 -0.4733262080356622 -0.8414981534294733 -0.4855140083511058
Ni 7.570198355978049 2.8861467517108 9.589193720535686 0.5272278431501243 0.48012291924252154 -0.1647010118572325
Ni 5.989365569333241 0.5129045633187276 5.719727558759806 -0.30115537016394583 0.15690465574126525 0.1671319898962283
Ni 2.094141325636823 8.290414710569895 5.379848741268599 -0.35404759017728704 -0.7402000313089188 0.05529800124135637
P 5.8995365750096385 6.268766634194328 6.83830654849841 -0.20835397266049277 -1.2623743711955355 -2.337609970355613
Ni 1.4718334788343026 8.94034300420879 7.55919465162955 0.3553462543840525 0.26606778243219337 -0.19960039483757885
P 0.8655410437582755 2.9580006816725883 9.095452058306188 0.3297486084206063 1.774277153952815 -0.1663920264064102
Ni 6.869569262242326 4.036708384317502 3.3771347082040455 -2.1899741415107834 0.7077863908649036 1.3092630653272743
P 6.795491612978046 9.062443724909814 9.443087949964257 0.34408816497172995 0.04231058784275294 0.042527846059881594
P 6.997062502251895 3.216128165206497 0.6652395275862655 0.2953133095608721 0.9842542855844986 -0.8204912121605031
P 4.516605540789566 1.2353872584996963 11.15175957966023 -0.2947165565171376 0.2915373874582076 -0.43126938807492826
Ni 9.171100209327854 1.1658311718171503 8.65770272156374 -0.839388306175322 0.28594755207525596 0.5577630356245038
Ni 7.865387827886833 1.5370255163857074 13.088648741721878 1.407518543966763 1.147170437627166 1.189852806987041
Ni 2.2251925165303796 2.9796170863922335 5.171226808706431 0.4029579427247447 1.0038388925846453 1.6391523130908028
Ni 6.632530050093721 3.3743457935788363 11.715191678280132 0.1157988868398909 0.6728949783043572 0.7560629664831043
Ni 0.03557580264104216 0.8412533962265107 3.0735581083260284 -0.3139332386549045 0.04205656285041789 -0.9504172824303954
Ni 7.836822300346898 5.109708540752685 10.511586001361602 0.06551247988051298 -1.132227957384721 1.1808153793751213
Ni 4.84508594375608 7.618332613379919 12.939870801788619 0.5373934708292164 1.550170803554072 0.5097844508626963
Ni 6.2469556540357125 3.878407366471319 7.631529460890501 0.13021917603027897 0.63475471978921 -0.5173278104275929
Ni 0.5426579275860769 6.879112724248857 10.135322503333072 0.7154158823857034 1.162663648166759 -2.262658199439071
Ni 5.677248034234234 6.248373275091052 11.323902323614718 -0.7389093375219533 -0.40781809903052346 -0.7052991056666756
Ni 3.6242640466877094 6.880354300859414 1.737393744136792 1.2709901378890047 -0.9530657757968362 0.005021107363675224
Ni 7.911557799904833 8.195536020330216 2.3966885287877275 -0.7395634261661843 0.6288206136929622 -0.2325405972090253
Ni 7.125834380860397 5.692146953560934 13.107702309945399 0.24488780592046855 -2.2721383710153646 -1.4906412807298715
Ni 8.866858346758509 2.9632264220334457 4.602410529725367 0.3043777337559855 -0.7500054474351148 -1.5904005976083964
Ni 9.242787360341955 9.15043815080886 11.783362573147167 -0.32778428560538386 -0.6661887699287752 -0.7792982828619611
Ni 4.764253747110478 8.18027574661686 9.828233353506825 0.9968488344200573 0.2545129877150584 0.011732457945579795
Ni 5.323667399640836 4.744749875728201 5.118745180068189 0.31424819879216204 1.1970539527211708 1.7625788916792804
Ni 0.25023050036093175 2.2633663645565005 11.063585403117564 -0.5315925478767232 0.04509020747041912 0.7460873433276313
Ni 8.622842215298334 0.194050085282878 6.55821798375297 -1.8732052331792963 -0.09625490326969229 -0.9922689283588588
Ni 6.593244342416354 7.690584959716737 5.0034360687368595 -0.06681294385949138 -0.5327875966260889 -0.30042389131456
Ni 4.361973659792495 2.849548038190611 4.084271887098398 0.1917526166583859 -1.487869117301373 -0.30649735120214955
Ni 2.7953448801923573 8.885120641530227 2.9335138259533085 -0.650990207811466 -0.7453674344424712 0.49284139525045445
Ni 0.9956517866968196 4.91233492166229 11.04519709758537 0.32199904638217447 -1.8519622646401201 1.427139146411168
Ni 1.7292660500861818 5.916427576211488 2.5350511234379374 -1.585239108012115 -0.19614534640944284 1.4881097725572694
Ni 4.333102370848469 3.510326228926251 12.619356873223285 -0.849325362783376 -0.5749598591187647 1.4335105971551505
P 7.303500287632453 0.9921031013099255 4.162586648183636 0.959441854526509 -0.04439112452086548 -0.8095254571776186
Ni 2.220735812428301 5.853181293049764 5.259874452150583 -0.25306648507651897 -0.07627048972796542 0.17635248005323179
P 3.0468845952926316 0.9522336673156541 4.584198268637953 0.3263023017432187 0.9143747869845414 0.39880072602326155
Ni 5.862224418213233 8.33976274809104 7.535110845033847 -0.7500854087434308 1.7749746942404723 -1.0722533766033018
P 2.7284572566728023 7.809489083920428 8.840491521678912 0.0986192897368108 -0.21419911858736013 0.23867293535900833
P 3.2464170752058625 3.9437291209820353 1.2273290556772891 -1.8243491309085418 -0.16540266590994743 -0.04600886262994657
P 0.16036537059866382 6.724619825708191 12.148709462499879 -0.7129861898982882 -0.18553157544933854 1.5359109512009483
Ni 7.866555280520641 4.719825688546098 5.678543350727936 -1.0200352998388498 1.035341848288933 1.1168190790288186
