# total energy = -381168.2990424703 ev
CRYSTAL
PRIMVEC
9.28010130186182 0.00000000000000 0.00000000000000
0.00000000000000 9.28010130186182 0.00000000000000
0.00000000000000 0.00000000000000 13.58236630228705
PRIMCOORD
 96 1
Ni 7.946819888661827 7.473711042944972 10.491046900223497 -0.7128512069823207 2.4301817683467632 0.19548868666205044
Ni 4.987655418537174 8.513138072100189 0.6319498440484569 0.408950927083386 -0.9422455452528805 -3.8931075854392367
Ni 8.117768635193872 5.976014050093679 5.873667524606284 0.7611293252624183 -1.1920390160050824 0.13680685655012567
Ni 8.393851649651737 1.56617486053817 5.372382435242472 -1.9197478568255262 -0.24734166677759983 0.41297907440617265
Ni 2.8640063111246215 6.7609528605773646 0.3313933463728342 -0.19087741314228418 -0.2550827441755994 0.43383380636799485
Ni 3.2438315783093596 6.209371478045191 4.601461217812186 -0.16359929415262148 -0.9178084952564386 -0.23073645412075103
Ni 2.5765644526433467 3.1690896422272203 8.251178443850842 -1.8594128073808944 -0.46020021217666546 -1.8055991039945485
Ni 1.2017360013524614 0.7853378548407164 4.717563637495578 -0.2572085322693506 -1.5264858012323066 -0.2616200310734849
Ni 4.0715887763126615 4.140623450079117 0.2657403415296875 -0.47176349153423264 -0.3216290646372654 -0.8312139978946459
Ni 6.471608581324195 0.37592112855675786 9.512206868597392 -0.44566293779243893 0.045885963898837104 -0.8340406687101636
Ni 2.3995650800465445 8.38780102358698 3.983789737664397 1.2199771371762473 -1.4314133483064897 -0.0313538317209331
Ni 3.831800238142013 8.843973684383311 6.291908699241436 -1.6668276675188844 -3.2797835247199774 -1.3006218447125084
Ni 8.273655777273309 2.4065529963452597 1.2870897333012419 0.5670593733247653 1.5480717549331984 -0.06046489015427651
Ni 8.874830021293308 8.582395468298476 6.547271103457905 0.694496615734533 0.9985002539805513 -2.5686109909916603
Ni 7.229440215833714 2.505534557091733 10.248330490084397 0.4287286239309455 0.8462248694811813 -0.12245727269667298
Ni 1.826797226186395 1.5601520747773916 10.033021931202434 -1.9081987185353457 0.05729189174293358 -0.11386953102766195
Ni 7.919137346405431 2.48144341404862 12.478364823081556 -0.5779942750697143 1.2627021868485995 0.9661053825896135
Ni 3.8531166308885583 0.7050816825504806 12.581590174164555 1.0654265834894556 0.2896568826060431 -0.3368697928464198
Ni 1.0062135465083348 7.988348342097086 10.24710737272959 -1.8173595869645864 0.6544457704602341 0.5481725637225914
Ni 5.5934325928150255 5.555829622240799 4.489298201141814 0.6789003039581728 0.528006887407994 -0.39413134557205026
Ni 4.546897006043853 8.108859737920609 8.361114236202896 1.3225703239591418 0.8793558477071953 0.5044910636742408
Ni 5.106514956324614 6.015389520021233 9.216314549848377 0.04748441873420854 -0.8698597352913019 -0.7356203823580363
Ni 5.773550079457469 0.5487129032122089 4.81618513031059 -0.6510894523934916 0.5083474613058535 0.9998670524210911
Ni 2.1827819130638306 4.946358967635073 12.274302818996956 -0.213113084612033 -0.38041913819228035 0.4828392897324201
P 4.995961109224226 2.6023074537225437 3.9803533161432623 0.1023892983022043 0.23282161878455387 0.32250118282957363
Ni 0.2485953543293209 7.305555606912149 8.10793915186904 -1.7637245752479493 -2.5252231109243284 1.0653008565448685
P 6.13677324536943 7.043402024545081 1.5953301548750531 -0.5590285326004889 -2.010765422955679 0.3138553342291176
Ni 3.044532122225423 8.748815525383279 10.224615191144999 1.6343996288971658 -0.13435145303109763 1.260363511413094
P -0.3242198280475928 8.136570120480986 4.242208079247622 2.9636267960511926 1.4259582387291894 0.5887247741133409
P 3.099674484306386 5.6369562680354415 7.790736936444406 0.2557733424847208 -0.37208927817034626 0.2371899230555786
P 3.25385408774178 0.7964628403107026 8.33384094641499 -0.32145525806356257 -0.0626690968944469 -0.19598053869680443
Ni 6.9828029628842465 3.883276960199081 3.4398969190810758 0.6052160869001448 0.5377950771430092 0.023831812312275085
Ni 6.669061297244195 4.966960792579492 7.408963775991275 -0.10575975743633398 -0.8334058633396421 -0.08723495915926911
Ni 0.9376799982135002 2.127453948956342 13.1341348312144 0.13020734895573705 0.4624288443968681 0.7199117133735279
Ni 6.845244020924281 2.4492971430542654 8.012061785016218 1.577164815644413 -0.6947236441436746 -0.13499705703489653
Ni 5.029675717342728 1.2116564296702919 7.107217569325617 2.7789485697410847 0.5707080258209462 2.4239419580846384
Ni 2.7145131588590163 6.247707576624197 10.317966514416797 1.1884667252727918 1.4239255245698768 -0.11759557372899747
Ni 0.323292745925094 2.6303333597280147 3.408005850873195 -0.16871090434757396 0.36527971144768057 -0.3069184978999682
Ni 4.072303344114787 1.599926589061977 10.146095325812917 2.258649849610626 0.550327405282065 0.2740150623037281
Ni 0.9451783200851624 7.225932337532368 2.6037263812153375 -0.28222742291119135 -0.4410660624503759 -0.865808962260696
Ni 5.580950856531132 2.63598494143574 11.95336536278848 -1.2368772553656957 0.6445426524139093 0.6421736379611005
Ni 1.1374527394650789 6.918157777045137 5.504905994222778 -0.26005885723395206 0.4843634396864303 0.17156945684229163
Ni 0.044492517798883684 2.9136641333217317 8.550779091089854 -0.15614360920552464 -0.35427153326263505 -0.12961779500085419
Ni 1.0897715788504734 2.6724650197494837 5.820926852748572 -0.20694526523842421 1.7450336837066656 2.0034002408398592
Ni 3.287995580521292 1.6257159906478058 5.938631945931019 -2.1453768145163825 2.870344602256579 -1.2946733404385575
Ni 1.3975925398443354 0.4895986577635837 7.2489089404061895 0.6975176619490439 1.3387356208650945 0.13875883807017392
Ni 4.781590768586354 3.503358892001079 8.188483007300391 1.3696539077105057 0.5213901534224246 1.4898779202012855
Ni 6.719823451499137 0.3830352542335108 11.943422662227468 -0.7455376414717483 0.15151973728026805 -1.3945036197643337
Ni 5.07592774235308 6.424094462533463 6.639318572493356 -0.9359486565005752 0.8515012873887723 0.28126711588045106
Ni 0.6935056841560356 8.964689242436014 0.6863033975166827 0.6535741664885583 0.19686396974302225 -0.22943856124493386
Ni 8.718321112425008 0.2781255647597872 8.875329290744663 0.3997330080295438 0.25183132711783723 -0.5350766497705817
Ni 1.1301307395186164 4.913730131371751 9.452050467769823 0.3587293119236725 0.21786499747472154 -3.217548944259788
Ni 4.690107529711542 5.544470778217389 11.657161232634898 -0.02564829669572357 0.36682314467540045 0.8726856347758711
Ni 8.931550000599744 0.5230868314097232 2.577960179882824 0.8408543491978874 -1.8087119385919173 0.9775905004110776
Ni 4.082223772432618 7.062741755709122 2.3234264887147944 0.5501736533130203 -0.2524964715056619 1.890480989540609
Ni 6.224136119255358 2.9550812255410746 5.835378754544042 0.6033834045667802 0.4716315939420587 -1.2569154049634934
P 2.50798450384188 5.56720702646686 2.1367238421711976 -0.694528754524049 -0.9444605506263283 1.1584650367043792
Ni 1.6577323402235917 0.21683699157040637 12.227728774470581 0.19800913909105897 -1.5428495873023107 -1.1759608794962975
P 1.7257276426415002 1.363766570509918 1.9878060561878241 -1.1737453599022174 1.0019691863657585 0.09459834150287579
Ni 4.226724230184666 4.187172438331912 6.067447176421328 -1.2624700162331355 0.34557117727515974 -0.5094334952811806
P 4.8271096655919274 7.753905142290395 4.70282683658939 -0.05140020884884696 -0.48168100775826084 -0.8655819338515544
P 6.1936881068037195 2.9830236106346084 0.5734425172265726 -0.6259985708631348 1.876359462537562 -0.03174412518081629
P 8.532728366000038 3.8719181161756717 5.156233099180346 -1.4743659406086156 -1.1674016770723765 1.5246348640664968
Ni 7.615510991211063 5.030947091224433 11.98077414205575 -1.1875825228956256 -0.24999555946067914 -1.2520853305647015
Ni 3.100008567954133 9.1537434666557 1.4901077259866329 -2.104180799894047 -1.504174539329616 0.2561034721306299
Ni 7.0914265489087605 1.5919549820226726 3.144154937973545 -1.0334816551517427 0.44416501309067374 0.3033436360645163
Ni 6.568715561602753 0.960137843423182 0.4853455873257336 -0.2026355821194768 -0.6493878963213525 1.323144965515689
Ni 7.690503490029013 6.94252732312804 3.138056055381891 -0.36847919222158476 -1.9847648851268593 -0.8248029521619795
Ni 0.24163342231431953 5.95364900589726 11.12915965956276 0.3807112155114024 0.1228197982424143 1.1246082360559342
Ni 8.112506817741853 5.408424492773614 1.45384294602366 -0.04407899259708538 -0.035540101888138796 0.10326861558336409
Ni 2.263091909941759 7.765560949556247 8.230587755028013 2.1950852374851033 -0.7706894581470275 -0.8504383933418967
Ni 4.2087486739155935 1.8132575583513018 1.2922123492333675 0.8769359254117929 1.5931856165527014 -0.29243881622655443
Ni 0.45480384585069894 3.473449125426367 10.926348613136945 -0.8131147171907738 -1.3788993375681735 1.4824037233114276
Ni 7.145956424302186 7.672880577610341 7.8192732480228235 -1.4249228554861395 -1.0580773422132357 1.1856997040506159
Ni 7.094006417077476 7.768873945729741 5.1202123858822555 -2.8938514271292677 0.6401409238017878 1.439697956912785
Ni 6.547788933111913 7.393466006776328 12.41159356602859 1.0888704163346923 -1.2856266568552568 2.2409802002450054
Ni 7.778775813844919 8.105825144786905 1.0797165890634113 1.3672913210156 0.9123130193595063 -1.3749578364219224
Ni 8.860176741299057 0.915978481261913 11.195210780752804 1.4015972933863217 -0.11647380141972845 -1.470833759085641
Ni 0.5743157747613788 6.6622775431746595 13.388817932013783 -1.0990656117001396 0.35379870739127456 0.28239557305793944
Ni 7.96265174152452 5.764594781677576 9.1351869760436 0.2658955185203873 -2.0460836386409986 -0.13725422850018942
Ni 0.7606806256166979 4.8438509683846 6.950287343857104 0.3279061558952288 -0.00017277813243841213 0.3401338083096723
Ni 4.248049903032538 4.211207900767067 2.645464564940571 0.29660091802404404 0.09007088594616745 0.5300542568553259
Ni 5.3907458997469835 0.055416125070088834 2.6014304841472073 0.25232652158670094 -0.4527764089087686 1.0087216745982435
Ni 1.6388566141258676 3.5906660852790493 1.525503888465463 0.4189327208864462 0.05721475864809501 -0.0786983824431677
Ni 3.35538767635299 1.099460004635146 3.5543697529715668 0.6365933156598456 1.6934964350593222 0.08374185840434611
Ni 0.46956106297980477 4.997436645335109 4.001786638166519 0.6976194776342308 1.822280164194655 -1.3935916494730258
Ni 9.23512995528748 4.289374194238617 13.411731430198586 0.937813477623456 0.015119115029625575 -0.4996820723213717
Ni 2.476933284804031 3.792016443756101 4.385406538783587 1.1215118565187974 -0.1433423436757983 -0.7515987600641637
P 2.902917775985859 2.8175779641890686 12.38076135738204 0.43078653490123875 -0.07403671530144024 -0.29890076980181424
Ni 6.07553385671708 5.415616571301507 0.09108419451777978 -0.06678928971040757 -0.6832069017533265 1.0730303639786423
P 3.6115741535672368 7.576905769693592 12.195878538708536 0.8374733485407964 1.2064932437571996 -2.210380473081277
Ni 3.2617236136664944 3.886599236473902 10.282747601873302 0.6886486415941883 -0.2768435328914587 1.45695494422102
P 8.660793764303182 8.527420148041386 12.466004656125039 -0.1518724926339965 -1.329997212550832 0.6225412084421537
P 6.972836134059784 0.13397311080747626 6.680255883474128 -1.0124965682596434 2.5285285211484774 0.2043703054223964
P 5.7440857577464195 4.225527097113571 10.296845931808239 0.48922693842631876 -0.9026659831880454 -0.47328969837077206
Ni 5.427977666268159 7.940676461583807 10.649227155340666 -1.6188107733199733 -0.04065711139972998 -0.438615029806722
