# total energy = -381166.83710148424 ev
CRYSTAL
PRIMVEC
9.28354067118541 0.00000000000000 0.00000000000000
0.00000000000000 9.28354067118541 0.00000000000000
0.00000000000000 0.00000000000000 13.58740016695960
PRIMCOORD
 96 1
Ni 6.394242722133043 5.505807901164519 12.26732976395676 -0.725858417875266 -0.38555414542600047 -1.521979942942153
Ni 5.683309194549244 0.923916512564571 11.606234923273373 0.09390825741438666 -0.726932110555419 0.18107713922241073
Ni 9.091965308286495 1.8810309657747368 3.9609989198309212 -0.45515750754643547 0.0952701707589198 -0.30859177183733305
Ni 1.0403878110376232 2.8459992942047503 5.906129947343812 -0.38934626547858103 0.07403877218396926 0.3017004440341385
Ni 1.9367229249282394 6.8948112231426855 0.4284743825908615 0.8976093946007443 1.1245277605269859 0.4957714244130559
Ni 2.4028959085743673 8.29276387811368 6.061814920673407 0.991761392594821 -1.0004622628029287 -0.3901415076863668
Ni 3.2505295692695717 3.8948722612127518 6.5966693932692655 -0.7299824673459685 -0.021842035575755932 1.762131776839533
Ni 8.787455898019111 3.37661861564778 9.469004235019717 -0.25489376809324493 1.3140149781899628 -0.6241332355196219
Ni 7.920828113565269 5.688452275957985 10.076320454236138 -0.563223801628759 -0.5737599252733925 -0.2823402943399718
Ni 4.683481171733266 8.981082701163734 6.319160232043731 0.5724669174935818 -0.6242142252692023 -0.23510784371556925
Ni 0.23438525913187788 8.601980043388702 3.334184480609483 0.8530817445020146 -0.5889867695254759 1.800617848729873
Ni 3.580782237202009 4.20541597277198 4.415905398788152 1.9819865510507737 1.5484036843513205 -0.6719202730959137
Ni 7.540286507020642 6.166415355974333 6.241127432799729 -0.07140313433333509 -0.3519038043614069 -0.08586121874019406
Ni 1.2037409887780846 0.7758709646704524 10.453234981527341 -0.2623049729556515 -0.27795090702302455 0.1267196475174527
Ni 8.567677361429677 4.67313002413264 12.079389129337143 -0.9355879307270467 -1.3691360875338228 -1.9916595553641634
Ni 2.2024178525783875 6.72819023916418 3.1866123932782626 0.8439335023438433 -0.8594064011684619 1.4440577765433775
Ni 8.946863571068752 4.0785935266983016 1.414611039952666 0.31756106521547894 -1.2982206914701837 0.9540132273117699
Ni 8.000174533782804 7.440989758378226 12.221852484359282 -0.014990045650929021 -0.25704886676303473 0.2910681611312729
Ni 3.3890492763089797 2.74102101880755 2.540395354518431 0.19312584285682868 0.24066399764710808 -0.6636366929308829
Ni 1.0684612373553748 8.998238683913472 13.014310350749948 -1.1356899477913924 0.3771255550426731 -0.11398394511833917
Ni 7.021717221080404 4.5420464329928745 2.9805595712426634 -0.9072980826434179 -0.11499798820515034 -1.206420481537735
Ni 7.269996226848243 3.322606977315545 13.496948621736408 -0.5170313622330966 -0.5343091754769378 -0.5621187414900384
Ni 4.66696575327451 1.2817320120900655 0.15542781925915694 1.4116204819502787 0.9015005021250346 -0.3995136929298861
Ni 0.5009184904845697 0.3467708714533288 5.761832164728951 1.125213987960733 1.3274911582995268 -0.4420425674310323
P 8.177610842384386 7.8552120496717945 8.076051694934549 -0.9770749942272398 -1.0484115369886975 -0.44326307010169463
Ni 5.423026570980858 6.271486466776023 9.659636168015496 -1.5880472668848715 -2.24661631548486 -0.21109039775504934
P 1.381743593347055 2.6212633470155544 1.7845694103854417 -1.2761081758418602 0.7279222423828302 -0.2670278323526175
Ni 5.126649542146792 9.17498801052183 9.123477357986554 -1.4338440692351693 0.5478249505751855 -0.09635054830729213
P 5.316358691221941 3.2779160135940977 7.275971113481216 -2.0476666668574026 -0.8992183909590772 0.3246570528303118
P 5.549737614569149 8.046824324538987 4.0088676394480585 -0.3966744237088781 -0.3764539828969452 1.1290521307599006
P 2.2640419940787955 8.395764759395245 1.9824425049314347 -0.3400286501903757 1.5279981241117748 -0.1605039430567494
Ni 3.2095427381872725 2.0190307945490016 8.82273335172528 -0.175339208297369 -0.02919744749956262 0.7589472300094348
Ni 8.574138705582175 4.556287384041628 4.620259332921586 1.5241684659530397 0.561628175006865 0.4516430666352738
Ni 0.4943735944680305 1.5394802291158765 8.106785783944982 -1.886590910457583 -2.639085699973455 -0.5494586295238666
Ni 0.10807155107480441 6.307163112721499 2.5723390888493674 -1.2141836704229219 -0.9618751465583497 -0.37953236471195284
Ni 1.7364769574434842 3.1140708082098403 10.689723890924961 0.0496513444785403 1.7873794956627282 -0.27958561441297014
Ni 2.35075026187238 1.494195118805694 4.268508770371419 -1.4340343308691046 0.9493420470883457 0.7069752078175179
Ni 0.5336847464992867 7.267693908816894 5.801833083815568 -1.941697107403108 -1.7620032216814687 -1.3039617077190189
Ni 5.631776261516889 5.686437747680554 4.538966154271899 1.461046083571258 0.2748761247524427 -0.951160331244007
Ni 3.3198590493426434 8.898459191167708 4.034044601145724 0.31904690573238603 -1.5666695725400437 -0.715179083784549
Ni 0.3244272463006951 7.322949541569294 9.76499228350897 -1.4732032877590822 -0.8146134132234872 1.1189230127456986
Ni 7.576158107315547 7.352415498954394 3.742296345579525 0.5098626123987994 -0.4955521093133981 1.5241664090705107
Ni 1.630031882655343 7.0142532545594145 11.73964961141988 -1.629900712585548 0.16109375412194835 1.0496814048400567
Ni 3.351135297115297 9.21770158012764 12.284830166057153 -0.09434431651054075 -0.5523272093209133 -0.5542251976745745
Ni 5.434222520762343 7.593880386032673 12.720238425009367 1.6246410068485053 -0.1941709962918914 -1.7030043745497574
Ni 6.696756171203893 4.065958628147223 8.629221664482223 -0.7301138507175103 1.1315036776241867 1.0988360121878364
Ni 1.3162203648580701 3.3906367617257573 8.213705247650065 2.8361766981256187 4.0921883603279205 0.050997059873157335
Ni 8.53819283696368 2.270336234503212 11.280082795157254 0.8130864350559996 -1.4449368367142212 2.0482253675743496
Ni 0.26187939252561226 5.756240688316525 7.685563703152872 0.18660989611518183 -0.10974933821170132 0.6826428017197405
Ni 1.9657989736144819 4.954059241659584 1.5334468561780765 0.11107499900166032 -1.448163828291951 0.44514126096101403
Ni 5.286205751843616 2.4176660214287136 9.806189850959461 -0.8869660559542852 -0.5779845048777014 -1.5744924110185725
Ni 0.9610692414414366 2.4500748611361436 12.830649428277317 -0.23686699249852106 -0.42886746350165494 1.2785059866500756
Ni 0.25756161786278614 0.6982475695602516 1.683002836103246 1.2653792194601303 1.5123753299728535 -1.3661968023998405
Ni 1.3563438266786134 4.925252415646362 12.540558284681262 2.6463809480832876 -1.3644065432686372 0.3868299268146306
Ni 8.311145288202685 3.6455070812123807 7.1165095958969715 1.246171536183428 0.23326204875608214 -0.3984371720362558
Ni 5.121552878440295 5.4696670781965935 6.948392105198088 -0.33339417559299356 -0.3725798446535197 0.005495218786616343
P 1.8918184397764655 5.388519651131955 9.760481411204804 -1.4085891513231223 -0.21723713408273557 -0.6479133686583552
Ni 2.4517644654978605 8.035182764815952 10.022120360032789 1.6123786445413846 0.8704570025556686 -0.8599977548955576
P 6.6178924950897065 5.243055855836701 0.7196758376246146 -0.23892773168229176 -0.33685847999251023 1.665911326352202
Ni 4.876151770211644 3.4237232998859644 11.95195211288574 -0.5055321033442455 -0.1607584822697167 0.3795259369540496
P 1.5437042400201675 5.323302779477787 5.3080127883582975 0.26051394249349974 0.3216552898895106 0.6904550986753076
P 4.30689435341991 7.616782880320336 10.964487909239729 1.117465968584198 0.5110774586425069 -0.24047733555759873
P 3.0564850068047433 8.56591348874437 8.125414136209928 2.435476441086799 0.7380565026033548 -1.343833347102976
Ni 5.044323105445132 0.41805546514495795 2.748744924461111 0.40474228831867715 1.403107302272945 -0.5545638119609159
Ni 6.808492864047959 7.840107729361285 10.017650335306598 2.4680242931158336 2.138131188697563 0.7366809624120667
Ni 6.445237209819355 1.1294355310243536 4.910513866829542 -0.34037909155125895 0.4728335846699598 -2.4693162724543796
Ni 3.4267868682341316 5.647688249846461 11.25053050084598 1.0402176883239955 -0.6763672531236739 -0.013869044672608372
Ni 2.869133877003638 6.284975451048409 7.917649429315535 -0.34584911352689474 0.5671277646688555 -0.5267419046526411
Ni 2.6616281808877713 1.071608357567583 0.9206403511401217 -1.4108190690949056 -1.8565377998259445 0.45048452755079843
Ni 7.42253407996563 1.1475198678189897 9.61138682323995 -0.21648585773900783 -0.9653901016901439 -0.5111648761499906
Ni 4.051494872127694 5.333765329563802 13.446253992406598 0.5104974177693209 0.353105795089308 0.5124522275028465
Ni 2.9428080540068375 3.286410453104925 0.11043699718120754 1.0621700242253709 0.02925452598974317 -0.3636141508197996
Ni 6.058011454151454 7.368513158092946 7.667043968311178 0.6805514664083506 1.329229224036556 -0.00439658640579888
Ni 6.255899402362165 7.067113733875975 1.9121410381733537 -0.7937687085639943 -1.3897239389875033 -0.16919530018316023
Ni 0.9420008493592072 8.48421833279324 7.913586952015056 -0.5937793058181129 0.557359372428182 -0.3431301719338349
Ni 5.566791478373946 2.9655155939450717 1.528229506445743 -0.3145413045525486 1.2131765693146463 -1.1452961034225888
Ni 4.41546535897087 2.087877530518725 5.366438750174027 -0.5327135488550439 -0.2730087325264008 0.8197466206849946
Ni 4.3679521989529295 8.156704309293255 0.8405317522517258 -3.6081918170626053 0.18207447013867353 2.36323744111573
Ni 6.356839337664055 9.101295266437731 0.880874305626865 0.13649395329539718 0.9936017882376694 -1.5786357437629845
Ni 4.236283744764878 5.6575566533437405 2.1942288415483318 0.24271985173487232 -0.2776377466579799 0.6768166819562667
Ni 8.226163758932612 8.10509710793731 1.2151866657976467 1.9168743919324727 -0.8128977160839613 -0.016648921410590684
Ni 3.8360424653874903 6.771414403494686 5.073046379594313 -0.7365385232969315 0.11966119800877455 0.49224747042019745
Ni 6.544394705355037 3.8025845856093237 5.586595126859736 -0.3910370229174427 -0.7251608775876092 -0.9019987819176918
Ni 7.68820115699443 8.830689345890066 5.886305875069035 -0.5655673621602711 -2.188710444307011 1.272354108116067
Ni 9.067354642556218 5.97010560963995 0.152719810510186 -0.7790992794772776 1.969872798506375 1.6544241516482088
Ni 2.6602820675226675 1.0710234945192965 6.905348041552291 -0.41170097902469743 1.3105031083819625 -1.0666720258607822
Ni 3.7848437398113 4.460332709960848 9.162608409333098 0.39444784837120456 -1.0432418198623001 -0.6346089382399651
Ni 1.5300945697219455 3.7625261085719233 3.8354511038608896 -1.887330102616453 0.18681609858871698 -2.2213215454738133
P 5.270906477183677 2.9237303783841595 3.562901209943206 1.5535669737198148 0.4120277662364969 1.5333856136759332
Ni 8.18813837725354 1.0979550453618219 13.263598477364592 -0.2611500334156019 -1.5739013144017926 -0.2766123907172591
P 6.832435114865909 3.32366530092673 10.815257781584322 0.008059379969366764 1.8094670715903869 0.76140083375625
Ni 7.387414446447093 1.5650935172146447 1.8133883050012474 0.25101165943001935 0.7953003147171722 1.2199192873551183
P 8.100111846716201 1.7895231075690239 6.1144655919758195 0.8714401924045444 -0.11884050187969211 -0.5564180915608352
P 3.267230658537308 1.672587632073522 11.007315666393065 1.5405553919514952 0.38108711079358243 0.34889664210396687
P 8.624093436738201 9.13786313226631 11.178027906647442 -0.006699266397046527 1.0013145835008948 -0.10851752268712923
Ni 6.2614416760102145 1.224953878704031 7.289273498590576 0.024772064738357337 0.7571510573409606 1.012050224750844
