# total energy = -381164.70966093475 ev
CRYSTAL
PRIMVEC
9.32125248305886 0.00000000000000 0.00000000000000

0.00000000000000 9.32125248305886 0.00000000000000

0.00000000000000 0.00000000000000 13.64259521560528

PRIMCOORD
 96 1
Ni 6.170081759044773 0.027636580833813262 5.918853503808813 0.8686957968901877 1.7475307390969066 -0.7308484148906897
Ni 8.357583918813555 8.471601476491456 6.807095206555555 -1.3483962838833101 0.47653674455316 -2.1664518900191267
Ni 3.7900398125367265 1.83473936788519 10.128849287290357 -0.30828349656829485 -0.04368072871740219 -0.026846173658566667
Ni 5.646190096869442 3.2389953425200178 12.57369724015514 -1.3311940610724107 0.005165346251023362 -0.3093325066580995
Ni 4.126341272924311 8.224066301401994 7.044735872368112 -0.4920685216401719 -0.3956472679959444 0.6465378284670672
Ni 8.32670261006708 3.5264161560417664 10.695480755340826 -0.49752928764442705 0.6542840480713894 -2.1173638742432246
Ni 0.8450759156431957 4.436738973273726 11.699221162750018 -0.395348505808603 1.8532377889184342 2.675764286341411
Ni 7.117204880210051 2.8202380846161894 8.394561326539867 0.2680585876099771 0.5986649160451883 0.4392873732833983
Ni 3.6551892560515915 5.82488782399853 6.176111677133544 -1.3754748852676568 1.6019919019904216 -0.9037242492492307
Ni 8.741339874470777 1.1030117440074285 9.417538002243685 -0.8657302865039607 0.7589582857530285 1.35376243329123
Ni 5.056005688601467 8.151696098834039 9.353854274659383 -0.8310270786948204 1.398908690810565 0.27634293910595636
Ni 0.2112708431612515 0.5734257288247858 5.342576403916853 0.0473455791634991 0.4760762599769736 -1.9774688656860782
Ni 6.334611182734489 4.430064956653601 4.09164570775192 -0.03723882974680038 -0.41674496920650805 -0.07421026476482703
Ni 6.19037412522077 1.3450846652709214 10.033678369562502 -1.0150854120327422 -0.79745489916633 -0.5587238568758766
Ni 0.5864885317457971 3.1303841111545108 4.991347890155708 0.06257576584969222 -0.2948129728856858 2.6665875049381493
Ni 4.956389465669509 4.746530792226063 1.2296139243652602 -0.11748270230021701 -0.6199742190459259 0.8347564638302656
Ni 3.38249602110498 8.816320027672297 11.077978341942577 -0.3714894398028183 0.5435420069291155 0.9562385170978628
Ni 5.047942805394192 2.3889996699325455 5.733614121841729 1.525406709235515 -0.6882514061557695 -0.04286363213274553
Ni 1.0850776546539067 5.561208239989995 9.206541203898958 1.0112290144011293 -2.2253358088395285 1.3601107441067608
Ni 4.002610970388631 4.80183378190093 11.015481209771323 -0.07007207422673739 -1.3895928127262778 0.12387137943538022
Ni 9.396288343460304 7.297664324016798 8.287971874790149 -0.540571868557198 -0.25190614621983065 -2.061433895844824
Ni 5.460874280633805 1.1123050325133854 3.557524903343452 -1.9536115994525065 0.9758164392297904 0.23808261007317702
Ni 3.181995884933331 3.5026003565104524 5.268101462587971 -2.241789069299546 1.1889621768519718 -0.046596359702300395
Ni 6.402730894270631 5.616026524547198 13.252102640463868 -0.8615422165645421 -0.7219187165012276 -1.9415227866087728
P 6.349627720129772 4.6046799752916066 10.863311766582008 -0.3392043545168674 -0.1491800334034979 0.6242800455101313
Ni 7.559116128734539 1.6998235626342157 11.799112362623728 0.09129627371283631 -2.1364332321698494 0.9040394664968043
P 7.282358827801371 8.050094449170116 4.132642439453926 0.2397494562526387 -0.736425394757835 0.18641500649555637
Ni 2.693357198815702 9.092518053469702 8.840728658847523 -0.26901015288996893 0.2223628853450751 -0.5920304414478063
P 8.618867940990567 6.296235587168768 10.365234380423122 0.8825632989008995 -0.9464822090420474 -0.410876426240873
P 5.166164247842589 1.0594069259223065 12.464720615700934 -0.5378143604167188 -0.5058486061433999 0.002406809669279726
P 5.490683645370064 6.85951886140646 1.1482151568556114 -0.5680965563400281 0.7234544364194637 0.1378970042905109
Ni 2.759649944908346 4.408821822746805 -0.292478524999514 1.086110079980736 0.39969855524718256 -0.48588013344127295
Ni 0.6266659253739078 4.438370192419707 0.6255930492384657 -1.1213686460727141 0.03934584878747417 -0.5341955327172091
Ni 2.7540851573074865 7.0944517034366905 3.939504228319393 0.262496005920535 -0.576580168331007 -0.3330213656346071
Ni 7.897095414529417 8.168828560492965 10.985221628550773 -0.05959122930007156 0.8986818017293167 0.25267259207221
Ni 7.349182885272992 2.781582851482585 1.7966340886350876 -0.01030421013948548 -0.9316831963560018 0.5831609068723183
Ni 7.8299730769853895 3.522230913775794 13.06964658442244 0.6808211751299694 2.0375388343947813 1.3011334942416044
Ni 4.124598198751177 2.6312030887277165 0.8376105247059631 -0.019105610481199353 -1.362776463864382 0.40724114348113094
Ni 3.2181530224605197 6.522210705774499 1.5490895922933632 1.725513868506183 0.48536411303680277 0.37167970143675344
Ni 0.9057768425034188 9.048801380357427 12.343847276983784 -0.20860979742504074 0.7116289045394454 0.14225091038383242
Ni 5.5821437725721195 5.990880684293496 9.01797320274885 -0.7031450354381502 -1.9699424754020458 -1.748495674113337
Ni 1.6739757301096234 2.3719790633007722 1.141361240066815 -0.14089259658372508 -1.373035165477913 -0.9800890984632152
Ni 3.6100650738476423 3.840971134900366 7.597124466961109 -1.3057121147512223 1.7965431644398673 0.6574804435214999
Ni 0.9973273858524234 6.159669920267287 2.19476621165714 -1.286851016180661 1.0213051676902087 -1.4619958490790368
Ni 5.116472652029894 7.325432334507516 3.339325573375302 1.4305715691314846 -0.12646562252511767 -2.2726250808437958
Ni 7.235957634037425 8.665530129817869 8.821193178355262 0.24271290975633686 -0.06485556302280444 -0.5943189803716667
Ni 8.875500658288468 6.1915299605013505 5.777966504358324 0.1301099041459243 2.3541987279522294 0.499104859661663
Ni 1.3838610746839417 5.336258459133163 4.170268606337724 0.11649462735533485 -1.6926459141335688 1.8093559999338193
Ni 8.178392165314541 5.902943990446759 3.5541412887720756 -0.6581088211341182 0.09270600957616937 -0.18374543008319322
Ni 0.03710510888230985 3.1105764500961772 7.853687274867038 0.400623123943981 0.2615740083268979 1.2425699348750987
Ni 0.6230902930059186 0.7133274719111024 7.568897850859063 1.9053579066524413 -0.06686102348860744 0.4121329243557934
Ni 2.2358235314988533 1.8651546140185276 3.4829819168730527 1.2307171493015707 0.8186652146953579 1.0112038175901488
Ni 8.310856481220414 5.027212340361847 8.31172335768085 -0.9978011710309977 1.0638769796141485 1.4049739231680385
Ni 5.3054890054138415 3.569135455161928 9.28924308247494 -1.0931317627142076 0.2205230039228589 0.2093947552201813
Ni 5.7332039867421685 7.208170981042182 5.550898934987398 -0.09612891921478928 -2.17165246038346 -0.8384966475989882
Ni 4.076081080723588 5.283406958803399 3.5782479113739876 0.4495396471390258 -0.3798290700167652 1.0339585947881613
P 8.898962250233797 1.7800609021119265 3.5278795926470177 0.6131083451640279 -0.9447109760742375 -1.8706603552702556
Ni 1.4649186843607738 7.980548586037775 6.117776484097605 0.600817700722133 -1.0729861410042683 2.55961007304463
P 1.7057705215778471 2.6450824333469445 6.841065578301904 2.1808513532739084 -0.32982137064007067 -0.3895545248346452
Ni 1.538071872118798 3.1935635589913978 10.19129142407326 1.0625850002756023 -2.3842284415451003 -2.139726815319457
P 0.244334257062435 2.3342839191502307 13.149960358168705 0.4172383639031589 -0.2713678544888681 -0.22958228591164975
P 3.2070327685110644 6.4174957578548195 12.107298129811195 0.43946452229121086 0.29611703640909004 -0.7134027086104164
P 5.551159930050755 0.42865922418254265 7.882405120963331 1.640974453901206 -0.6577838336945316 1.2397700035324584
Ni 5.499417658740256 4.742783648816439 6.504216028281269 1.6128866945260545 -0.7027778819067187 0.17219346357953572
Ni 7.954952427324277 4.341522381409784 6.083205823705536 -1.3736090357035118 -2.338039087473231 -0.09905200639885521
Ni 7.2008910830249775 0.3207936929980551 2.5334026457365417 2.837971328132196 -0.4419245537959292 1.0323848225431382
Ni 7.321321662259646 2.200197705350641 4.683162122968242 -1.0643505768164572 0.8426996299367422 0.05728135021997232
Ni 4.132045879309111 8.771857654379003 4.769628855333146 0.3483402553798646 1.0877229329938107 0.3587671071401434
Ni 4.421144518238154 7.985069393385206 13.05402602988053 -0.526553442790919 -0.6510457436397498 -0.3052776198624355
Ni 2.6141358758346303 4.152683131818828 2.2075223453787065 0.06355047105813572 0.1463515628157673 0.1354040626653281
Ni 5.707682398046773 6.672432007240901 11.070528797134191 -0.051631093912730436 0.7354553175350819 2.1238114296407815
Ni 2.8708338418983703 0.9462562447048424 5.995770613230533 -1.1556064842096612 0.2540789855014334 -0.2252777449990249
Ni 3.572118255886006 9.07040804310247 2.4758448451393162 0.11692245892137282 0.22652601558382923 1.0988239280029786
Ni 2.778422946965515 -0.041605409474763225 0.48738684193874254 -1.3156777106043664 0.405369894600347 -1.2733336984205168
Ni 7.915681991541331 1.6314242135301915 6.78266140799922 -0.5259806010065845 -1.2178379793460576 -0.4114500393561559
Ni 7.69106777576596 7.289126056944124 1.166100775697367 1.7097388650601135 0.7022279229405197 2.05687892948429
Ni 0.8466418860233369 8.015671064563799 10.130704216490642 1.196338928932017 0.6032383943484836 1.6784253996588123
Ni 1.6736401650281645 6.7380443019183645 13.504409364586628 -0.37972236923557184 -1.117581925336772 -1.3452315130020833
Ni 0.2220107900183865 3.664314762016819 2.938465119815945 -0.5247369584074705 1.4644581945766006 -2.8077148432405
Ni 7.492338677524232 5.037260650301087 1.4631551034326624 0.8947976361835622 -0.9772395448295621 0.8241493777383806
Ni 6.921048447592841 6.561033721448833 7.25687825261593 0.9374915755076629 0.19710411077828635 0.5717732338606669
Ni 8.503191200409898 6.271301237365924 12.586644459548092 1.26374682606303 -0.1359185404079014 -0.048243922608052395
Ni 8.343229190328929 0.6790811910977765 0.41832009117270563 0.42850648061781044 -0.6432059358803568 -0.03011790243130297
Ni 0.3845519906004586 7.54516221409721 4.1121505984795075 -1.661070710430449 0.9515249136722775 -1.0666103193849115
Ni 0.9124173026153986 9.66940103475874 2.495189239960191 -0.8740506334441981 -1.3012695055988364 -1.0023129428584223
Ni 5.737482441530769 -0.17777305890462403 0.9646899531796473 -1.3393218323858676 1.1947710702242649 0.05369851796472042
Ni 4.0456005858244115 1.7474644829491066 7.8072068504588605 -0.6934095533179413 -0.7826288898970908 0.5367260124485467
Ni 6.75856969940093 7.937773359404037 12.962415830517045 0.018279772145794324 1.2832267891645126 -1.964431572886146
P 4.42473320035931 3.1809798684366917 3.595410201040154 0.7562244317616331 -1.4017045083881472 -1.209963461693987
Ni 3.152885614116778 6.749686545994534 9.854987167309998 0.13971888799059806 0.11840058612879609 -0.4220478694766603
P 1.9894628341944978 8.938773318647982 4.328235868434467 0.7313934887608823 3.037947875362271 -1.1440802287376166
Ni 1.296483655972968 5.04416769822778 6.651720184713081 0.4242579897541016 -1.118002043593326 0.5854124219106563
P 2.3168811411756858 6.6480848963306105 7.747042827728971 0.5256844099224043 0.6512277777435688 0.34109025868567067
P 1.3544525237949803 0.8666518182557721 10.3123418665834 1.3258747057420264 0.16929274499297298 0.4603367377545298
P 0.5582022596292704 8.125745732534558 0.8495939266149484 -1.0422601726753211 1.810139157956747 0.6494208064418171
Ni 2.981234753698325 2.008357012531082 12.264870170811996 -0.34795973211199427 -0.07893158149989633 0.7905784837614707
