# total energy = -340871.2405903456 ev
CRYSTAL
PRIMVEC
9.20012453848184 0.00000000000000 0.00000000000000
0.00000000000000 9.20012453848184 0.00000000000000
0.00000000000000 0.00000000000000 13.46531222490822
PRIMCOORD
 96 1
Ni 5.843845581832617 8.010888944426547 11.518120906054255 0.3096955464244731 0.2451469731191262 0.665974339925124
Ni 6.4573650947831736 6.8157467507150935 8.980366800474078 0.14730055699259792 -1.2438467447049932 -0.14723345120008838
Ni 8.833830894969605 1.4015745907900703 9.081975737235615 -0.6704884257453937 0.13441727327202657 0.23088763498663462
Ni 8.833343288362725 6.307761867717687 0.7349565583752464 0.6407543890160706 -0.1577124963545413 0.3864110941096571
Ni -0.06663098282387774 1.6912221154012685 1.7276132084864126 1.3757191400679791 -0.6966275460346067 -0.014358839824833337
Ni 1.7058779139816338 4.358273852914025 2.1697058786699865 2.2527784784315137 0.38141672621885925 0.8620068149057863
Ni 4.377566514322076 3.92855443038314 1.946923020048982 0.9113411423645402 0.8402110591869337 -2.110202580608095
Ni 2.64768547510744 5.456299530734497 4.3872137650385685 -0.08173588371791085 0.2556869534185016 -0.8556016827103909
Ni 7.10909272543885 4.494730101843076 4.612906623088932 1.0323038327935579 0.9170279083366722 -0.4718650501091035
Ni 4.429473617643119 6.532658914985125 2.5473811160224233 1.4399098158132748 -0.37899191882745054 -0.3417078376650115
Ni 2.2341582719748243 3.128493189864796 0.18048620551782124 1.7626390554932545 0.005913794381273686 -0.13276225416710682
Ni 5.833688644210066 2.847659384676065 5.27445722684207 -1.8148314212260939 -0.7464326424821919 0.2685069880013053
Ni 8.631207349499446 5.814911189782869 7.978211021653415 1.2197665638273378 1.6429431475918026 -0.4019822090750367
Ni 4.840617988489285 6.951660192289315 5.306935506910122 0.9855853456910961 0.008424476618269363 -0.49904958094369534
Ni 8.81464863505745 3.941572606774362 1.6493523480822212 -2.5344258604695193 -0.8901513956608024 0.04929087581532802
Ni 6.7418237490871995 2.6517703304556397 1.219247440328162 -0.7393837060552105 0.5035127589213715 0.012057702495482459
Ni 2.014486895513192 8.309736593695852 1.0001197912338233 -0.08555577168463331 -0.30217352701581507 -0.32945370288800685
Ni 0.8558443563578473 3.679580656885435 9.079363821845178 1.5480123624501727 0.954407377426395 -2.3150814502357937
Ni 9.10506897013993 5.414549365036005 11.942075530474371 0.19740364429657617 0.7186274473444657 0.14783071846445509
Ni 3.5592890269806796 3.1111325546349473 3.8471471273458757 -1.277065140438491 -1.2705000856264637 1.27609557743637
Ni 3.9796059221109785 7.947601286903426 12.922727857931639 -0.5477287913169535 0.3604321535473921 1.2395604586248137
Ni 3.883464619433755 4.350416946456001 5.981843771654366 1.4086452013720385 0.056143894181419435 0.68353343185481
Ni 4.322825772606337 1.7467724680869217 13.208502130061776 1.1593114438650745 0.5324153008883347 0.6524868469616505
Ni 3.1381993213790995 7.920976126142862 3.712938468870801 -0.390137908141941 0.3950836821829905 0.5279598362201423
P 8.629266123196585 5.703700082915666 5.75184249522661 0.5213474731099473 -0.608033758854598 0.018508600327148766
P 4.867206348751215 4.172725738809313 13.007909052103658 0.05321566479103093 -0.8025323136892373 0.5525143856310549
P 8.729023074864443 8.94765483723971 5.1280216026963705 0.8993045229149803 -0.056436485721173775 -0.5907554313901245
P 1.4848081185719688 6.542880253480283 2.282316324497688 0.42498355506621643 0.8583121396630186 0.7407916421463306
P 0.2565077555802293 2.8209422226689207 7.278984067400395 -1.0188955298074516 0.18895731330143586 -0.5012453030434335
P 5.90406039771993 8.239530442429833 3.5841836442930526 -1.9798273386159257 0.48926679052531863 -0.8120919323532143
P 1.3040164689154985 2.5921535226711034 3.294046673050043 -0.0978081066894251 0.04927082121066999 0.7707830463020984
P 6.073646295542826 7.816425909528129 6.949474242670549 -0.4400021399622358 0.09785104411221858 1.0556083118474529
Ni 7.419219727538995 6.980769386707567 4.344569347223309 0.08568021307763952 0.5538685856661041 1.6843132258981572
Ni 4.415535428786086 0.8927230560498712 4.8077091425872345 -1.8450351985029838 -0.10770633963974355 -0.15877281929825557
Ni 3.1202130776724992 5.701740456363488 0.6784365125506289 -1.1160436343153746 0.36768035046937325 1.557154433960757
Ni 0.9018366995361924 0.7571343788760803 7.162186644840788 1.6500651033485647 0.7961441507747062 -1.3333278195859617
Ni 8.843389824489378 8.740661232556949 0.1464889848687166 -0.4023722454246038 0.12183198040784822 0.6394909489226148
Ni 5.187747891964339 1.537543233112241 2.6320379030889307 -1.5929896984918115 -0.9031933164464251 -0.26650358441803135
Ni 6.282038319173619 0.5815637999630858 0.32503488409614295 0.2279108117464978 -1.8927574442796111 -0.17725982235884954
Ni 6.193422718466728 5.361225442517614 11.348834932295215 0.0547621833425444 0.8226342266454348 -0.3470163943621185
Ni 6.791854026977988 8.960608612758326 9.651679656501933 0.6375690493095535 0.8062832960912372 -0.9326715284112002
Ni 1.9101942823888851 3.666268076505154 10.955714525666748 -0.4239638555524505 0.8614555703880068 1.9073649097801406
Ni 3.678219038436035 2.234204272598115 8.369822607837953 0.502083996894645 0.4517158288547382 0.9591027260195353
Ni 4.355697818009755 8.698441860500894 8.935931118387884 0.5159455853680855 -0.34850274909965784 1.1771831819391727
Ni 0.8272292086337355 7.066450147648522 4.413539001735277 0.8805426689264448 0.8507561816926315 0.6520736706836318
Ni 8.660417745288935 1.9370678465152171 4.408705256239907 0.5043141717767443 -0.11890992166504682 0.3742271504489555
Ni 1.5192533852919232 3.093725918781808 5.538094159019868 -0.10307218330184185 -0.20432402556549326 -0.7170356773773134
Ni 4.257118482298133 6.134164715543857 7.617596495466972 0.8144784303075198 -0.06619150822540859 0.5630926753675335
Ni 0.5660763101136278 0.5142667281139612 11.553385903881248 -0.3893570641118585 0.06652420897447897 -0.8967917837954554
Ni 6.784089121766545 5.051264042661313 2.3379687985670463 -1.2460707489395055 -0.6540243666520994 -0.5376837483761255
Ni 8.473958818843071 7.792569986289656 11.14095719563281 -0.438798863682754 -0.8947870946606009 -0.22575931262113375
Ni 3.426733630906667 5.497801293067219 11.99087391167344 0.4906677846379034 0.6100592739250591 -2.727248056043
Ni 8.01563620875013 8.95232850056603 7.23565332028564 -2.152769507436028 -1.093022490829853 0.7555310052390343
Ni 8.713410463319635 3.2124719277440015 10.758434412598017 -1.310857663507904 0.1351353823849737 1.3428128762582616
Ni 7.14020754703257 4.43918894928208 13.356486135187433 0.4139807761978096 1.1865386550121435 -0.19318137868511245
Ni 0.29021793234000093 8.677134371792718 2.7890702308158386 0.27403485979806996 -0.47116596715954984 -0.26783155920083546
P 3.3912027494770554 2.306958858394429 6.262541414998157 0.12271875388817576 -2.037090948224085 -0.9357049159208853
P 4.913547376654104 4.906426480168728 3.9801174490419693 0.23006179665122958 -0.26206997412670996 -0.12036645160591529
P 8.26852923535219 5.617200510880139 10.115075215331354 -2.268709033618841 -0.2970194936187014 -1.9637324899365922
P 6.934244356311518 2.649470299291113 3.2652843233314015 0.4813994719621 0.6573436608333195 1.2191515559511585
P 1.546016547922358 7.22460029052139 12.004743099595537 -0.406299605503468 0.27294368361642024 0.7923589727006611
P 5.716019049832871 3.1627820544655627 7.62478731289975 1.0327535187364663 -0.6010673548390939 -0.9357172572160595
P 0.7487880257862451 4.514786373597749 0.06069598240693259 0.7965912656144539 -0.3180763142890006 0.05806476535321613
P 1.2578594435057733 1.2781641186262163 -0.04328474649146415 -1.0731015835362099 -1.2159281639178543 1.2454426284372033
Ni 7.273232149464146 7.391711354811255 2.052706053367902 -0.5791929233635057 0.6287997877573558 -0.8774061801799921
Ni 2.5739096754740762 1.578446987342187 11.783212377940501 0.14680459119278588 -0.40732881809893073 -0.7287753344117449
Ni 2.3624724105814496 0.7851478384475519 2.8215889914323857 1.209574968006317 1.0053704987378234 -1.6351529621234224
Ni 6.190598280196688 2.0034927465467534 9.79116734650583 -0.8310800434199429 0.3810680846301888 -3.181431886822256
Ni 7.453894997375403 1.9343814101150498 6.693809218509002 1.6025171783662724 2.2399052220132716 0.9733060141031108
Ni 2.898508473661425 8.373373855955982 10.79499294795194 0.1720350836248005 -0.6108108073791028 0.06005222809689013
Ni 6.563148128102093 5.152704617141608 6.839517112794245 -0.9462670077074476 0.2712912356146618 0.1343645656572202
Ni 5.5932893868937175 0.8558397562955182 7.593425927965193 0.4497702750925931 -0.3331424645935037 -0.7766371910900302
Ni 6.3787316293303284 2.8158913542316193 11.766622713157002 -0.7420275714359608 0.821347132402895 2.054873983239119
Ni 0.5910629286725819 7.509509750933662 6.646411096282898 0.4953613334588308 -0.07495125669590963 0.14403165643333904
Ni 1.1690322399317454 6.170864012805048 9.971575350964057 0.8445580233017197 0.18105657039712042 -0.08393314847954578
Ni 1.7661111301182637 5.1439184980931145 6.893405002954178 -0.6718112583218753 0.5064684991155858 0.35016908105848726
Ni 5.509016245025453 6.180744946687856 0.34634789287911477 -0.9371496187872118 -0.28984714423997826 0.27365485075083196
Ni 8.26798642799736 2.327741939997094 12.999534178627384 1.7805038515888176 -1.349413669404231 -0.3776590589486399
Ni 7.441162024848581 0.5201658480447398 2.742264596617717 -1.4703223666668612 -0.04885224561601264 -0.05664500218755406
Ni 6.568060994669523 0.4419077476779458 5.161469575903386 1.3120462844993661 -1.4345642352306456 0.014945822676554903
Ni 2.415685931603943 7.337246616835258 8.25352291202235 -0.8083013549625305 0.949150757013146 0.48462003578192664
Ni 3.421213556111802 -0.03605528853512328 6.840714969024731 -0.7623290019974742 0.0007330215112826086 -0.6993997094631051
Ni 1.9489268071995176 0.8597847697489147 9.436463900412221 0.23002682964823612 -0.13272394473000368 -0.29980888343838047
Ni 5.311130763754218 4.376747703227505 9.288426534563545 0.657264727966268 0.9613205596064605 -0.5212104333114507
Ni 1.781972145028841 9.433255816943939 4.934430739615541 -1.1805556979558314 0.17633911031679309 0.9741123120544902
Ni 8.900577799364175 5.554474060961162 3.287381182735244 0.33718038210830314 -0.7945729496328444 -0.6832169290556556
Ni 4.123946677872027 3.180188690318702 10.887714564293745 0.7317693840430622 0.1218918871115062 0.8798893516131621
Ni 7.7423281055317315 3.931526070647709 8.619981357391623 -1.2278292862308142 -1.8811908224879343 -0.035002998437746166
P 4.592794230573843 6.819187597337225 10.195140220181003 -0.34380945738904656 -0.5136341636260896 -0.1594690740343318
P 4.464222488476791 1.0452629629062251 10.799341846877827 -0.3467261168152093 -1.1836816451793226 -0.20301353428418586
P 7.74510654317848 1.1483779600742938 11.022637152442288 0.8078773800512344 -0.21454467485223697 0.9548136117258781
P 4.155457104826046 9.073530942811937 1.4068425821693027 -0.2333173274740498 0.2676716365842035 -0.35236043228285124
P 0.4704051338064337 8.437130719836667 8.658007312628513 0.31339330699103446 -0.509423982199484 1.3209569567254347
P 2.7723103637261644 7.011921008799919 6.011696336144993 -0.6711587123395408 0.4385021583779416 0.07530684026311546
P 3.1963533093429968 4.616631753563 9.368262456309205 -2.0370613805377302 0.1827298443344853 -0.29087687105607324
P 7.126858166153656 7.288357154402075 13.185867063365432 1.140003744675398 1.0879291354673457 -0.541275322382126
