# total energy = -340865.11784502683 ev
CRYSTAL
PRIMVEC
9.34003522751123 0.00000000000000 0.00000000000000
0.00000000000000 9.34003522751123 0.00000000000000
0.00000000000000 0.00000000000000 13.67008566069246
PRIMCOORD
 96 1
Ni 5.486682379825794 6.116079345848228 5.669996452763193 -1.5959652361803676 0.33040552527831485 -0.592135856677419
Ni 0.5102293222619608 1.810808704714047 2.179968934187888 0.6393112288116409 1.443746930171178 -0.6430231304455893
Ni 6.494939202093024 8.63264914607852 0.3728626195094752 0.777372526594158 -0.6362870972733364 0.19850767599403232
Ni 0.974557974516047 0.01938057347109311 0.8608094192991532 0.7717438675534709 0.0658868325007962 -0.4757769835689999
Ni 3.7255346433747847 3.882540638579158 10.600973811930205 0.9562171769416241 2.03316101704206 1.7046545085586708
Ni 4.416510462840552 8.689203060472481 4.680719516448064 -1.489988477637221 -0.3038941092513476 -1.8661897210934117
Ni 6.254536030732799 2.842686476527491 9.529212220918563 0.6815909634164584 1.9060328212322788 -2.347127680038061
Ni 4.475913088033878 2.161527034275274 4.939603815869615 -0.6595023590475352 -0.3436891297610984 0.9612351989815059
Ni 3.598790362891539 7.968432528055973 6.716345675437414 -1.0050719936607981 -0.3756559124756821 0.38529369267576224
Ni 5.576963162077162 0.2066753694992777 6.477884297438462 -0.46221184329005555 -0.5000250574830872 2.951959901236226
Ni 4.8201400929867155 4.703473710708439 8.327037583515509 -0.6316169454911766 -1.0204266217399973 -0.7131674526711589
Ni 3.280463276124409 6.4504432734104755 9.148226572614963 -0.628026399926441 -0.0432050746325643 0.10399752332958863
Ni 4.8277428818086285 4.301768127856273 4.015136451245362 -0.853887785343078 2.04574219614118 0.71762034623619
Ni 6.683561217152651 3.068584572899471 11.616373893277286 0.08446768082677711 -0.6851622257074845 1.8243905256694388
Ni 5.555088799152197 0.20058566641342096 2.505316925571028 -0.0997891416751959 -0.29090026809484093 0.001837567429371029
Ni 1.4778644625337791 9.082334490820328 6.234201839646574 -1.0950647180708624 0.5898889696247711 1.01673323204881
Ni 1.924598356086735 1.232062750707872 10.425285877903239 -1.8231903347137504 0.815288584913641 -0.2697226055759613
Ni 0.18668582571959894 2.2064059044095403 5.535578399188936 0.7294232524083889 1.5899645385122423 0.889482651728552
Ni 4.42272158638671 9.257702995636349 8.699874984929384 -0.6132579833680147 -1.8409126916941778 0.3000256274348768
Ni 6.396215027833046 8.61409049572331 9.76467918356579 0.8456527990277953 -2.378766132878948 -0.5280927622535807
Ni 2.7698155202761807 6.198607898711159 4.021670740016628 1.6367987252569616 0.3340333518388892 1.8274925616335302
Ni 5.498497524616605 0.07047430316567997 11.733075767690112 -0.7290782103641444 0.2573057199688472 1.5318866605329036
Ni 2.1370094413299157 3.6464805836835397 3.145582890797468 2.252894435184088 -1.0280378584283523 2.5094828173709365
Ni 0.9056219751820243 7.303748908263038 5.105612671203525 -0.7611612069416182 -0.5830328659348862 -0.9539690043373957
P 3.8332532717324312 3.414707605040082 1.738137625220463 0.5054146039297748 -0.932504920926349 -1.1660899002394887
P 0.7257151471613745 1.3134704993218709 12.347231663934172 -0.3894424247368132 -0.30626543769700154 0.5040280079948932
P 3.368670570515254 9.055500569093844 10.665496644534063 0.5775134787785539 -1.5727211780507624 0.7456852227932061
P 7.213953807852874 7.761448003384699 6.769973356738125 -0.44569713346448403 -0.3354016929413256 0.2945604905552475
P 7.0094724126708785 4.40045494197462 3.6186491461755095 -0.2739800953007346 -0.42069726898603677 -0.08184644115384614
P 7.0398462078168995 1.1273983139285613 10.486582662277257 0.547787669579347 -0.6192118869586045 1.064281671251735
P 7.9983486614670145 0.9807597580267967 1.434429561873552 -1.0425681908340432 -0.33714592932594195 -0.5819450321873462
P 8.757553439586438 7.530917249450473 3.2850174773892307 -1.6767480119563898 0.01190086520264402 1.2454971358242226
Ni 7.347703114891936 0.8129099817140187 8.160671938829024 -1.1811902462160366 -1.722752760821278 0.3282594254695895
Ni 8.748166704001644 2.6154807751984253 13.698246303584597 0.8013205527693231 0.04617032790847533 -1.8230859479254022
Ni 0.7405499253995129 0.4903658689602867 4.0946967408557065 0.5044249863229958 -1.9775393139126978 -0.8032542794569263
Ni 1.6869878553134297 3.4608940801314336 6.975462541740617 0.5715143237723254 -0.9333413007847151 -1.256874524423229
Ni 0.40334756107684905 4.945287227415235 8.064038064493301 -0.08643226075231566 2.0245953868602355 -0.3066133079547236
Ni 8.248456129615898 6.9786969960023235 8.640137052464919 0.5110185803801135 0.25597645963446236 0.41358662608318447
Ni 2.9751748787865058 1.0057069926009121 7.196507555714728 0.6683850062491458 1.759792587183395 -0.21724973248822585
Ni 1.6796932876599724 8.390434007849192 9.39047440096822 1.667671246466102 -0.8638284414955575 -1.463849357348008
Ni 8.896122204895901 7.604684849100927 0.3723591916009971 -1.633606700682225 -1.4502214821519281 1.2588915548532578
Ni 7.585640516904513 3.3398285411761046 1.8010885298651957 -0.21668717511653646 0.5969744157166428 -0.17665175646120543
Ni 8.987729272175171 2.1500107706175116 10.112363869626577 -0.5770373104730837 -1.6994241133976669 1.9947484787021321
Ni 0.869678716922358 8.212048671596465 12.378563746713029 0.5958354170161932 1.4590779041012936 -1.078885794318155
Ni 7.779801172960939 5.831852728354814 5.109495323922528 -0.883304290831982 1.3923788601118472 -0.05172005408211093
Ni 1.2142046030082432 6.868082956668273 2.477593832473728 -0.11317456184316638 0.3896195737446258 -1.5960164011332771
Ni 4.300852804386313 1.6428561880117838 10.405641915433646 0.9006630938254037 0.6468077942990023 0.2280115989904202
Ni 6.281304572211427 4.238452027827097 13.639833722144493 0.6105539541732905 0.8188657607419381 -0.6563758976034114
Ni 8.18169355652126 0.3068351072014277 5.852723971476985 0.27875900474661663 -0.7344268762705674 0.1751008670343178
Ni 8.401978291613178 2.645172747759681 7.984081757381667 1.1481865375965064 2.946570097679222 -1.3138565982352277
Ni 2.7414124726011955 5.165329121586551 12.495702734782938 -0.3374629463457285 -0.8191310985881828 -1.0867572266464316
Ni 2.5312149757496534 5.769162410697959 6.349618525187294 0.05572840391055564 -0.32102228429120194 0.06854201073545614
Ni 0.3683299003260913 5.094363532558423 4.239258072882786 1.4363881758132615 -1.0485508907800394 -0.3704298881900524
Ni 4.445137671365323 5.957728385545138 13.724356372566978 1.3891498116515881 0.21986428729293747 -0.9953323977755311
Ni 7.999217284759936 5.781239076480187 1.9221372567567914 1.867865309023622 0.12927558117008703 0.4564715983721687
Ni 3.3682689489927204 8.089582127329972 12.9069669098714 -0.30585406119119585 -1.6288054226388402 -1.087075786328115
P 1.7336413321751694 4.605786280378721 9.699869611874913 0.31997713085613927 0.01392612316278892 1.1419220447440332
P 6.378665101301873 1.0109374124292554 4.820209209248733 0.41049616008331885 0.8813682501515337 -3.7912451061747805
P 1.256188062166105 7.074787280277314 7.418823748507833 -0.5687136210987367 1.427261273811329 1.0044965807733022
P 4.039938915270657 4.285030784405575 6.108108559631249 0.7741833302328989 -0.3956362122523509 0.1957303703592113
P 5.2013162780126345 6.897924369796052 3.2424894941670965 -0.07595578670102403 1.0522864465630717 2.4100500305938946
P 4.981461184549472 1.8954574456145372 8.228680472647056 -0.946445442266841 -0.01887292564510298 -1.4429884547385987
P 2.516775281009263 8.54646863937116 3.2653053326611623 -0.47296831047561116 0.4273345717968963 0.9693071773563627
P 0.43145266162232676 4.001981011373538 2.2812504101425093 -3.258930078309736 1.013961582840944 -2.005043175759921
Ni 8.67568802923746 4.353726744829618 10.01275052399578 0.029921727260096856 0.9094642370568015 -0.6122565386866939
Ni 3.7951179071625645 7.661079982892956 1.748171625259015 0.38285654398917934 1.5116551639773772 -0.35255326501994766
Ni 2.8926276458527607 0.9697478562810528 12.59971803910141 0.8578472842114581 0.2563482411515843 0.5699588063597474
Ni 6.5131989713151865 5.454412557491999 9.990140166280685 -0.17254621893326413 0.4199431644288316 0.13758795769052434
Ni 3.1267449733835657 5.423310239584171 1.9824766875015156 0.91689523941355 -1.2709801105866756 -0.6212086056736592
Ni 4.25079955463615 3.20417386691386 12.959378518562021 0.5082639004531118 -0.033535412753284186 -0.0396536098358801
Ni 7.075132861587401 2.6582581373659466 6.025103664962525 -0.6202346717961641 0.6594352532550255 0.05585155975198123
Ni 2.1092228359918423 2.868978676200323 0.04758748040251537 -0.9733494657465366 0.20057895670076423 1.5723154579719114
Ni 6.7052394393340515 8.164788092433222 4.523458538277059 0.8774380618591922 -1.0199887628716304 -0.6835493726944099
Ni 8.138411832441719 4.777867092731213 12.12445033737776 0.16820619679701354 1.4150485337952212 1.4437623567901459
Ni 2.888060368538368 2.8675589908183445 8.86715595308583 -0.08483740546137002 -0.5670678579651977 -1.4406112127556738
Ni 5.733801036644195 5.385165534978897 1.9319797860694845 -0.7904702403183806 -1.0852011950132214 0.6864374928754824
Ni 0.6825305594500751 4.952394994360536 13.947588822833586 -0.3954071269606803 0.16048363134177523 0.11961517526218755
Ni 1.0836028879015949 6.267117058427046 11.237015279141715 -0.991595299330602 -0.8866904336953955 -1.2741551658805477
Ni 8.986683188209502 8.881570429730619 9.968527324347138 -1.9110253893508637 0.4287209106214616 1.2371454214254178
Ni 2.891460141426791 1.4047880255034986 2.4548331001885675 0.7735950618295968 -0.6350416549020096 0.20441478550708664
Ni 7.03169235690593 5.363328532195565 7.492259776901312 0.6701045600434137 -1.1289230613812042 -0.10910039177379276
Ni 8.035223121256834 0.2791456382315951 12.627331853784439 0.8761134295104975 0.7234091850038251 -0.8322624937638182
Ni 8.14027983952327 2.047606622406878 3.6167633930266834 -1.971276620832437 -0.7697877722683646 1.6191730417553984
Ni 1.1759104578364448 3.3758997579208567 11.571249380211796 0.11901250868118214 1.148567317974693 0.010999436434297186
Ni 5.52086690941818 2.563867739535167 2.7696548716671674 0.5695911386076835 -0.7943037551318579 -1.0410211580618975
Ni 6.1295103167645815 1.972662178295046 0.14850095896207124 0.2887950488263801 -1.9094439037963566 0.7397760563976227
Ni 5.9380489309409965 6.92939094908478 11.933930427123277 1.877848645488579 1.258026121529169 0.5171362632420771
Ni 5.34561982506246 6.9820033685366685 7.910208615331105 0.8437406696067469 1.2008779544529513 0.7570649253850574
P 8.166048997213268 6.917603824400193 11.117484308003881 0.38579660045410974 0.0779386214590077 -1.058114108988442
P 0.9492558185964367 1.7217608071365043 8.412898661011926 1.3833638010974303 -0.8899657620125576 -0.8340550668878669
P 4.5846964804280095 0.15821646379321871 0.27311477736880724 -0.3050613900865714 1.239911414206329 0.9887511450135874
P 2.245456592449367 6.516066362185367 0.42423188024859076 -0.9472103454573235 1.6994135718747054 -1.1945180736731944
P 8.686176889000368 4.319299374316631 6.346883762819902 0.17392587288961014 -1.503147126506366 -1.0333448724635623
P 6.7616625932323045 6.4119529874951136 0.1811733368219415 0.8985840998091879 -0.14547121709334304 0.8853727433252364
P 4.452273458416849 5.973718526163216 10.956232332703141 -1.4293464384751318 -1.5472379461779935 -0.7664180844651833
P 2.2882059345106653 1.901164207248676 4.6899605474804975 -0.5938381840805064 0.11899528229000152 0.6660810407063175
