# total energy = -381170.29751235293 ev
CRYSTAL
PRIMVEC
9.26506089766610 0.00000000000000 0.00000000000000
0.00000000000000 9.26506089766610 0.00000000000000
0.00000000000000 0.00000000000000 13.56035315043869
PRIMCOORD
 96 1
Ni 8.929258178941197 2.0707967354210313 4.170337396248853 0.970027343351839 0.20735946995770738 0.019151890338102502
Ni 6.8483069366075044 8.476039187475239 5.87890174575603 0.4859405543655631 -0.9825031072213466 1.2353507914188402
Ni 6.729593709352085 4.444431256377895 0.6073099278411852 -1.2643903731842998 0.9430055633473565 0.688312341300692
Ni 4.9073415017039315 5.677332930527477 12.640541448273732 0.010497299986898051 1.1006830926989044 -0.7779949906695053
Ni 3.7577697866533284 2.872270841698251 5.7008810096964755 -1.5950702351699237 0.266730869937489 1.9409270620063028
Ni 8.217414273278113 6.23685923250063 9.244431466761263 -1.1474709995867205 -0.5214891408941342 -0.026422455857586753
Ni 0.7084445547632156 8.173043895901527 10.149761348391396 0.24177291444057072 0.11262383154601893 -0.38606348096225124
Ni 0.6153464417974288 8.879467740849366 5.856066149781907 -0.5622364980148252 0.12494095835047514 -2.3750025520714577
Ni 4.379816720603346 2.6090133969752762 3.6133052487108177 1.1808495750471664 0.7173354680059194 -1.5221753467824106
Ni 4.138841747709708 8.879189789017817 1.0876329289077842 1.355518239640072 0.901961243811537 0.2901831874231583
Ni 6.9019887003410485 3.1823817001596675 2.995237658482505 -0.497553198903827 0.9471424683338656 0.44850734921976954
Ni 0.09253294424163316 5.766370167234305 11.372783687941553 -0.600817700722133 0.5096165578262642 -0.9526335733554239
Ni 3.4612507727547546 8.896635898978165 3.3521333692305806 0.3947903193122878 -0.1697930816681592 0.4606907786598388
Ni 1.0663714668063453 6.722672708746466 3.400367277065725 -0.5377768223105641 -0.1782370986704543 1.4664541419607067
Ni 2.955841692384576 8.063410428476773 7.7583935005815805 -1.0451071552058129 -0.6509475274989885 0.16796888397522686
Ni 2.8283822474963527 9.754626877670749 5.669556764786787 -0.2322487770002194 -0.13096505305736802 -0.17147792556974983
Ni 1.0910072641428128 0.6278681718088 11.841632837401727 0.7756948817814189 -2.089859498175368 0.6421155310296555
Ni 6.156725719464486 1.9614041595836214 7.483796547637431 -0.8322018157292119 -0.6648538531674356 -0.15723889915223244
Ni 8.156996810159985 8.140440146060598 3.7986889287881573 0.005793466753325506 0.5668356873497334 0.22067315634747803
Ni 8.145276507929585 8.256290469451043 11.643340147761055 -0.14037271952451308 1.086568250564077 -0.12122622850304929
Ni 5.871417429438467 7.913844547919197 12.706919125166419 -0.06092048963445637 0.695584449482073 0.40705165317814407
Ni 2.3586899774804735 6.575941936870709 11.06465184652078 1.1770566836636374 0.0960741547174539 -2.09400488780231
Ni 9.1212302439324 7.861033699924512 1.5487142511822147 1.1340845509774857 -0.7975101778842975 0.10492594868112896
Ni 3.1855410859782967 8.04071102890011 12.686930682453484 -0.4703982357555898 -0.9676889250266496 1.3566464397072442
P 1.4790094908658624 6.70998884016669 5.798298494124564 0.08107536731577651 0.25226198689735263 -0.3823631492925286
Ni 2.13355825898524 2.0375073710622766 3.884417612193423 -0.41857842287082103 0.43537415427192117 0.16669387391754517
P 7.210524498423675 7.516669910754965 7.890905183261296 -0.6150765246339923 -0.4833445115036127 -1.4217781392095707
Ni 7.329358171472767 5.179826947234398 7.021985138552127 -1.2087252184115118 1.215181772670133 1.6711980286724382
P 4.725171871305426 6.614855193287845 10.35795375576581 -1.3629361293706979 -0.6530594316356689 0.7717657219303418
P 7.923443151168756 3.177962266038007 7.844610452704271 -0.2719797770412542 0.16861088843459995 1.348400140538052
P 2.5258965342804847 9.347242143227545 9.567222487778034 0.5131734219395871 -0.1385832317242581 1.3650624316850812
Ni 2.160973574637217 3.048047579971084 7.757145496857917 0.1928795311739775 -0.15880187276397814 0.21744205100469002
Ni 1.2253135891482412 -0.05170089368069062 3.158450047463129 -1.2571398622694736 0.2616110322124204 -0.03770291386741249
Ni 7.995590181578336 3.4896111246340054 10.160284604733917 -2.6707076977541098 2.5379940374367513 -1.7131525187273526
Ni 8.498636671380332 6.676097246839575 5.856771220927942 0.6372342916779541 0.31322901349902826 -1.4619089457921854
Ni 1.0283198610670177 3.9288120787287433 10.4258916689396 1.9962746855386715 -0.10945289001720504 -0.6601150529308696
Ni 5.417624004187303 4.1750588713607995 7.502970591483923 -1.9701273377193422 -0.7303059121236585 0.6433658584969887
Ni 5.4640975504226255 1.3200673685239666 9.681536664046106 1.768873980659373 -0.39372871081699284 0.8454846488810471
Ni 3.490639546410744 6.050112661942586 3.611921975095799 0.3860953626414512 -0.42169280013008664 0.28391663768815617
Ni 0.9351874673753394 7.183767002106369 12.841180051372694 0.23749434166987488 2.238070225687062 1.5771403901643806
Ni 5.811305713335045 3.341082930914219 11.965465937394315 0.8354228937696708 0.056704651780895884 -0.16425184013495583
Ni 7.848701903664701 0.20766429889446533 8.431977336631673 -0.39845388420680405 0.20653183185008947 1.1221479474408997
Ni 5.191176647022729 6.450094612605482 8.193327894062012 0.259926702531462 0.27199700343243477 -0.537606615281287
Ni 3.7140109033061544 1.2352642647177658 7.97445101828278 -0.47777087407057717 2.0669890213350985 0.40897535256341827
Ni 6.779884460740707 6.230197653604459 11.149240927416686 0.16722814915446038 -0.7982707101994058 0.9677105222932044
Ni 1.11934908589996 4.982471881772158 7.285326895330672 0.18877759319046197 1.9625040168461296 0.2554987486670955
Ni 7.411872805199199 6.133044223416344 2.5043126480544466 0.34458695898501945 -0.6337057096994053 -0.0018887323822806181
Ni 5.565966896686056 0.6901553242471619 2.8563933065739544 -0.7732937285390941 -3.1577589686853487 3.2114325469494043
Ni 5.718479066658073 4.516448575932751 9.896495345506574 -0.4361958788422681 0.2842364829214202 -0.5812616329670763
Ni 5.867970826727236 5.526896134231041 4.2933301552040515 -0.1570388673262844 -2.345236633662935 0.898722168048949
Ni 9.127419304714936 3.917694005466705 2.4204962732502517 -0.21957118153255087 1.449953316092206 -0.04870852094929676
Ni 9.645206506650183 7.761128546604042 7.725645215788246 -0.12881046860821044 -1.4492951136829169 1.4757620496251938
Ni 2.551551488332639 4.372552912738815 1.7575709634340335 -0.02378527534505581 0.11991625144237412 0.6578679087679057
Ni 7.875885592790386 1.1141421215889051 2.197793853762774 0.5400388788718634 -0.7628020849791509 0.7954625513266493
Ni 1.4484162592731524 0.7389988730995084 7.835362068762465 -1.3230768312819148 -0.7492415726858968 -0.36246332504480805
Ni 5.951560207535664 3.2472927178878708 5.382307444470437 1.6913269382118292 0.5604009874679833 -0.4699927727870551
P 1.0355373436262911 5.877152502229469 1.3227746193632732 -1.411133515011531 0.2626225041960703 0.42270067256931076
Ni 4.51120455137749 7.668959719261742 5.989838807270758 -0.7712342749069041 -2.4871733552404587 -1.4012653639681996
P 1.1066188920149256 1.9336460366727313 6.021624452220822 0.22246367258899755 0.9609212672855129 -1.1134663605065016
Ni 1.9177471919080158 2.7576527714276833 13.060043956066453 0.47806115161748636 -0.09294666483206573 -0.282318697073417
P 1.011837317456045 6.102738208716236 9.223589711925465 2.178274850795984 -0.6906183637260493 0.45470010829404267
P 4.187214631460628 5.109866471233019 5.9538357065299605 0.5759062821924339 -0.016908088609248303 -0.6579602113713959
P 4.203863946170531 2.991836454570426 9.61330041590645 -0.8081180353071308 0.5935589622771906 -1.1129703947066898
Ni 5.734794839170115 1.952426315424525 1.3591409104972967 -0.7069762362587825 3.278529083487586 -2.805004386287872
Ni 4.395863806344889 9.11490220723409 11.268870469210118 0.06165119715289382 0.8506134854671801 -1.5410459584346685
Ni 6.352181447411128 1.2673399060787476 12.910391910441096 0.9499244019543769 -1.97873256288985 -1.987357328444384
Ni 2.3847433291578506 5.281594377826259 12.873969102434657 -0.11858184890166676 0.12206775056773815 1.9848566735097173
Ni 7.922664886040414 6.576043852542278 13.282338712867656 -0.6637243675486828 0.08724395802033362 1.5390852351638717
Ni 1.087004757768479 4.300368822085027 4.413407199446281 1.2775179117051936 0.5571667968014018 -0.42250732561158205
Ni 5.109319832630968 8.897571670144387 7.79206365894956 3.264903008063719 -0.89432558164315 0.8421962079377625
Ni 6.8634645764880835 8.260728433694807 1.6974036569643005 -0.16409551706274964 1.2627561800149867 -0.8304035861782086
Ni 0.1336837129027542 1.8891737436245761 9.323719079723386 0.39945635732938944 -0.2620802585393551 -0.3045340568281917
Ni 8.819596916333289 0.3801519404939452 13.656360888969797 -0.5969962700935139 -0.030956853392830556 -0.6045943941557459
Ni 3.4484279282592034 4.0430873417403985 11.384635554038887 0.5761201979754529 -0.15426464701525688 -0.5825273870533774
Ni 5.159971921400607 6.8704133722768574 1.2814524470726956 -0.5102423643357213 -2.2046415137149706 0.21478584432876557
Ni 2.6543473407012397 1.9330345426433189 10.843401262100102 0.27308535140060713 -0.4950016361265669 -0.8642950967193309
Ni 8.240039552366362 1.4296637757045136 6.515152944804407 1.3773214515580923 0.3426023244548228 0.014949679331296832
Ni 8.9750831709029 2.3337854933735063 11.641237905408426 1.0818081101712722 0.5901375953004675 3.7554576641625257
Ni 2.539432788477017 7.212414570878222 1.5990642989615673 1.0891383252840985 0.7112697214278138 -0.21893611905171326
Ni 8.80220639673925 3.9403100194939022 6.004212622986365 0.3985942664394103 -2.524498574053478 -0.07012735294470504
Ni 5.470861044990365 7.562707999120858 3.7549430165264557 0.7062200748190482 2.299029024758621 -1.167212958100338
Ni 3.227326511321459 5.062040226084148 9.192061635672639 -0.3620090111162088 0.18670425560120102 -0.6164924311449125
Ni 4.190689029355015 3.771630317986671 0.046026970292630164 -0.020798939023222246 -0.8134127080471668 1.9745612051209802
Ni 6.916062328078579 1.0745247205318402 4.689888665808346 -1.4975994572152596 0.7250284657748031 -1.1580081516726186
Ni 4.080601573938728 1.413218292337748 13.21577110222341 -0.951938089950296 -0.08980889053403243 -1.5192306623317902
Ni 7.948866478694619 2.5675151885247165 0.38862205930740834 0.7169490312007782 0.42118500725573266 -0.1652705112074573
Ni 1.84158839006305 0.09599807707496859 0.7585963302360621 0.15983879866892473 0.2663678301711155 -0.6983694684263778
Ni 0.2831393392338155 4.478952873856525 13.574862632440738 -0.7903722812879357 -1.212670833322821 -0.36516041226099694
P 8.088500213804775 4.966109783954858 4.309358710823491 -0.48759480213953443 0.2500796345340532 -1.2519552327447405
Ni 6.257001475227024 8.055776018170173 9.898203822764508 0.27986175089249216 1.5288010796290443 -0.25350280128298924
P 4.904497127961059 0.4462729751955001 5.71410225181725 1.5361667759654964 1.3040992617381475 -0.5162266069436141
Ni 0.7639394909445769 2.114444438035585 1.4406252694347788 0.3615680669240483 -0.7867411122932515 0.6044717525349526
P 4.915476225307322 4.668886625416355 2.154956843990244 -0.16767115022914997 -0.055824048948155465 0.41184650346362617
P 7.802033791147293 4.629148778565617 12.245161453435214 -1.2899108860529076 -1.882359388874739 -0.23041815154938383
P 7.687378660632519 1.0372050546155969 10.74241672916711 -1.444618277032538 -1.5982450333534797 -1.001892567491552
Ni 3.1633883250036847 2.0899846768590997 1.6971053219984356 -0.07381765731209868 -0.8684754533492656 -0.18213206284948633
