# total energy = -381165.0835286141 ev
CRYSTAL
PRIMVEC
9.20876378330921 0.00000000000000 0.00000000000000
0.00000000000000 9.20876378330921 0.00000000000000
0.00000000000000 0.00000000000000 13.47795663298566
PRIMCOORD
 96 1
Ni 4.554691250300256 2.2864807185183533 10.381665262449351 -0.10693038070566745 -2.1661068479748824 -1.5031239865779145
Ni 5.187342509867259 0.23867273177184584 0.5257982934491915 1.2420878530323578 -0.4482939476573828 -0.9370346904759024
Ni 1.9022358537173643 4.935427576216877 7.893554063241497 0.3980823597999983 -1.4999111360675716 -1.2749817755469008
Ni 6.928848605873927 0.1854635755309745 6.86054904892488 0.4048721290283221 1.1890318537476425 -0.8482239021890811
Ni 3.5029215386485237 4.838201451436912 5.804564486230167 -1.333708085743516 -0.19729771484633116 1.0759231121454051
Ni 7.083445327109584 6.177284583540899 8.26612497858392 -0.06943238376020945 1.5138693980198765 1.7331366751587634
Ni 2.845397408932753 9.240349534756666 1.145638321268336 -1.0521118686584203 -1.251140193042613 -1.428952802581139
Ni 8.56184784184249 6.800598156943205 1.472614806888218 -1.307847158816354 -0.9820899309433279 0.33925963323483505
Ni 7.1661768581782725 1.6989984438012968 3.0618816251090952 -1.9264962312929532 2.2452176353651208 -1.5022840071751224
Ni 2.4613275106378087 3.7761087159285442 10.711955982044259 -0.42153853394040947 -1.932326464821485 -0.704577911229935
Ni 3.815687981348538 8.067613506083752 10.173390658911893 0.8387409023993102 -0.4777397637223256 -0.8144432061942102
Ni 9.147856714403382 1.5893957409095418 6.141999364529781 -0.0724256620605785 -0.4232773710083872 -0.9036764267304308
Ni 2.028828725222402 6.067295112583151 3.161241420386458 -0.34979678532073305 0.3761228248097716 1.9678354563613725
Ni 1.569882371103826 2.0583612296900426 1.642289036563185 0.00964960727462209 1.268574072248344 0.17084234886827995
Ni 2.624589678304413 4.1165290753470885 13.371345577524604 0.07852071921472284 0.10242889329088811 -0.5680698168671507
Ni 1.4664863747949177 2.9799098170271803 4.355630935496918 0.2113004568833264 -0.18709763438487778 0.16584412432274018
Ni 1.0522669848794381 7.5939331304035225 13.498577537214878 0.7896629139257368 -0.14314488295301153 -0.877747622679811
Ni 4.300142610295728 4.019321368094075 7.946077166603405 -1.1670910878104932 1.6632306941962451 1.8134373690920447
Ni 2.014997162481399 0.4290657583915413 3.3216691306551396 2.569466139903104 0.8133358320626445 2.2517443807400443
Ni 8.060246495302925 2.389296562728272 0.867322783608512 0.25875427948991564 -0.7772336870234484 -0.2554995199980438
Ni 2.5768146133907495 9.087612983743169 7.637930760539317 -0.5384671635093694 -1.1798818118172585 0.8751508084869121
Ni 9.118333418699216 1.2855341724908522 10.175749023238104 -1.5978310857445126 1.320615514225616 -0.18253701159738886
Ni 3.9016794146877425 2.3693872160930867 1.0963576235263408 1.5345950606030023 -0.16010799316991137 0.15392269029480588
Ni 5.672846937850716 5.179846576397767 12.451232636413378 1.2243577827424463 0.4870556418066128 1.1446877804146285
P 3.3865964384192635 5.629344739189933 9.229313752606986 -0.15262762563246618 0.9318778288653111 0.7532892603927092
Ni 6.723539224175753 6.015873377332978 3.664710304158963 1.257832003240492 0.6631034461352322 1.6925865216505431
P 7.450902616093764 4.775112212862603 5.568403905134583 -0.8817402887789717 1.1764948976228964 -0.06587269143340913
Ni 6.880382883699562 2.683544182077982 5.4688829564963894 2.2255252991425154 -2.6823717643555995 1.0344424764031153
P 7.9224373498840786 9.039589282215651 0.9799699037054439 -0.5326122473904892 -0.4445601916465634 -0.12594368858337662
P 4.165501279512636 5.690196248239564 4.0906266654417 -0.21964162975917012 1.806577665857734 -2.5490520950231264
P 0.5471276314123812 5.915737283294585 12.344823532695113 0.6074403482449733 -0.5316869073627424 0.26075048398433803
Ni -0.048174725248523585 3.7678208288001143 6.139990933215658 0.9808830551194204 1.1255340903043132 1.6320599250203958
Ni 8.578128935668117 7.62272893379308 4.163327090455945 1.7292501956201638 0.730711117981877 -1.831785275471613
Ni 2.60256231606974 1.0373211617578353 5.687670284418089 -0.6829495343268819 -0.08638392401288349 -1.0028808995467504
Ni 0.09720678637666592 3.4982434868026986 10.469716696178144 -0.7388134353740373 0.9913708420246217 1.1480237867663972
Ni 8.944960028735927 5.036549007947205 4.058373892243239 0.5047965107298015 -0.5314591076226525 -1.9403251667562453
Ni 0.7883493489143932 2.8555546750468186 12.904981564426082 -2.2520040621593345 1.5415555510812355 -1.263918061533572
Ni 7.013292966949158 2.8698835110155274 12.151954269576713 -0.23992840503266422 0.8008950351961304 -0.36214347981154404
Ni 1.3974206487246636 7.002398999757011 8.74883823035779 0.0486666119677678 0.928506084179601 -0.24865292938985561
Ni 3.65854043263002 1.880365040461784 8.254021900747368 -1.0510289200068867 -0.9920470421560398 0.47693320866063027
Ni 2.168847973875497 7.02554983113576 6.599359969577783 1.2631217908845214 -0.09122402571400419 -0.8791025940458085
Ni -0.24022072491216714 6.288305436007964 6.824280333974521 2.172674731000387 -1.541126691073933 0.8083010978522144
Ni 7.78693039533424 7.194779277534835 12.588329944415529 2.6404782094456074 0.566366718133115 -0.13965461041156596
Ni 4.673935528551419 7.511671246272112 5.20088675918781 0.21032060946856038 -0.7399002406803128 0.10009921671644696
Ni 0.48906914032503035 0.6671187403814501 0.05187941079493201 0.38665560602029536 -0.5568819185711312 0.5745801071818427
Ni 6.751294437292518 1.3465422305195764 10.251818934808231 -0.6760016422541391 0.13862745469863222 -1.270225234698522
Ni 5.396630077387081 8.6394224653646 8.57906915041902 2.5734438936039292 1.8356676412451547 1.7761802845127992
Ni 0.7035559757034209 4.673732935754946 1.279690291188961 -0.23464993024254424 -0.0906781805128632 0.15969661666410562
Ni 5.547930061298318 0.6457304663320137 4.683697738712363 -1.8645169613766792 0.06001057622567729 -1.0904117926798833
Ni 4.927692214897007 4.503260306286607 10.24762710567394 1.769076583588482 0.2562104300221394 -1.3383936641446434
Ni 1.9332417603411705 7.033819300737238 10.925258570439631 1.3815776557312853 0.33332141337352916 1.822399720491655
Ni 7.409159291256903 4.336682983768631 1.9404347254923004 1.9834135133052873 1.3781331488261104 0.49773754700049117
Ni 0.5504391027583628 8.759827047813742 5.989550126936735 0.29225421101957405 -1.9609359010280614 -0.07661501755157772
Ni 5.588531499464151 3.2365120112868637 2.6928017520004386 -2.0109723967601627 -1.6225566135156508 -0.01573797956054709
Ni 3.023439641978392 8.843286071197038 12.175284671843244 0.05251735317242568 -0.28263005766624877 0.5085760323768919
Ni 7.551775411210239 0.6770236863762721 12.374610199034693 -0.3424128341518361 -1.5682649420516217 0.625854846196419
P 7.565174162067868 0.4515839477194869 4.550899081500826 2.7817685556883833 -1.814543714782346 2.829310824243721
Ni 1.0941392324049641 2.635640194475654 8.550280714040245 2.917605592126072 0.17296556585886985 -0.9338177262005015
P 5.86077017410614 1.9550665297793706 8.07941453647829 0.4910614205318963 -1.289333930503515 0.2590643545311667
Ni 5.5312253643527916 4.1552611345272865 4.723700607252254 -1.6645244733070041 0.7098910959127323 -1.0001362469220776
P 5.672018149137873 4.0115491717203025 0.7049713626496872 -0.12376776397798041 -1.6655007211773445 -1.039438644066126
P 0.0018389900661639638 3.1176176660477903 2.767576911425834 -0.763954196305723 -0.16038772919385927 -0.46237639389237783
P 4.114945168029211 7.195331803343396 12.989865183519118 0.3484788378402579 -0.8030789302213266 1.0287621381888863
Ni 8.910942856455458 4.7027497494679285 8.513795593148197 -0.8185765116362935 -0.4973822205436014 1.063874408510987
Ni 9.08707887546156 0.726639583108795 2.865683393994108 -0.18487311592973324 -0.11109299672378932 -0.3211786073634082
Ni 2.640861563366565 1.7634137443161537 12.7501058176571 0.762746549150867 -0.055945405017368166 -0.8908347948810722
Ni 7.262021668436834 4.8762888971737866 10.755584340764663 0.4658818359424751 0.582210627143907 -1.0807603856330483
Ni 7.306140854250512 7.11649557922507 5.827894888496699 -3.574254797995528 0.8838149119198132 0.7880420904928622
Ni 5.750283429920685 5.297755583944905 6.74745530379936 -0.4070771070994409 0.8971797632624935 -0.4725530773150636
Ni 6.797043574241456 8.184620054810239 2.7237063622260087 0.443219875568585 1.7970360449158858 -0.12740613206151608
Ni 5.855162037149235 7.189981511763821 11.61481722565948 -2.0441938778174533 1.5112293892938682 -1.4469916623607209
Ni 3.7249264085287486 2.242702256953289 3.9042541849556414 0.49800082796420686 0.031756466475990466 -0.6165078577638802
Ni 6.568436020948915 3.9104737838073547 8.581320693088912 0.4789273562725236 -0.08827908415306732 0.49805070736553575
Ni 2.464099348444095 1.0555084696230022 10.186922015963578 0.12899070293981654 0.44655948146477925 0.7503103802700433
Ni 7.374064693649737 8.21384867008317 10.203096288132885 0.2564158611647261 0.3697624298093825 -0.0005139635219410503
Ni 4.239512111569521 7.075240318852439 7.759084015459061 -0.6945310685168942 -1.9509865031248335 -0.6366323964278972
Ni 8.222302314954169 2.201493040398037 8.17044500519158 -2.438809362114774 -0.20918803852601392 -0.25607210467206226
Ni 4.598920941275646 3.272306474918208 12.250869281578183 -0.6840756775115251 -0.7096069890134101 2.5479107823298315
Ni 6.1769346505288105 7.059797222503129 0.718315781802808 -0.8986571191389685 0.22289407525819677 -0.7114859512036779
Ni 2.843159679408077 4.0801084157993746 2.2457236522497754 0.6767966273516087 0.15881164295599098 1.1944321988276076
Ni 9.122514197317336 6.583077954875809 10.466765287484076 -3.374316045981924 -0.9159878971079322 -1.3358611275307768
Ni 4.57597270269337 7.572301744998319 2.544732202316595 -1.6919159779460797 1.1004874317483304 0.6320915711347501
Ni 8.17558625784025 4.761299067648553 12.999488341351576 -0.49851787680994136 -0.539146191854265 0.5954644068300197
Ni 0.9961764065469159 8.095746278503036 2.2142527030704295 0.7381315788156644 -1.377528425362576 0.021707052659788423
Ni 2.768006960680165 6.17577434633083 1.0486378111935333 0.8760807765003492 1.0966410614190467 -1.2439686149948381
Ni 3.4979856414253696 5.489657006021975 11.544799313445804 -0.22615757650081694 2.586644194344287 1.835910096273264
Ni 4.673410629033284 2.5489765214026994 6.305607781703084 0.3747210593662385 -0.7236292714344312 -2.281623427687664
Ni 0.5365228193933805 8.93506060799919 11.409130284658787 0.46824570818896133 -2.286354000394114 0.9862108950902371
P 5.171024580987726 0.5767623531546058 11.723557988289878 0.2033071542652047 0.20366479471493956 -0.46924612442901764
Ni 4.523933980290303 0.13715900671743886 6.662962136277707 0.6599294192826247 0.032731685905066206 -0.36308707467173595
P 0.9519006717541451 6.387539071225705 5.1131999924926665 0.7537901112885276 0.6955772503932214 -1.6547982471581757
Ni 8.471555915959978 8.131973554017753 8.038226500079034 0.37107652063511576 1.1517889102357841 1.1096135624193146
P 4.331185351973438 0.625267673011919 2.4698216740681023 0.5262670218987516 0.7229636128259743 2.180928743479063
P 1.05874074560309 0.0885800167523174 8.952422810656905 -1.6071819308317934 -1.079828360737082 -0.021527846769446794
P 2.424971312434427 2.965221839282906 6.514799578082756 -0.7843754402745523 0.8469452925869736 0.7756961673329996
Ni 5.3029677440723395 5.485724864017708 2.1916912325541467 -2.558125518079304 -0.6398462753795046 -1.2919901371794393
