# total energy = -340861.20169830933 ev
CRYSTAL
PRIMVEC
9.30228668634949 0.00000000000000 0.00000000000000
0.00000000000000 9.30228668634949 0.00000000000000
0.00000000000000 0.00000000000000 13.61483685502189
PRIMCOORD
 96 1
Ni 8.156068104996484 3.6770078281155847 11.505681027699927 -1.8954087658595293 -0.6424631441770613 -0.008490811079830539
Ni 4.486650942707003 1.1321161801891089 2.2561551849654653 -0.5784383045856684 -0.5013499469420978 0.9685314755326031
Ni 3.732384339957246 2.835811357541145 8.546740884447214 0.6334989930052379 -1.0790829979306253 1.2002542048260234
Ni 3.7807655323121065 8.559005949265496 4.3649574998103455 -0.7644948993005415 -0.4232262060554776 0.7705583318858019
Ni 4.69622215642795 6.200522821546488 10.035876962029336 1.429584779738183 -0.8360093624007602 -0.8842823384745351
Ni 5.866645152636539 8.244579361534937 3.318779563699518 -0.3473285262858986 -0.46521154934832787 -0.3707476765407873
Ni 5.5444883647816035 5.505855968732818 7.721722950643313 -1.5332681142614626 -0.648571056847012 0.5237933635472786
Ni 2.441561848911327 1.1827857350356623 12.38069224011808 1.1390454945271866 0.1372591135961959 -0.24171737861228693
Ni 4.133889632097311 3.597519789532181 6.096519536985004 2.219743659463732 0.9375232000765467 1.8150530503185964
Ni 4.443692983411725 2.8291881295164076 12.9916171187083 -0.6870514723103974 -0.562120027041619 -0.20354780952110108
Ni 4.498074150592365 7.145179323147797 13.197106489090407 -1.3552148494670402 0.709278659139714 1.757646744484986
Ni 3.1726192467148473 7.637298188586977 8.908391460085612 -0.5999106155268313 -0.16953340024886934 -0.9907429786326357
Ni 1.7122346764064036 2.115572518997133 3.363694724085253 -0.8786333677188739 0.058006401311454944 -1.2156036906989
Ni 8.9709391046299 1.085762886302497 3.351427798809661 -1.1844717451807858 0.3610751864480297 0.7165417684600305
Ni 6.344364078493845 4.6159806326338675 9.866944647566353 1.5317519347272521 -0.9196177805510355 0.2135008069687549
Ni 5.318907915905356 7.003756660703856 5.6111913407284915 -0.7351185030209533 -0.7666895929590151 -0.3845182479623185
Ni 9.218593879493088 4.46724637296037 7.510937788527382 -0.06936682062959666 1.252755617158849 0.8961937452001405
Ni 5.41540053430508 0.9567029626856289 4.434256743933784 -0.2894429668230241 1.393010580158575 1.5727761996584138
Ni 0.22921764291792177 5.516525691407501 12.031090916249966 2.7128928157625922 0.5805656353413162 -2.752726402819762
Ni 0.8360709106845085 2.971522416042406 12.529516731971128 0.44268714299356665 0.279773304943744 1.4754013238516657
Ni 6.10319299735712 7.291560104323741 11.788678910087256 1.744888416378053 0.41516914007895594 -1.8181229474931722
Ni 9.288472656068693 5.660357646068306 4.407435461119562 -3.0936446547039433 -0.7095671369144103 1.759230544032338
Ni 0.26415982189168863 0.4701394227750639 12.063303804349493 -0.28379322473641444 1.0302006704076259 1.5462398439307823
Ni 3.873965141272565 7.896218032464151 10.95576333500105 0.8090662581530131 5.236430311454382 2.1806094124664313
P 5.848738251024714 2.9309179352446817 8.587803037743276 1.2121470996088675 0.47106183748151775 -0.1695899645184176
P 3.9553880554587004 6.664241806143639 3.0668373649646976 2.3252061973746216 -1.0606304476523927 1.8018368087386387
P 6.893543169640526 4.398855962233023 2.4221879767103145 -0.20591913796675507 -0.3471920007080343 -0.36669176130385883
P 6.712753230510222 5.829631354447732 13.203124138260636 0.6403540682538584 0.06991806514737636 1.269251043710711
P -0.0986674929954877 1.0023213759346645 10.005066858741788 -0.09953460246222857 0.9028333620038451 -0.8524333122847383
P 6.665079011933283 2.095795857788436 12.246927219963414 -0.5902499525086157 -0.3312146514431715 -0.06120871029883651
P 8.87242789004848 4.933439765780246 9.826794118352348 -1.3847272571038605 -0.11324243896662432 0.27172138117354494
P 6.918529111318117 5.5377256024585915 6.20501582595091 1.2482279044918245 -0.34758537949171103 -1.32133516600046
Ni 2.5826961404721693 7.769958097099313 2.1279854901715853 0.6218472676989226 1.601154750801107 -0.3653869264495062
Ni 7.489475552995536 9.212156697199385 11.352200741427806 -1.4295719242223766 0.9799893396605573 -1.2614107217306856
Ni 0.8335025493676123 2.107414413691382 7.9974771424929125 -1.38916960914593 -0.25962922589570125 0.32518721430216896
Ni 2.7598767924204526 4.141173322467212 10.685631445143237 1.3546412363517573 -0.5845588156611095 -1.084264285021249
Ni 5.150834202491088 5.005281324818236 12.001329180656784 1.2743649678985085 -0.6995269790695888 -0.46777133965570405
Ni 1.5685050468976656 9.175347549314711 3.952550858060463 -0.8216584929957269 -0.5183647363325394 0.584943709804354
Ni 2.923876104325122 6.1215836178696295 6.891067831189145 2.42021077317698 -0.41896691655849133 0.04274021918100381
Ni 6.878985091187275 5.978002824945717 3.939466261796986 -0.7941451180668065 0.049657515126127386 1.2974208212767075
Ni 8.591275581312988 4.7944915115590305 0.0756517756095244 -1.5438685154851282 -2.0079870888795934 2.3931643105821494
Ni 1.5677236548273312 4.5464088315144675 1.16574301584448 -0.9540042284507054 -3.308214012146528 -1.3109093426814455
Ni 1.4640775780694286 8.632466106163463 10.416439086227133 1.3330773941380525 0.16649795585665517 -1.6647556154812038
Ni 6.78935756026263 1.4915379279697454 2.6082485914007534 1.3384875094100304 -1.1679138408221048 0.3814979730787559
Ni 2.6203145872868308 6.332847847742967 11.556109653324794 -2.4615888219031348 -0.11998464278646434 0.7492112336685935
Ni 8.422020477506665 7.1095515656551775 10.728328010186416 0.684603524990537 -1.0232103551327216 0.42935443044040245
Ni 1.3308223232177898 7.650479528630591 7.4117130885674545 -1.3596939682843165 1.6876590024419384 0.2060276385201613
Ni 5.746143332647141 2.8527601236381566 1.263906324908871 0.44739688976441017 2.081453019279228 -0.6315907202389316
Ni 8.836967573713789 8.430299512537587 8.911944933548323 -0.05820463336519008 1.4129520562775084 -1.0856799344218526
Ni 0.25659799315389475 2.893876230196219 5.799974734692582 3.5002072840608105 0.5643455739380281 -0.5094003280504001
Ni 1.8170528412698077 6.994268328421226 5.084936804559569 0.18575860385848006 1.6936401597260382 -0.7667086191224086
Ni 7.847213586910333 8.488587640069898 2.2354334114431262 -0.03682899590289141 0.3789420394261216 -0.72152739460008
Ni 3.48911094205986 9.282733145266356 0.5631194977729047 0.3314013135326809 -1.0729128645641717 -1.2374968912275657
Ni 0.8081277721121637 3.2032981877620172 10.192707001688689 -0.791438774879237 -1.0718098613079798 -1.1643528629437239
Ni 8.39043921466399 7.488238348884173 13.389905680158824 -1.0287006888233314 -0.15793798210178606 -0.08374262973529449
Ni 3.687472900486132 4.818119319400089 4.347830129811544 -0.28259303378072625 2.0359920587329516 -1.750644859245856
P 3.5725059409949345 8.247993300699374 6.781904568277489 -2.0595420781387497 0.65088633524375 -1.6182986095702452
P 2.347525034161224 1.7030812264396311 1.0338235693416506 0.39814149517270786 0.8351837811756713 0.06682271405150426
P 9.058575946232503 6.744176354481519 6.245601702175532 -0.8051676944295553 0.9223382648059922 0.38220991154411593
P 0.5559846439878291 7.90965983653121 2.257231459519485 -1.4659435208728753 0.09737050493137424 0.8892101147934557
P 5.714506256085157 9.010408706468331 1.0342496140657138 -0.32574360102627126 -0.6902923478451982 0.3027869922300979
P 3.406106639159953 2.597244916638868 4.307339136909748 2.7821570493760537 -0.29116843415456306 0.2706230059030436
P 1.847917828048009 4.8964352698779905 5.487582557030859 -1.0672420394316395 -1.44775348022741 0.1608315015994972
P 0.8764977178090974 0.7879771589840926 6.19977491770774 0.7240033669443984 -1.156249259999983 -0.6801262059454738
Ni 8.130505421552693 0.6866743282085372 6.807867250042999 -0.7094948889155781 0.23418481768066765 -0.08265402465680603
Ni 7.532396303144608 0.45069764388222444 0.04736910357804639 -1.0246314038499644 1.459232427401287 0.3337682711029607
Ni 6.934166255011353 1.034832867432499 8.99122460091297 5.363576247875976 2.6720690968780114 -1.05812156518761
Ni 9.18395216437494 3.6216592231335776 2.9256649340289944 -1.0890447371290277 0.15625776618588574 -0.3976663553085022
Ni 2.2134697826661482 4.001071584713598 7.615649907324099 -2.348520446620529 -0.3171908263602537 -1.8862849491813902
Ni 2.531301007274591 0.7329885524916323 8.504017342773034 0.5838386496656333 -1.2947394177898026 -0.34669320669474485
Ni 8.124831026756217 6.069155930864824 1.9524215756259693 1.7750747101534463 0.4891996847328091 -0.03975568263138315
Ni 5.17867594614002 0.2561310183690046 12.26512993428758 -0.14188787061745886 0.9478420655040515 0.35782222672837083
Ni 4.989523251399829 2.4881104908155227 10.626107973956874 0.7245890642445392 -0.1798592076549096 0.43211965189036544
Ni 7.392852702584089 3.360916131092291 6.606708094050662 -2.604421830042682 0.3979728308053275 1.8754102112504154
Ni 0.41466988806788607 0.5899789199619881 0.9782628722262672 0.7122863356177862 -0.3125648975524682 0.43128635735579274
Ni 1.3584687188491384 5.862133543659015 9.146161625259074 -0.33167590735030617 0.8951683892594197 0.5074740575619647
Ni 3.056247641954359 1.7420857139504808 6.307018188675145 -2.0949340844847986 -2.2475848500457163 -0.43741586729229825
Ni 5.188545672171265 1.3187944667065739 7.295905202371992 0.31380879726189825 -0.2894673923030563 -0.8807581273713606
Ni 5.637687973742062 3.345762706299738 3.8141560898890665 0.07461032841672312 -0.06954011298266734 0.5714464466488673
Ni 5.323596268327362 8.039743011668753 7.887115745073412 1.3923487782048602 -1.9246432372446145 -1.9043587759639653
Ni 5.706655126235608 6.280438765311265 1.61164254032339 1.712079083157516 0.4081371729328391 0.22185432113977271
Ni 1.1771764562450486 6.614800153121896 0.6270364388975884 -0.10100964434585828 1.1087530141912325 -1.4740741203998098
Ni 3.595919796245306 5.611083434204493 1.1414845129752231 -0.9689119988004733 -0.5176761949059471 -0.36136726376715184
Ni 7.789864990319733 6.343657104715924 8.434227868148326 1.0540309400580041 -1.6674665866544636 -1.9992913608778087
Ni 1.5479842027648407 5.644115853749216 3.086919141172287 2.8147223849065846 0.3999314971935951 -1.8288974124008568
Ni 8.100254385686897 8.438076224094724 4.793403144032493 -0.16512781498200593 -0.5503646862779037 0.2723001364951504
Ni 3.4318739729078787 3.2998838290272574 2.15351282492648 0.325789109552226 0.310809091203626 -0.21941640112224148
Ni 5.298247537474258 0.08572522171624966 9.480800221208943 -4.56271540835189 -0.6323003447114466 4.266187509657628
P 6.613432716998812 7.498508073237137 9.61561453928663 -1.4187105560278406 1.4468787909319405 1.1693713992042376
P 3.2503677577131023 4.659878122870858 12.631790721462671 -1.7083455842570126 -0.8010251330160914 3.4682322738161107
P 3.3905904251918875 0.9367495580324515 10.442784091969912 0.36115591908729416 -0.5095571653432386 0.5076298664135387
P 6.0851093523008135 8.962390303288982 6.025913321601067 2.1401672452909852 0.7028907533354991 -0.6688578321205062
P 0.7845920569079662 7.696321196756865 12.126204005554087 0.9346893301721774 -1.4387458774121609 0.9694262194327302
P 8.896716160234702 2.644667973478913 0.785802284388329 0.1339580742474209 0.18981169088193117 0.2912841337968209
P 7.891808748638693 2.540249806937228 4.8195155926114825 -2.329676831551465 -1.6482941274910712 -4.034908552769845
P 3.3964136565731877 5.238387323514726 8.760480452771931 0.948113059777251 -0.4912539961586766 0.7695630578520682
