# total energy = -381173.00035366893 ev
CRYSTAL
PRIMVEC
9.17122504983031 0.00000000000000 0.00000000000000
0.00000000000000 9.17122504983031 0.00000000000000
0.00000000000000 0.00000000000000 13.42301490206355
PRIMCOORD
 96 1
Ni 7.571772723098713 5.185199808221381 5.291406264902722 0.22177307427987616 -0.32602436549148367 -0.4007344527108647
Ni 4.482372133761265 2.577893844450529 10.72374032809415 0.4673208823818468 0.34487286565655445 -0.8453203553890409
Ni 2.8773160058380842 6.102469071065589 6.6114794084442465 -1.241506783717907 -1.3733218434803962 0.6919777059674211
Ni 1.0204822316096924 2.517161990961544 1.9250080769934739 0.4255011181325833 -0.07239635148453984 -1.1088610005240063
Ni 1.387982397897389 2.8058079627010235 9.188335987320992 0.5043774209145121 -0.4228428545741299 -1.4330040898323773
Ni 0.35811891999746953 5.371935125178378 10.286915787397229 -0.7111612208744076 -0.9116332196836622 -0.05010771528966854
Ni 0.8483786873884752 4.703793024547216 7.771563279174037 1.4478666087665064 0.22014428042720152 0.8216325248537978
Ni 3.127580399979949 1.1548865373905863 9.3884732157101 0.7541819474103075 1.0007795369330315 -0.5102619047197471
Ni 0.5995174907071684 4.861519756094116 12.667514566158168 -0.7136001693332032 -1.085882280240646 -0.024291011336880747
Ni 8.482475388676518 5.768728184858375 1.5515392773245282 -0.05691728201233424 2.9657579834615824 1.0860887398244974
Ni 5.793646403814819 4.637237443035653 6.92379264401847 -0.9723459641826868 0.8728188179196258 -0.3635961530976706
Ni 6.5597830460542275 6.614067528204831 3.4397955034441856 0.06818308473414064 0.028289590973312573 -0.9644660472139776
Ni 0.3400360152067368 2.0793918969431613 12.894591351544946 0.7808995659108099 -0.6524961029330312 1.2365476399404187
Ni 8.11973508828444 3.8982934836103267 9.040494919452101 3.1995417090490896 -1.4889813765289452 -0.642398609487713
Ni 2.8449140670919975 5.095798704655899 3.7440417293039854 -0.7405831256799503 0.5036567406984035 0.9158986798282356
Ni 5.369192928833889 4.930854218851096 12.993237050144693 1.1465130065488254 -0.3583153643147055 -0.013240667059990099
Ni 3.668104901502196 1.42718938576592 6.9751084005613455 0.7480460097158989 0.05506634484652452 -0.42858618481581023
Ni 5.946347303934361 0.8400328724269868 0.19809296228480627 0.002346388744989507 -1.24343588241982 1.4142232096804483
Ni 3.020909879301848 1.4069026355518404 0.88010654107998 -0.3180454610510652 1.2744696117971728 0.9054931682241953
Ni 8.192747212359615 4.03754019631393 3.1722479353518542 0.726604037792039 0.8739783854453658 0.8417200396322922
Ni 1.3542781451683008 4.939649423848973 1.4369741659663728 1.7990553893387597 -0.9244023464238724 1.0866646669326254
Ni 1.529732855089439 6.728827069537914 11.677379001719983 -0.04380619855167294 1.2397787452832068 -0.101033041384626
Ni 1.8563018431649125 7.568003349528194 4.28288147675104 1.184559934019218 0.08912806241692392 0.5283462730252836
Ni 4.212435461495891 8.443176688555663 1.8739867167805588 1.3848858941689117 1.3145322841460134 0.1451086915476017
P 2.716397687910308 5.555662280259144 9.224416504507793 -0.6742805457979743 0.7010578138918184 0.16380138286109852
Ni 5.299005542130294 -0.21474332169423732 9.988817033810708 -0.37564408540114014 -0.12658954969749164 -0.4021022795926688
P 6.621129371633783 5.071082252654568 1.5685326405576512 -2.223439106037448 0.40356498018112436 -0.39656798003800087
Ni 2.0868664455075714 9.317506274861751 2.5998497576569064 0.748704212125188 0.18827160008832092 1.0729794561360488
P 8.250259965792026 3.5443208745404275 6.870583946587627 -0.4555058920247897 0.6590794125775036 0.7958772702665649
P 1.8224600220573384 8.277782812714474 6.841697338473121 0.18387064280714788 -0.9383675503547129 -0.2953143380021366
P 6.67634014753286 7.425565050443714 8.455090110132558 -0.33582001142566675 0.4928588787519512 0.6063972516924395
Ni 8.059415939930913 8.386856194403466 7.115151175615122 2.4800927942445936 1.3611594970862493 1.457489219457935
Ni 3.8550694990900025 7.2136180353228365 11.173264264370383 -0.6073210490582897 1.5079985410613963 0.41782843207867393
Ni 8.027124055887615 1.4977527927040433 8.016734891944347 -0.2960381035420385 0.7477860711862928 -0.39848216634157824
Ni 6.922220696013635 2.7800826759241275 12.55140502047088 0.9673737077790759 0.525743545295114 -1.1307480304050848
Ni 3.051624312605172 5.5598260165146565 12.945142227903437 0.4684722223774706 -0.09503645748155891 0.929597774581883
Ni 6.3946092796186145 2.632967051971121 5.924113502603441 0.13550356435766986 -1.0614753121511913 0.2016580486975559
Ni 2.5546264460359183 3.8972021078076704 11.077248873167289 -1.6001111400279409 -0.1710989449637763 0.06735827484000012
Ni 0.4128711346349267 6.730945622566599 5.967523662995983 1.970081829193388 -1.7330322883704152 2.3300776665343097
Ni 3.9145082098212187 7.942556188019609 6.172305199842783 1.2362812736529096 2.0067791846144214 -2.4599646560361506
Ni 0.11639293654697375 7.756692137459692 2.762282244870553 -0.3237620518198682 -0.6472551662490659 -0.41392266926636456
Ni 0.5127586171311413 0.2916651390859869 5.526926080238451 2.2455439083562876 0.8535926227001622 0.8554864972887654
Ni 2.4859706539461355 7.026974430618165 1.615164652374337 -0.6830030132726366 -0.6397999955226014 0.6421553831286554
Ni 4.903863302992129 6.264102744561493 8.63605947778594 0.19771809021320141 -0.8186333330161579 -0.06890839293593938
Ni 8.3673948544603 3.6505328339569085 1.0087513174149234 -0.37211961718764947 -1.2091849316567498 -2.172940325956948
Ni 0.21297877795952264 3.0449201469602842 10.962106891742016 -2.1531798555005692 0.08225318967396157 0.7765819123720625
Ni 6.896101046551747 9.12598357833344 2.5146270643073074 -0.14629088478116095 -0.04637421638916529 0.15267699081316288
Ni 8.123458605728796 6.82899519152624 12.08130452326322 0.7095149435202361 -0.8244807929358703 -0.11116293072977629
Ni 0.5283570370064157 0.005498149526826733 1.0492019234249683 -0.6828436048766369 1.0679359801748702 -1.2713578056410684
Ni 1.6695298413069868 2.304646359876258 6.808609392079651 -2.1079904034481243 0.09608006825472484 -0.359262044498691
Ni 1.0900001188713215 0.4553797635871234 8.376162545782481 0.30943020857822834 -0.793522396881143 -0.7572135351477797
Ni 5.559605907109079 9.352723779754186 4.528817969705733 -0.3399497173233242 -0.5537199759033818 0.6501137187437835
Ni 4.559905671876016 2.610011475214411 13.00503583140618 -0.19753605610938238 0.3319538436020412 -0.625591051012071
Ni 4.316492182982758 2.6303073966537234 4.701854227533086 0.823426640639743 0.02185874774630429 -1.279932177573641
Ni 6.106651149771566 4.191992800452861 9.294981745690963 -3.775979952485594 0.17256704486887053 0.7574667888091665
Ni 5.652583788515199 0.1984359661084982 7.060626407363428 0.8912004057506071 0.29634997835550253 0.9285456791682848
P 5.145901108100527 1.6397875578782979 8.581011032573477 0.3824009445089995 0.6645962286306748 0.9699527813601619
Ni 4.765946417947224 1.4415882093807955 2.5020634028614364 -0.5462419223587818 0.011843786712463474 0.5327251188192695
P 8.07538304306053 1.5557057649476096 1.0525604261050752 -1.0250286392883832 -1.2471621822314714 0.4064240468964742
Ni -0.08185410232173691 1.185619313144375 3.3813518706506853 0.675013824419573 -1.2115112657970815 -1.9449135574578764
P 7.454344355223 4.535620267460608 11.100404382634064 0.07619721328786877 0.5112011287045648 0.7669749854099178
P 0.5784713630438456 7.000368706218958 0.4118136923656304 0.6410477518867734 0.7471060144001327 -1.4591203273034548
P 4.722089618885864 5.495691638464449 5.017657114308239 0.3970498047704259 -0.46421987485901983 0.9964716535862969
Ni 0.44446417131551513 8.788821825114539 12.143090150531409 -0.7600646314433298 0.8823360133814416 -0.5696487313184964
Ni 4.297150068967616 7.165615842456429 3.7366717327072254 -0.5032551343846107 0.3382121658069272 0.9019085361967306
Ni 0.9770839938099525 4.323856676844379 5.541396439410139 0.49612855064215844 1.2234800081231831 -1.0760917765127853
Ni 2.687554184554395 1.4896546008238294 11.944738559695049 -0.48191600658720235 -0.3053678655833966 -0.7428133005620497
Ni 8.636836280563125 2.733089317833285 4.969952069139362 0.257013385539409 -1.1065290099567202 1.0392329558132232
Ni 3.254198335538531 3.8423123247917275 6.209124000660795 0.4726926882167214 0.5629836605934949 -0.5502495008562781
Ni 3.1334316416782233 0.6942479932552018 4.567999278143613 0.09624821840147296 -1.3379583763794378 0.7061393421797839
Ni 3.4277179169356318 7.975490057829176 8.369572103330475 -1.2104185469535347 1.023130908045038 1.4593105889373899
Ni 5.028060035089356 7.231226787769054 13.529996763709036 0.5237085171429562 0.7227828642737358 -0.9157081610839843
Ni 1.851129272133836 2.5573136150290128 4.082234328239009 0.07625377755741707 0.29572622872857457 0.6677995660593209
Ni 7.022297105749638 -0.010397418045977429 11.745366211490323 0.3639365671562248 -0.3089157308356551 0.15408004180827659
Ni 6.8071860179235815 2.006902532706233 3.573287272314455 -0.6502407312399512 1.5730065705016651 -0.306408133922453
Ni 4.3702263916194175 5.162253402689904 10.793285729031476 0.7142689132654537 -1.7322285615221975 -0.6743198836763419
Ni 3.577539052332198 3.7377603571423115 8.46895608556143 0.674240179478342 -0.5380390748330154 0.5830670616069312
Ni 0.9467455807411571 7.045692901317503 8.909137294693412 1.40399690396675 0.5390616025602587 -1.4248410944056107
Ni 7.964062711189599 5.8122273061356715 7.580016737460121 -0.7547457903335776 0.61836676534949 0.6052721369490609
Ni 8.210245910103044 7.730086413060486 4.750552516394632 -1.699572723160389 -0.2069552925407533 -1.860217562670377
Ni 6.093352873184578 6.725708852958896 10.970576518244142 1.0897785299712586 -0.0437671177836214 -0.4119115523736067
Ni 5.9276104907845575 3.0591447172957436 1.2964288077698605 0.5142275742357144 -0.12827027983402425 0.784648748540597
Ni 5.7794218334793594 4.257365293909443 3.3838079247679236 -0.932281492061633 -0.4311896838769283 1.9082578539080555
Ni 6.423782947082895 7.425537536768017 6.15744598072124 -2.831039119788737 -2.989768230333251 -1.38892921100035
Ni 8.244830600454444 8.15710783110649 9.86362063816315 -0.3554627253572588 0.20480199364317633 -0.04338788006733173
Ni 7.513994004134561 7.875074312759574 0.7862399679488391 0.10718157748452509 -0.21871191885604915 -1.3337343109957611
Ni 3.2067280737356034 3.48407509598876 2.204663496637626 0.7031182959652729 -1.2337353673026044 -0.7149266014541107
Ni 2.746809470780963 8.62636274134772 13.361161844160648 -0.603625088263941 -1.8142189844530754 -1.4880400956615984
P 4.475585427089285 -0.05049493188457486 12.167587410249686 0.727315976257399 0.24876271549484252 -0.3697745139942406
Ni 6.646561179203242 1.936953597858681 10.230982318949838 1.4928873964515708 -0.19592603130978514 -0.6097132034395499
P 9.077981385467032 1.0804895583053178 9.987998043397454 -0.8592467356621459 0.21444543027021135 1.4487266427739567
Ni 4.412863417724868 5.456970725533236 1.8064424771889431 0.16738164401318914 0.9150782408094691 -0.5438199431808506
P 0.558813758880709 5.768122883993036 3.8107000285381507 -0.12206672212647364 -0.5872199074330403 -0.10733712922578287
P 2.617962927490906 3.4563963382373615 13.307765136612542 -1.3993612049669513 -0.016629895247197164 0.6108100360481545
P 7.728985866032597 0.545363239954864 4.876715559181687 -2.5085919301255504 1.1752350570738663 0.8613555544750326
Ni 2.22197693563136 8.693441082697527 10.58022165867729 -0.8890183104976237 -0.13569331177097274 -0.3176729082029949
