# total energy = -381173.4294094361 ev
CRYSTAL
PRIMVEC
9.26187955488360 0.00000000000000 0.00000000000000

0.00000000000000 9.26187955488360 0.00000000000000

0.00000000000000 0.00000000000000 13.55569693370083

PRIMCOORD
 96 1
Ni 2.2506089664734175 5.860343198592811 13.392676104638198 -0.9196738305999517 -0.5167120312204649 -2.2455248821928944
Ni 0.2286795130220343 8.468923813087388 10.503279004261543 1.5647528151333052 0.28978466643315903 0.03580826794786091
Ni 2.190545677018897 8.455846039038077 12.788756169009352 -0.8361037218867795 0.6157193004243138 -0.23974097161220645
Ni 8.187973956138517 1.8108641831255103 11.61241965515345 0.10688281529718366 -0.3487961119703606 1.1159019665311878
Ni 0.7568372732094029 9.75303711554259 3.888722422960867 0.14342487608727558 -1.5656110493685425 -0.14934921199151052
Ni 7.880266528914533 4.526539911878008 11.590866335047114 0.5442236063771724 -0.3007866739706174 1.0800469045057917
Ni 5.448467411076615 7.8637803831583195 10.571464962158872 -0.49281105623315136 0.44789825488086094 2.074529295576202
Ni 4.939554910589718 9.31170855077653 8.84051042417688 -0.707809273683039 -0.4405515847078026 -0.47838639616738904
Ni 4.085730012371694 1.0342185279336276 12.981166161367717 -1.033022199016821 -0.4408395482618666 -0.7746381583821305
Ni 3.939401575965839 1.13479327892617 6.4157077302177505 0.24744991022069002 -0.055755143383433015 0.23205748692501968
Ni 8.12004733087106 4.532810204393152 2.712522058735649 0.5403484396924823 0.4097942489202878 0.3979052107921857
Ni 5.349476441502226 2.2052813275234677 8.30130509395692 -0.4827184478838396 -1.2077587407331847 -0.0463464484750234
Ni 8.466321224909018 0.2436494890814547 -0.09596418730858558 -0.24719511389740653 0.01940900065423109 0.2175487517858834
Ni -0.06418945683339308 1.7192086222246723 6.212453929178839 1.2003688760270166 0.9010433599829578 1.852676002877693
Ni 0.6552418630807172 3.3300532526809725 12.28489139292534 1.5234950940350986 1.149393156310098 -0.7112828340539363
Ni 1.104312433036451 8.438276253364178 1.6271038601613754 -0.27951028109034437 -0.00562505949626128 0.5256918661215721
Ni 4.468097451360194 3.9389570057432 9.662229942816621 -0.039572620086299595 -0.21014937399801872 0.017964554898220672
Ni 7.9683284805157015 9.099463316984735 5.533896210296609 -0.8957407168231217 -1.6379963451094888 0.4453814019962781
Ni 6.459651644349735 4.069271652254395 7.697114711442636 1.0829221691710575 1.1598336349171317 0.8117787719881697
Ni 4.744962819388564 7.999226110989145 6.798818898141208 0.2144657419851855 0.7706935719120855 -0.5866010429021188
Ni 2.935478656329164 4.902961224138705 3.3792051217335857 -0.5296531647621652 -0.7006775477342642 -1.0118589346756446
Ni 6.546648479792497 7.305548373597355 8.848196858088723 0.24459470016008197 -0.2287574760175093 -2.0905745219645224
Ni 8.821106786334594 6.486863046727126 8.909644798549174 0.7958723851705584 -0.06062789809470204 -0.05060548086169349
Ni 1.9288142203195455 6.979326448976364 4.061788053506631 -1.006093492946777 -0.7158807378372639 0.10247877269221707
P 2.6444796599727143 3.34806760857751 8.901253535596853 -1.1248910574036757 -0.3999489806950918 0.8424219507953233
Ni 6.247850980780579 1.9053353554363983 12.816071304438692 0.8958222207933346 -1.5214235562180507 1.4932805181249316
P 6.565051834633844 9.043929086673353 12.175482661133765 -0.23258199196992205 -0.24798958477424388 0.3693636517090671
Ni 6.210118083134054 3.9228320732928803 0.17308230192911284 -0.3159821507641333 1.010906340954388 1.3601644801628316
P 0.9471846449723123 0.8742353023769939 11.942040689601706 0.09062393023616006 -0.47936033004488415 0.1406496273349836
P 2.9220767164925117 7.0862363256415195 1.373951682571002 -0.43005659871374974 0.4949409580919605 0.636066239511782
P 5.631658128442993 4.180692064303413 5.2808523966980045 -1.2204551052539303 1.9504224030912474 -0.8667998654190555
Ni 0.5931492957974402 7.124080365843704 6.35167109439839 -0.16240038874851384 -0.2591430302879021 -0.1849044833883009
Ni 0.17777992728166997 2.384369032210069 2.4552353780747285 -0.8462744917721942 -0.12225209866440234 -0.1037877213116277
Ni 1.8528945929242173 3.1682204297605665 6.944353591462058 0.654503620281363 -1.1557602361787063 -0.5740466032758759
Ni 8.865656427394924 7.501353771031127 3.75805952977527 -0.23088609232473783 0.037319562386064764 0.2951119921833434
Ni 4.559910464214884 1.146722579900329 3.024032413739128 2.6499442399545137 0.4183992169804794 0.6153290069644306
Ni 9.654120241005309 4.31442434440115 9.597501444588278 -0.5418823598385055 -1.1617609338468313 0.7255871664917503
Ni 6.6321171050949355 8.405544770722347 3.3694857052411304 -0.4752311383678591 0.4385340400571415 0.5999687224582764
Ni 4.244182249224113 3.8048912979784837 6.944800940248589 -0.6817017779627098 0.8533113440143175 1.222480106103759
Ni 4.1207584411638285 5.250707757039156 1.076091485778483 0.18684412361317498 0.33474580452488156 -0.5490269413030867
Ni 7.380745574380893 0.9395991655485263 7.833729288483818 -0.68816038910386 0.33597607738755686 -0.1263136703282857
Ni 3.109713136085284 8.806093279440875 3.767317704661737 0.5931774105680558 0.41851003152673083 0.5096720936545481
Ni 6.483825150205757 6.397448860698763 6.492271058247942 0.4264267152706463 -0.3232254625901078 0.07786817323238847
Ni 3.143546782404076 3.40719544818856 13.137015810041767 0.9566714908702233 0.04725507633222184 0.49220581854898454
Ni 9.507134211145132 4.729226885883054 6.996569290299029 -1.9802088903250605 0.15144620372985532 0.42412840615477276
Ni 4.321583777361573 7.7018919889600825 12.591737465342959 0.9686289203424155 0.21558417186034484 1.7009896581125736
Ni 0.8998369900732446 5.870697980028455 1.866918004884601 2.1978368320883113 2.7377348145069367 3.4722593926976333
Ni 6.935443663249993 2.8601054798324967 10.059018128401991 1.045293045964374 -0.10411168030994972 -2.109810744486315
Ni 4.983224673084407 7.532455162856613 1.9491736841405056 -0.9780425003468317 -1.5081155262552348 0.8096879508974121
Ni 2.209162055091925 5.1637572309945865 5.767502117098267 0.5249395613365799 -0.19490607468570303 -0.9198293823412095
Ni 0.308831819412076 -0.07951786763481658 7.803933821687335 0.7675169739563169 0.9557296957822443 1.0668977687183432
Ni 2.5141557515818804 1.155141628491564 8.258008585211655 -0.15833624598146925 0.3303361054929601 0.9038299215891595
Ni 2.092128943982084 9.092609526052376 6.1573633429021335 -0.5738954224099923 -1.3892904509945105 -0.1013919673859415
Ni 3.251216133199573 7.35128353525139 10.491906342253648 -0.8322041297220572 -2.5988654190008273 0.12868834120804934
Ni 7.347189784451252 0.056037150375741744 10.082781332990034 -0.44927199529993594 0.35781065676414503 0.04698562472091908
Ni 4.396614264311622 6.156982679648999 8.394825997416916 0.5561951769167518 0.10962001172268863 0.003062955196039886
P 5.366268229286505 -0.03626581591181501 4.92618075639198 -0.41078155253422155 -0.06597270734638316 0.3274384722301909
Ni 3.2373418375013663 0.015944325797371935 1.381189841508351 1.3225662101940836 -0.5289869919330761 0.03743937579338068
P 2.9433327302624614 6.885799988388585 6.632003183975384 -0.031023702075023987 0.7303092545577681 1.0060564690612543
Ni 6.353380837379625 5.190690776982828 10.029114297613738 1.095857646285803 1.027405881271308 -1.7538008883763343
P 9.37691218343032 5.597129841151328 4.6019556930210115 -0.07046056791440768 -0.5585469649783801 0.4901939303252784
P 6.496004521930151 5.945330206154057 1.795926623644824 0.05721527286872726 -0.5863760713755063 -0.10063323484304604
P 5.565769116695969 3.539945969044634 11.602131559251204 -0.16142362665754134 1.6143108285670908 0.4341279405696459
Ni 8.121964539956194 1.7490596602989854 4.345386808032061 -1.952560532480173 1.3356826929713836 -1.9112022812483602
Ni 2.409450202270646 1.8865707872891573 2.7961336771706042 0.3759734437161009 0.9871210656093323 0.4835581701763155
Ni 0.832431808629426 3.464100436686412 4.455919932011728 -0.24413035892915377 0.9889159527262259 0.14563679613692984
Ni 0.038816537564209 7.38976664514862 12.935008658002173 0.3585056259486406 -1.210979047442695 -0.9299865253798694
Ni 5.903475772068478 0.0015235792005040274 0.9594881258838598 1.1160318072408326 1.2132526739682201 -0.9400554795800972
Ni 3.7992878607972984 3.0062394167659465 4.862116334933703 -1.1439899830166558 0.10071345326167816 -1.7742514429212022
Ni 8.213379291986435 0.42489243315989333 2.3008083541131246 -0.061505672713965044 -0.09251266261844067 -0.4855538604501057
Ni 0.4078681721966931 1.7634063118587466 9.93656959626762 0.18889329283271986 -0.26361520712664277 -2.1026821038613335
Ni 2.963634770429664 9.471290736944823 10.53143419217408 0.19556350576404385 -0.4949679546751541 -0.11381836607475236
Ni 2.466688618435478 2.241680514502075 11.074638802021868 0.8844797991973219 1.9744863860189865 -0.28889943561472825
Ni 1.6438817551261966 1.4902179100467905 0.5569436821032744 -1.1038141821287182 0.20522596855447237 -1.1961283555831077
Ni 4.237393291449222 6.485621954855591 4.566101104565138 -0.011995996019611599 0.5798691234949239 0.9649327024377512
Ni 6.7252638286175435 6.171588663838634 13.239618912675104 -0.41597646647159975 1.3953559404623002 -0.6109254785800962
Ni 5.87155007295518 2.0308430864153046 5.68896045157733 1.6615455931843386 -0.6753380405282111 -0.1977049775870789
Ni 8.61354806363979 2.755418454280539 0.35037968528162616 -1.7719665035417678 -0.23311703853778562 1.0411096040106458
Ni 8.830600212963875 5.257042882711769 0.44118685800759394 -1.5554181679959405 -2.067714843757529 -3.0179842877561507
Ni 1.6194859641588555 3.8583971766490714 1.3916140870412828 0.4086971592013671 -0.8775596750387208 -0.44685053034263694
Ni 5.124801765235802 1.5811510443358392 10.822556371529718 -1.2461393973939119 -1.1445669385660482 -1.1813131449471461
Ni 4.735756511028072 5.652302858156814 11.48091670948466 -0.41675396806757253 -0.3951330473636872 1.4850326762938424
Ni 8.271469801077993 7.344392696800478 1.5207191320717135 -1.8193434501638344 0.16536847023790227 -0.21812827843843724
Ni 5.301777761364866 4.353907737299317 2.783174455180663 0.24367835899339968 -1.2186000543230626 0.9555443192443155
Ni 2.1442270169476467 7.99428952914192 8.571172185730575 0.5395850791638965 -0.040659939613207394 -0.5629430371635467
Ni 2.092101158343169 5.576049803094506 8.647138122524094 0.2199337070782922 0.045226475937967275 -1.1072941702575188
Ni 6.895580533286653 2.5291970441145155 2.3538650316212544 -0.4595448379808537 -1.0308976964746503 -0.5559234113126038
Ni 2.5753489903522757 4.802173449914481 11.021744207407409 -0.30745842956383823 -0.17662090322327004 -0.330095964457696
P 1.92911986234761 1.7029910709779699 5.132945736001779 1.6085042491876427 0.44175537520791663 0.35284997032476006
Ni 7.575004237915066 3.8051784162472715 5.660072648985403 2.5442305052647667 0.1824277397130342 -0.8289293156255273
P 8.493069533304494 2.9109717228061633 8.05940424775118 -0.24908538894158389 0.39328930928672906 -0.022595111691696573
Ni 6.482732248408435 6.014822089080389 4.0252962477316405 1.0214884873456085 0.03067223227287621 0.35145308997723346
P 4.453037635068282 2.239624377222367 1.1871099322511975 0.48845843569141034 0.8646787053109947 -0.39092183749581705
P 0.6632672817873235 5.553858339481086 11.567319858442604 -1.3523087315638387 0.6389307055437705 0.5523513776906294
P 8.039357835461995 7.895585677836317 7.480860936143375 -1.329733417366484 -0.5644155079440151 -1.4161193982618965
Ni 7.673374661553687 6.942760548164268 10.98457443204289 0.45334745092089024 0.2521095204798884 0.9313700359909572
