# total energy = -381171.64520688815 ev
CRYSTAL
PRIMVEC
9.21378485275302 0.00000000000000 0.00000000000000
0.00000000000000 9.21378485275302 0.00000000000000
0.00000000000000 0.00000000000000 13.48530547564669
PRIMCOORD
 96 1
Ni 5.901023782567304 1.7885246301529998 9.273925054962211 -1.7716805968702327 0.699393538815518 -1.2927311291105221
Ni 2.1386853091577835 1.0416644449238457 8.107662597666463 -0.06610331938697647 0.34774735899087206 -0.7126527178182694
Ni 6.849730352254878 8.026828220520775 1.8172255699251263 -0.9527019646995141 0.21185761493837704 -0.3244508503567767
Ni 8.808194029970352 6.0581188140648194 3.2653856171137035 1.8047470404068982 0.05505863153704066 -0.0033090097685749466
Ni 5.3200485795716554 6.854807147700926 10.867982620933995 0.18695673793163933 -0.30545245487740297 -1.705029375399586
Ni 4.5349143321231065 5.525359347129375 3.558529552780486 -1.5930670886969662 0.9498081880914868 1.3550852658677113
Ni 8.249092352181453 4.983902067306326 7.403054986949996 0.7380403046534386 0.6316349432133057 0.08879973254322772
Ni 5.241335215695803 6.735976964637967 5.9160708145871626 0.8444466945348359 -0.28179444913883084 0.4554642401535769
Ni 7.689907750329008 7.369056120895696 7.04212062933348 -0.9190968750505591 -0.3097672802026729 -0.23063489554588024
Ni 1.0456632275437825 7.190898377257223 7.6630919509348505 -3.512815973963756 -0.5549865013206313 -2.7045488146732715
Ni 8.623347078539082 3.542884546124604 2.875228819503197 1.5362045711819672 0.9335901835707276 -1.2621301163952134
Ni 3.594168472536051 2.639316308361155 0.7641434028293322 -0.32071452324279603 -0.8500275310567232 -0.4865774166186136
Ni 1.5852224676900866 3.339176977128794 13.033426604019937 -0.5792284045871315 -0.33822245021957237 -0.04254352978916544
Ni 1.1024385697190133 0.7990120501723935 10.136499321221919 -0.9236140461946223 -0.6420211715436362 0.6673527083298894
Ni 8.111217275857182 7.814542617840262 9.443907407313425 0.08066476214091914 0.01984994484639162 -0.15514653539957796
Ni 7.611351020795412 3.5911832062483566 9.627024931330494 -1.5724339858276468 -0.31345089970184725 -0.19868636766374168
Ni 3.9624250249637747 0.05603823938814585 1.1177804428537061 0.5339625907707966 0.0289508787063953 -0.19447695756808442
Ni 1.2825588495280997 1.9895970566849803 1.763621612491329 -0.8167453719648256 1.0405372764469436 -0.5686210613849304
Ni 1.5825228287323871 7.416322837117528 13.256567887997244 1.3732012587421318 0.6600147799075794 0.1660852937992688
Ni 0.6285395244677675 5.568240301768052 11.933497869290946 0.39525543187416445 -0.5439176451009794 0.37597935725337184
Ni 6.5574046006817595 6.847859953932649 13.004864792398871 1.6672914945291801 0.897368482234532 1.1018951107291346
Ni 5.63157585874834 4.134870222002337 7.940134797596243 -0.9299093922850307 0.006456297148305011 1.719929175329554
Ni 1.389365043376733 5.051337758539776 8.192889186044697 -0.39002606515442506 2.237794346317856 -0.7161075091360893
Ni 7.960157273428926 0.9998891444657969 9.24023945759242 1.4725247736348188 -0.47349127285861675 0.46096948624252226
P 1.410215838466403 3.9789269136096426 9.912697408871686 0.8354617174274063 -0.09242087423558276 2.7607922105470326
Ni 6.367066233486706 8.63059832720703 5.301720518770783 0.4610695021554963 -0.28931981098159854 -1.5003824192770352
P 7.947396181427515 0.6463331857480022 12.011739487383064 0.3742744587471232 0.8709545110173774 -0.453526913921548
Ni 1.13486187856592 3.393713369588254 6.712256996949568 0.7480850904839503 1.1754867680733563 -2.9992021220526413
P 7.35363224507594 0.28050170148978887 3.3876709694911242 0.1083804828886327 -0.7347742323076571 1.5971831677478687
P 1.7138745453909547 -0.06348666305164094 1.4430758807146575 0.4209407524554105 -1.2774479776992063 -0.19280368363071956
P 3.185555542515418 7.527017248168036 11.188987199195628 -0.7369329305218728 0.6056248923027893 -0.28197005548474663
Ni 2.994314224406185 0.989551277876928 3.0754858260769655 0.1359218828420111 -0.32900273139351727 0.4612952450130572
Ni 4.673323807968014 8.20593498399762 3.6460494522050366 -0.17496099902234383 -2.1379951773403305 -1.8914073580096198
Ni 9.06002519717798 8.355456284357833 2.5181384529213298 1.1664799365890557 -0.4232403471228646 2.4381724998617234
Ni 7.494851925296609 4.496059801458882 12.190284209984757 0.3521963959011612 0.23710713353378518 -1.2326845574405867
Ni 4.295042657635933 1.0001471304412766 12.302833355923266 -0.31674345441019 0.1791920063845559 -0.36478811652324267
Ni 4.19053990999694 4.579186568272406 6.113630946338683 -1.254635093569749 -0.7362528737357127 -0.9833284313361194
Ni 3.7185637816415027 5.670209258576438 8.023716725380792 1.1433708613754179 1.0461715919145853 1.4282382930126176
Ni 3.191784061066287 5.492945252067306 10.46869680530544 -0.6472482242705304 -0.8383634644552336 0.08646568509341238
Ni 0.35810019740017435 2.749365754472963 8.532840070069868 -0.3204954652534545 -1.365179673989236 2.075237377386819
Ni 7.486025119421265 1.8779996947202942 1.9782134255169346 -0.9279252719754665 -1.2405868430067988 -0.7185467147052013
Ni 3.603944298249768 0.34501109465851043 9.902812860496876 0.3159248151636366 -1.2324295040069873 0.8304614359993374
Ni 6.220143220450965 -0.013871353074458003 13.114661780806102 0.45730026492105114 0.5523806882666681 1.2457383053007516
Ni 1.5447186695397594 7.681698268037847 9.615346459047615 0.21007584044760594 0.2563032468462618 4.5508775351766975
Ni 8.867051687519098 8.233622407437503 5.101019407767796 -1.2903829405933198 -0.2513577299155284 -1.097073263860459
Ni 8.802463055800764 5.38519925216514 9.79973087847999 0.48513297086260326 1.4036742305200085 -0.45244165127716923
Ni 2.7407692932185825 2.357181002819489 10.875291916446429 -0.19224986800977859 1.2721733595638285 0.4117652566037296
Ni 6.052784032643291 -0.18489117759849477 10.788149782200257 0.5674437532473775 0.9853611454954321 -0.07101644041787769
Ni 5.1327415475884886 5.251700723639187 12.555830988291458 -0.9162943726047574 -2.92211247885749 0.430415267604749
Ni 6.674769791955387 5.714702625561864 2.7622899304660162 -0.28488285825616744 0.5973156011061455 0.6333652956408512
Ni 2.3575034852888384 4.436160986223378 2.283844803775423 0.8656811784335801 0.5394909767881935 0.1829638147221623
Ni 2.898002531488676 6.695325745930223 6.041147022392185 -0.3958953794510085 1.2056969731081495 -0.8057155965132253
Ni 7.311322545097254 1.9061109522627526 5.025623006433828 -0.8264826538572476 -0.6961084403063431 -1.0570105915116184
Ni 1.7762057998238399 7.506369156344814 3.7921082122229204 -0.247773869219012 0.2642888361548997 1.6930948287455292
Ni 5.2500698837227615 2.552513241397044 6.252678016094419 -0.3826737385544119 -2.276621089377066 0.32658538020127625
Ni 6.814091432499313 0.7060661528564123 6.990809061567517 0.5514232094494051 0.1274207873495354 1.668365187209333
P 5.192925990153988 2.007674502538243 2.2810797469453696 -0.5657403974030256 0.617721161345691 -1.8927355899027405
Ni -0.020108164031681933 8.048452973536884 11.645289758162184 0.21563893635768025 0.9011482609919382 0.07058346664551714
P 0.5753851997340922 4.672448498408349 1.263612543764561 -1.36793486813687 0.2812655732185543 -1.3702892273016594
Ni 8.75315087934477 9.104426426315019 0.5464152174446795 -0.12050014897030215 1.0387267056007659 -2.7549324093321457
P 9.03225484967455 8.9260659794101 7.582099096689938 -0.346693463805061 1.9193012562064107 0.26226229264317413
P 7.622610265868136 6.2649867112602555 5.0852011819569505 -0.6213168491167493 -0.350910330099886 0.2009859623311958
P 7.73955162303919 6.506544508372887 11.290895345024081 -0.20249211456307706 -0.08862901129331834 -0.6546329467703759
Ni 6.512671675290532 2.421511648562342 11.335087421245285 0.39176644488429946 -1.0838845330843268 1.0993880280365647
Ni 3.885840045385631 3.122957088322215 3.8684490265028417 0.09269418250162745 1.2090674322422792 0.2869664802580735
Ni 8.62413025025036 6.684628541732651 0.5716407175756998 1.2754810837808228 -0.7732932143184618 0.667893668435024
Ni 6.466897592212547 6.204756199770564 8.693774485709612 -0.41095613043887286 -0.9533485971445774 0.6068176270593097
Ni 4.959292048002522 4.228021586720218 1.725323594431354 -0.017740611812872672 1.2552058784715545 -0.5324700653856701
Ni 2.8621977636060167 2.121068552546449 5.993975208154188 0.8266909132133118 -1.1974077365161637 -0.5803807730240198
Ni 5.450082724998308 4.335822869331417 10.17065758575393 -0.9156631667786618 0.23558066958692975 1.4053421051407344
Ni 1.5504496437093462 8.975590072917381 6.000502253333827 2.144853080802429 -0.33232948177390503 0.3161544146759394
Ni 9.187746682610154 1.4653695545100467 6.1119042830599355 0.41223885380603836 -0.1681264925990137 1.5413796876250034
Ni -0.05496575483293701 2.8076890125010725 11.07283822752069 0.8354303499688386 -0.45095889608405565 0.8222063950793969
Ni 2.885416501399198 7.098161632857077 1.933658326173091 1.0672212134960328 -0.24872903404342972 -1.5053037678380528
Ni 7.4907241496889325 2.871337838165872 7.542803225731947 -0.16230140127680434 -1.5684384915150085 -2.0197054057577866
Ni 2.7829223588550125 5.179648926201617 13.180523757589125 0.7400249391836352 1.2165465142281435 0.5645723452368535
Ni 0.5971288105746192 5.903493076904039 5.74645240673707 0.029935354106851674 -0.6620508365010017 -0.8383403245267821
Ni 1.4924672957202632 3.0428432291509013 4.017407364609421 0.9596704255975473 1.3720409198854435 0.7804164556268044
Ni 6.4783226854123654 4.426947201384814 5.986181267559247 1.9849258361847557 1.580790328212142 -2.9865947177012755
Ni 2.9964702500584086 7.82706415143587 7.988532966596251 4.014525104017485 2.600379798762825 0.09243604374423435
Ni 3.011258374724304 3.560722433572064 8.265198048079263 1.6653171444116288 -2.7997971310553202 0.2650460260358984
Ni 8.7822111567256 3.7004494806488863 5.02405850576824 -1.1250787479344495 1.1074607777423702 1.7734428309769779
Ni 8.757195730888899 2.309997210661203 13.403489979654502 -1.275495481958526 0.08939262893222023 -0.06396930376310919
Ni 5.081374697113494 1.1537224961304602 4.179001487243607 0.9640739539818814 0.27173655068219654 1.6051145067798034
Ni 7.47585310095949 4.59879350240887 0.9695149813669869 1.020757522716855 -0.5756797680039246 0.30433273945066297
Ni 5.705774468053295 8.437136486951704 8.454949497180099 -0.8498789212940009 0.19611397895087515 0.16819282706057487
Ni 1.6482079008465094 0.8385751208907033 12.792309225822589 0.05306499814577958 0.09281990944621434 0.21784262887721836
Ni 6.115944527711646 2.9471949287417685 0.13319908051869953 -0.5367098144986305 -1.2307911970726158 -0.05116392446832478
P 5.096024615006812 6.685872402685857 1.5850492485351215 -0.7721624431481282 0.1403349243080422 -0.07946842783997282
Ni 0.8727536557493563 0.9583534024135505 4.004582697492624 -1.078010590802053 -1.5818100277259082 -0.3807610949127313
P 4.3080064529037925 1.192208475401142 8.035704780834248 -0.09540901032962923 0.0469156907149321 -1.4509642738552238
Ni 6.37615102533753 3.4931669631357134 3.5585562727565176 -0.7203310602991336 -0.04381776851589873 0.37680699536098977
P 3.6327650172247954 8.929521148724561 5.3016127174881715 -0.5508678511665674 -0.1565866102802142 0.10646372548189408
P 4.428329269110598 3.219324063948755 12.111921891311253 -0.2564603412494164 0.011646840210308974 -0.09662437079396907
P 2.648170755591015 5.098899315876443 4.742916446232171 -1.421118394138385 -1.2096024788101425 -2.0537995192280176
Ni 4.402180547738754 7.489701419571852 12.946554433669535 -1.85019103167231 0.7096362995894488 1.2644556792045964
