# total energy = -340860.52085451875 ev
CRYSTAL
PRIMVEC
9.31680686381596 0.00000000000000 0.00000000000000

0.00000000000000 9.31680686381596 0.00000000000000

0.00000000000000 0.00000000000000 13.63608860246559

PRIMCOORD
 96 1
Ni 1.245461395499338 7.658377794978073 5.123978125770422 -0.13975025544916575 0.1031328613364482 -1.1967760164694357
Ni 8.628210782691205 2.7293305562380374 10.600913222800036 1.3947591874185656 0.28118046970391575 -1.0105466436221242
Ni 8.71223906182262 4.88359985592564 3.7397522121001883 0.3858403092078516 -0.7830826896050578 -0.5371592433312233
Ni 9.157349499288348 5.1220169379716465 11.20087364510928 -1.0201648834381787 0.4004917405724393 -0.6588207595994783
Ni -0.0760819747438801 7.098260696286247 0.08282734275487298 1.3077926514293348 -0.060258430570425243 0.8856069708232296
Ni 1.2140451234923382 3.9934535154473463 7.14960561770694 0.2227457226057906 -1.4502896163857024 1.0693436591556744
Ni 3.1898975759278487 8.517163764289236 5.7148164626935305 -0.21534223105286782 -0.21351469092582584 2.06748035914922
Ni 4.212566174124876 4.390936437343742 10.781755234821825 1.1276261969466517 1.7910808557737152 0.6941711140743142
Ni 7.180062258629504 1.5268662234054566 0.21430984485202256 0.4296295384786601 -0.26256619703683814 1.6772599185958017
Ni 1.5779223238201545 7.120378795261519 7.325265621872772 0.3390272055090548 -0.25020304748579486 -1.525812686424682
Ni 7.996922598038087 8.807885398840373 12.67467599626804 -1.7018489207890755 -0.4156195973528133 1.644120969949988
Ni 0.2706448479117874 5.56069877885231 5.853822286156531 -0.31098469754954183 0.4713891389139494 -0.4980036561776843
Ni 6.031188197619065 4.231460658000971 6.242887473249154 -1.24344385283962 -0.9452547643928494 1.3787013626247546
Ni 3.421485438703057 9.31839050214748 1.2881463451434874 0.04407307905981442 -0.6183575093781092 1.3616055834847325
Ni 3.530892699135501 1.2621105289739851 13.094981367722069 1.5693756586172973 1.1274061105160456 -0.5911297840104077
Ni 3.5043118497772654 3.818083263968176 13.376825017221169 -0.23299516824794067 -0.6934326932463928 -0.5628890439971597
Ni 3.5766754869891186 7.990419466999865 12.385522380275258 0.15107673620557852 1.775540851156587 1.1669720457341257
Ni 6.830849711960946 7.929310532215193 1.576194987868168 2.131981624156399 4.466091551778553 -2.5365956144273283
Ni 6.96409868059799 8.117416858378101 5.052252689813752 1.6309525508888298 0.6259255515333542 -0.3629680325953684
Ni 8.219240238201502 7.88669545862088 8.438610972423097 1.5878768027452783 1.4168187383217663 -1.1268139854580013
Ni 8.747605659847109 0.07881832085552182 5.405113697964499 1.034277925800793 0.9269837339978034 -0.14131220061964694
Ni 1.4213254377306945 3.693284638958162 1.679979555490344 -0.029050637509053193 0.029683385997045654 1.2778773519271411
Ni 4.728428441252867 0.8767450458000996 8.780195849491381 0.46296877606073816 0.32722275667495904 0.4050461927123411
Ni 7.603744040811689 7.078304096452619 10.407281098615965 0.638031847878585 -0.46215862145461695 -0.24277281645999482
P -0.05412132980090856 5.845811695803146 1.787596125685616 0.5618732011381355 -0.32451692770802176 0.6916694306983829
P 1.1935760992932338 8.872273849564092 12.724447309046388 -0.17185459218287824 0.3857976288953743 1.4599381952190598
P 5.367086219962195 9.008131524061742 13.620679387625207 0.17160390962465283 0.17182245339336213 0.3316026309102096
P 7.035903309411142 5.017091061535455 9.61374258960119 0.9376404423807013 0.06871144643378489 0.4350507094942314
P 4.858947585542922 3.18024536424361 8.039046675922206 2.440453839696733 -0.09732448218478723 1.302212586238396
P 3.2469257494020027 9.090454827577119 10.458075396763938 1.3688897758509713 -0.8565370500404669 -0.11798843829204196
P 3.211903873223381 2.4851743212987003 1.4696153782524866 0.9929775243901092 -1.3445406575826457 -0.9428813790646666
P 6.077120054379003 4.307122444765161 3.4159354169846194 0.380530466959164 -1.8219207239727073 -1.2963489283687673
Ni 5.122221907717837 6.931294204400882 6.727459245259854 -0.4148606076996016 -1.5141285652185343 0.29951834878115513
Ni 0.9324912266798993 4.841115217624359 13.36232992944285 0.33838854348379144 0.9040350956214301 -0.6141141607207229
Ni 1.4045458689630175 7.940993807748045 9.301393851784974 -0.09336266932356178 1.3242194295267904 2.1651254578982195
Ni 6.709712591962424 1.894973253950111 7.574711007944485 -0.309339448636635 -0.7043979340086449 0.29257919845916064
Ni 7.7270333431452105 3.518799484110268 1.802513264804954 1.8100052034820442 1.0190688221605224 -0.3519218020835358
Ni 9.103386555200403 0.852140291131272 8.744932668020652 0.6420396834863975 0.8130746079814577 -0.6095216562540341
Ni 5.201107309581202 6.758532658782317 0.24733047096329475 -0.5154892145569574 0.0212095441980796 -0.8973270874736353
Ni 6.005669464218362 8.959432575728233 11.102230091393826 -2.0333386802705045 -1.7619122046295592 0.6122321132066617
Ni 5.802078605411432 7.872841367139739 8.97840997918347 0.6438847071149363 0.20012052900710695 -0.7332354270656275
Ni 6.615622161654389 6.130300386708765 2.423718801306834 1.3555976867277557 -4.111652896810435 -0.4074982537972595
Ni 7.196711392104151 2.2128906470980545 4.788189234116005 -1.5712304524378489 -0.6446809777639865 0.3848676608819372
Ni 4.325420653015977 4.746624164630587 4.45480128353401 -1.2862797170582234 1.0482968657877043 1.691000665220662
Ni 8.10339506437735 3.6843405045789446 7.92446299771779 0.33124601890173916 0.9647468116791902 1.1049135858404842
Ni -0.05044957630210704 9.088572832634826 10.972960330874868 0.1837857964028254 0.3045551398741142 -1.9870768210894876
Ni 4.804313831376538 7.386122071197363 2.3891925792417266 -2.769776416323514 0.9223534343146437 2.340334568375628
Ni 1.3087318294256542 1.288253488419905 0.6084098342556121 0.611228611642812 0.5691579077250069 -0.43448609524001297
Ni 3.263453764390264 2.46402517021451 7.000685780292975 0.3950571998204293 -0.9826442607849013 0.17016769139875856
Ni 7.508908265972053 3.7564060039781575 12.469956872176397 0.1910602185770516 -0.4977424320964976 0.40961504302994617
Ni 7.154226753802869 1.3449928408880636 11.671305299674836 0.16659720043868081 2.023432734010702 -0.8110583488823774
Ni 7.158298198306742 5.9986539088146635 7.697980744984052 -0.22265444844356494 -0.0027559654785823504 -1.7344322540417354
Ni 3.4042307127964837 0.3650827951076816 3.8209956977254085 1.6286388151539886 0.8740079531317206 -0.7205472900749978
Ni 9.021650210503662 9.080774665472946 1.21194697863588 -0.42615006457049187 0.6746235309596897 1.5826968012062355
Ni 5.079727952609909 5.689149592067171 8.817149099687514 -0.2807202422380456 -1.1960987878967528 -0.08054057785822905
Ni 4.334765410080929 4.661803956934345 2.050540632905296 -1.3560975091823098 0.6174018303330593 0.17236752726355475
P 8.699027829999984 7.458075768916836 6.367153176919072 -0.655711010325903 -0.14176702876887842 0.05809433303957092
P 7.166869660420158 0.20430732123793144 9.336875046531196 -0.9463569963180928 1.6027709462482913 0.13441907304423947
P 1.1733306784536102 2.7676319483557057 9.44052265709569 -1.4252650693169069 2.37626959170934 -0.08362435898987534
P 7.692430723265614 1.2968994849864814 2.882246372022051 -1.029043673985047 -1.5514481276045993 -1.9386164115952549
P 9.260300212715794 2.975107915533608 13.799585367226161 -1.2209562132600649 -0.4556961536587249 -0.47314674503500453
P 1.626276550307797 3.7658998299494306 3.987219640121165 -1.7438864574761 0.8023237972228568 1.4971142900487249
P 3.3893424557777454 5.8612403276072955 12.858163049696348 -0.043233870987970706 0.3597667520492514 -0.6732505618715631
P 2.062796892046817 8.17326179740834 3.0988146108048253 1.018916355743058 -2.302005590888442 -0.35900827661667206
Ni 5.602866645727661 6.278922086310089 11.364002544337561 1.5612226904928597 -0.21898625556335835 1.2085012753261637
Ni 1.415735353743684 6.906390380238751 11.699818454731249 0.24355468893134186 0.15020924599896066 1.572052948339144
Ni 6.502991286122768 5.902159742392213 4.684446592123732 0.48386850232788287 0.5130572080766971 1.7405381098291575
Ni 1.0419543879522137 0.4878354493784494 3.5763372869079046 -1.3514885496553886 -0.1235384215759937 -0.06471389523861758
Ni 1.8541283736183527 1.2383619888358346 11.42687794566213 -2.5195258034292354 -0.6250331216260718 1.428510829947714
Ni 8.941963563268825 7.220888505347972 3.593832386425919 -1.1404508595151455 0.7312615911687083 -1.1602290705833374
Ni 3.6707006996506384 6.8120018121180745 10.41700318635004 -1.924418265718002 -0.14028144536228745 -1.0763450301741722
Ni 5.693612342450134 0.5130718835378092 2.508617270178894 0.08446973770930613 -0.272855237667672 0.16462413587271005
Ni 2.211064552995631 5.6670873939317685 3.245102450341573 -0.35866297746211134 0.43804553045649713 0.42200570338481513
Ni 9.337303619636867 5.8124109439807565 8.61009891057329 0.01880581985259342 -0.6713389466711471 0.03060615492163116
Ni 5.810864354077683 4.536716510918336 0.2986343984347499 0.8091343923867872 0.2196619414741443 -1.3433831469394346
Ni 9.312735200513954 2.4206368016686617 3.352732064066148 0.34591159133371396 1.5994822481946906 0.7262433120185106
Ni 9.070675247069746 2.1101262698035077 6.506009931475753 -0.02856469901157016 -0.24062054600368238 -0.14364959050357198
Ni 6.2844003686173595 3.010698116917576 10.076551232969795 -0.6666387129820003 0.0986848528674236 -0.8467002664557031
Ni 1.9940295421999403 3.872232544189019 11.17935648016261 -1.6092339282648158 0.5614633672942266 -0.197493375796905
Ni 5.715637273358957 2.7664114466852086 1.678438555671258 -2.7004093385836008 -1.4140725430351968 0.9879913840294275
Ni 5.292095243276446 -0.011677685448865344 6.308790836733353 0.46031256938481363 1.9546572671082014 0.7797734227261667
Ni 2.220455894093809 1.0994577185652639 9.173924098309834 0.9406213793858962 -1.9518010286063292 -2.989836364567025
Ni 3.68182496678479 7.966978381480999 8.335031374547112 -1.3903217204725022 0.8356270393606768 -0.7796368971483025
Ni 1.9913369850795304 7.078564967038679 1.3587640127900644 0.18330140056723915 -0.3963352952019045 -1.272358736101757
Ni 3.358364073683061 2.78544568266098 3.598400416723971 1.488726580205662 -0.8864384655855896 -0.715976897095496
Ni 3.087943760811419 4.370541947597798 8.55807758899017 -0.7458258621361284 0.20354755241078493 1.2445399141172762
Ni 1.8727619869083885 1.8560476357872264 5.406463703247362 -1.0329286108617501 0.14302532665601173 -1.795562802804469
Ni 3.6267346890927996 2.263247987014376 10.826685534867423 1.3630382021662009 -1.4323428020992943 -1.686456497493405
P 2.8835516566330175 5.515288663264494 6.692687991179983 0.4271687356429933 -0.00039106479083158457 -0.784676516454739
P 1.77162805077672 0.4594694998670282 7.048576029809696 -0.34085834518052266 -0.25017476535102073 0.5576000276840783
P 8.031720870857228 3.983298196204277 5.682212297839291 1.3404428333641885 0.11107011390565388 0.7904697260977483
P 7.827794607011079 6.661712404127292 12.390322399058773 -2.171903914272634 -2.328196390351197 -0.4099302602775198
P 4.9998177020155925 7.7215550608379395 4.809407329569369 -1.6479269739596394 -0.5945457516704922 -2.73203107925394
P 4.709766877542897 1.8243798100008108 5.096405968185156 0.19696321432504788 -0.3835908510520426 0.7571695692837218
P 1.6590530760849695 5.844181254640267 9.909604306378382 0.8256611863972168 -1.1834859842287488 -0.37986635101260385
P 5.184215939133784 2.849983202291018 12.058420479136656 1.6366917673654522 0.2300304291926619 1.462740183444229
