# total energy = -340857.89400575415 ev
CRYSTAL
PRIMVEC
9.41789563579377 0.00000000000000 0.00000000000000

0.00000000000000 9.41789563579377 0.00000000000000

0.00000000000000 0.00000000000000 13.78404223845900

PRIMCOORD
 96 1
Ni -0.09674909731698574 5.2890523665985185 12.877961374376843 0.64341625211895 0.3030934677269232 1.5859358769688234
Ni 3.6197115769840615 3.4363922436628838 7.412988373057565 0.9831086020158294 0.38408733107248694 -0.6025701646368654
Ni 6.865052395229354 0.8722459137430022 2.7229132100189526 0.4925308059885712 1.1382960179556718 -0.10908753625798634
Ni 1.0041454219387258 4.631560837333099 4.267415087594423 0.6695833974326211 -0.7921378578287906 -0.9394186173270466
Ni 8.484167548850909 3.266135531215915 8.072678980891208 -1.1151450337605051 -0.1517061422594613 -1.2845087412007297
Ni 6.554487877602888 7.225560011987708 6.498596435757121 -0.2616310868170784 -0.9214036688068648 -0.5874405080842787
Ni 6.344365214066859 8.402194187575413 1.3349282773393456 -1.3349468432466236 -0.14867404030135686 -1.983867055902938
Ni 6.021124209276237 5.414338628667444 11.790317833902684 0.919230829525262 0.32679363955734037 1.3692271045857323
Ni 0.6771033545779299 8.434017256020944 13.586296353571248 0.09807987229357301 -1.6429104945816544 -0.8781888239822877
Ni 7.216810787191645 9.131337064793954 5.193083071017931 0.34652788476147417 0.1240590699661541 -0.5287656199508894
Ni 4.378341884597085 0.1299462366965809 12.166912157737631 -1.3738049537644017 -0.6324440693781624 0.44156048558829114
Ni 8.082541400919666 6.141560255231091 11.062176078961668 0.7003762144437615 0.7777813319968024 -0.7028041071589639
Ni 4.009132132519503 3.6054811370843285 1.364757577335655 -1.9661727239469686 0.37633751192373893 0.33443752925584336
Ni 5.28333570411067 8.032409943880436 8.237054217681406 0.11074615490733185 -0.6635510751956121 2.853196886832699
Ni 3.613881899751808 8.482453491894091 0.8985482119243218 -1.5103377307175345 1.0889578338421761 -0.4049523474469542
Ni 8.622375163363536 4.923995906377841 6.262173357618846 0.229528806965895 0.43516229537143114 0.359868053513806
Ni 1.2581743136763126 2.067406973096924 5.948434067464121 2.1780154264870104 0.02571385982633636 -2.6251184391600852
Ni 0.061517692538090585 1.1864664583509879 7.41807497834535 -2.5807625387525297 -2.070317314377383 2.2510365560397427
Ni 7.878493279895436 8.132701111644998 2.949358028015753 1.868347647976679 -1.367099259609452 0.34108820180314164
Ni 0.28133890472318934 7.709696341230372 9.62200564626326 2.7884066298301913 -1.5376240772373133 1.3253368309606852
Ni 7.101319136304535 7.8435717238741205 12.494627604617177 -0.27336920118961305 1.3282917998239512 -0.7439983220090863
Ni 7.072415615422814 3.342090857351815 3.7488045523603803 -0.2759374761374216 1.0218654110690528 -0.2477931524927216
Ni 8.38602366123005 2.1490883796160394 5.467895374251699 0.006979002420994433 -0.7558246252200532 -0.24384522358856717
Ni 5.922038532118666 1.7469348295442377 4.87326547119326 -1.3655931073775707 -0.529864766552339 0.9856426812915928
P 4.3307155877255115 0.823844524082713 9.251008377644997 1.7925384141558482 0.0860162562608196 -1.4772669163054946
P 5.347452735770089 7.955192619765341 11.026902293653622 0.5879038208739423 -1.594694339887744 -0.6428619222773767
P 3.804302326179802 1.8546190451719977 5.859003616636931 0.26747983228837163 -0.5458534286711115 -0.09945001316822227
P 0.3379206782993673 -0.07608906025011351 5.213469047329619 1.0799731138450626 -0.42524940713309345 2.3805137116976742
P 1.2931147054883636 2.602654220497001 3.0746546497695824 -0.1498606044102903 0.3348450491069072 -0.6665016731835038
P 1.297446937357243 5.6006151811339 11.344887171039847 0.7997280114712226 0.3095304816015186 -0.471808228729239
P 6.9037599451882565 3.4260608124451424 6.170151101986622 -1.2228991959190487 0.563765790175158 0.3354472014672804
P 8.546485762495205 9.242374051172412 9.185796044754381 -0.05270864324762536 1.2585215731083488 1.397693073235909
Ni 6.381113841789399 4.941390759120929 7.708339222507969 0.00195763794700308 -0.8335151352239969 -0.44719300128372014
Ni 3.77402379257448 5.2398815348867345 11.015475561204683 -2.2701894748191096 0.6398066803908208 0.7246649117877971
Ni 3.3419119173398397 5.3596112386890535 3.9311255887726424 -1.2901682534793522 -1.2796233880839707 -0.427943923246121
Ni 2.5714715689364347 6.069692295684524 8.56257812030902 -0.22926192645775356 -2.9786633786693413 0.529394768894456
Ni 6.390964960343417 0.482707634515471 10.850976949985176 -0.21068827722062425 -3.967181838846832 1.3175600152287439
Ni 9.312961176949049 0.19275229732089483 11.52035763036206 -0.2628215075807538 0.258187094132536 -0.21195351708629304
Ni 9.307950856613736 0.6678304947994541 0.9847426739033653 -0.9190822197625397 1.789980166510369 0.7156956184096512
Ni 6.113447837560209 5.818488772557076 0.5306155264585226 -0.747690426148693 -1.6564249841283214 1.1836052834154327
Ni 2.2554917614738694 6.2088605355245985 5.877349676812099 0.0480919704112204 0.26942770004336175 1.1119442674350206
Ni 2.7304362248382157 7.601597738206459 10.460957416304385 0.5107756111313719 -1.1525692400452343 1.127768893172103
Ni 6.0049631008262425 2.2445387491618978 7.9443224849325995 -0.4354304614311533 0.2955999875633554 -0.2552994881720958
Ni 6.389928991853032 5.940742472317786 3.7581367448796694 0.07301830133925488 0.25726046855320855 -0.2479610455291536
Ni 7.726384851820926 6.814949191876224 8.760475413868978 0.7986869718012181 0.5960079380383154 -1.617348329841834
Ni 7.414878544657747 3.9302760946105275 13.181844837029868 0.5936422660196163 0.3517693356660716 0.6561555540624893
Ni 3.634299896907745 7.5168555156930275 4.0174001028623065 0.3426087522127261 1.2723646496390282 1.043311496757971
Ni 9.245783329295312 0.6507257132336733 3.4726407811414286 -0.9634113806972182 1.6216384725767554 -2.0500426232887468
Ni 1.3161414596609955 3.937998768811574 7.701709024169511 -0.32649667714221187 1.5341240345038547 -1.3492750869438377
Ni 4.401340385083616 0.38945163459015364 2.7148364229521023 1.0228817681487095 0.27066208667109515 0.1811200766452042
Ni 2.4299582731499454 4.2303114052165425 13.318499440596455 -0.615925760008165 -1.6435625263433566 -1.8294247456592365
Ni 7.200875708230462 1.046375264764935 13.32446850268014 -0.5188879558258612 0.3276122788038938 -0.07245985773262359
Ni 2.8943076042262703 9.357121688325519 5.001388403346764 -1.0503750884729717 1.4426786368076638 1.1461345401634842
Ni 0.12525518301421362 6.654816716948919 1.449268119623056 0.6107838107959093 0.0006152649864957146 0.28149902938559906
Ni 9.102358200749297 8.192721358819716 6.895191543983242 0.621618182407252 -1.263371187891166 0.18874314040810075
Ni 1.9263174826019553 4.878017741195514 1.6886003856402372 0.21564073612989312 -0.5620848029283094 1.4231973881546005
P 0.30926673164487545 6.25580874392974 7.959002158441344 0.8307594268557305 -0.9896543735541472 -0.8671495354489904
P 7.834342186414332 6.8439186380255155 0.3511556466587945 1.1612076324465228 0.517464078895141 0.09663054144155615
P 2.019865437283654 6.819912422734702 2.4327591552321297 3.369336847599778 0.9152206799246043 -0.9049200693295446
P 5.840008663470968 8.232888682560525 3.5230218124078885 -1.0038121531117679 -0.14712983574268854 0.5414612131406868
P 8.157310072239309 2.547098055726303 1.8162957453440738 -0.7091089663310691 -1.2169517200863622 0.46023183674554935
P 4.840402667099198 4.201313705381151 3.1548913511393795 3.7728861440516184 0.5760608054924273 0.1219296823279771
P 2.2287449386312215 8.819698907095635 12.122568939191039 -1.0008240170177216 0.28853716717930306 1.028749539783396
P 4.45871420366017 4.730100276559376 9.138806397609624 -1.2059705384845103 -0.7635405058070721 -3.4792731050113046
Ni 4.790572582711715 2.6665358047722414 13.289566724239096 1.0061099480070093 2.249417532379081 -1.1861763865767185
Ni 4.987500774838395 4.866838699394731 5.598333225086445 0.5127306779752138 -0.32050549255578353 0.24548815850862882
Ni 3.4948208665205556 2.7093778107973137 3.803389732118727 -0.39992892609043384 -1.225966779100779 -0.04451633724482011
Ni 4.98869684755002 2.1048619429719984 11.146010416361708 -0.5986638876039238 0.35435175168126715 -2.143603010445412
Ni 4.687521971604583 0.2516395716829461 6.940113021305376 -0.21645808982486592 1.0663254411546408 -0.7947691248040506
Ni 2.6210944596258408 8.159626874499622 8.196280381478955 -0.05160152622637564 2.449079890802847 -1.2668190372304506
Ni 4.684658931412976 7.214145522802747 13.11725220165441 -0.18896091284586164 -0.23761775462161658 -1.3671815349106131
Ni 5.8934363838886945 6.081040859601916 9.658395452172313 -0.5289183434786697 2.475077600418189 1.1348327419974198
Ni 8.11039011752027 4.7836127580354075 2.050499967333853 0.5251732746139408 0.9981636965767389 -0.16998025797830082
Ni 2.9281555201757348 2.4955915859634716 11.602289552897942 -2.126444239277938 -0.09576150857304154 2.4964429534678425
Ni 2.747746316523 3.4829072288811367 9.68907895527842 -0.5259281505020942 0.39076911396803665 -0.4799671103909476
Ni 8.536549882882882 4.049629082598161 10.174690126935577 0.4189306640039172 -0.14317830729410824 1.2654825778072143
Ni 7.282538278958842 9.429856094245862 7.668875415551086 -2.5507199696438523 0.6664885605573811 -1.083436904023947
Ni 6.293094191688206 3.4623291275039585 1.3954825191813789 -0.6188938414975534 -0.5035284426506554 0.2110754853567139
Ni 0.6605928422098151 7.438969521006865 3.8048504476901686 -0.7995369785063392 0.5720817662400213 1.917288596651756
Ni 6.052193846092397 3.7464858665209935 10.115405417389033 1.4375348878231953 0.2988755729908336 -1.4263356766732662
Ni 7.602370005626564 1.7302839905351526 9.742836302033997 2.5747042483735916 1.6286881803346853 -1.7182345612359504
Ni 0.5996515248681928 3.195953374940065 0.9841258017568184 -0.20164185074763982 -1.0116028528007803 -1.0982896527660633
Ni 2.553690582483294 0.575610463364521 10.257202191826073 -1.580218257758756 -0.36719029820683213 0.6868046464069139
Ni 2.3469206896979635 6.439184584623121 13.720690662249725 -0.2535470242573633 1.6448182531273285 -0.3096636647452731
Ni 2.0978079393420184 0.665944090357418 2.738433901583982 -0.12924961302815807 -0.5454129986995833 -0.37109091881281897
Ni 4.3979122711699805 6.78251396023183 2.048377173718102 0.6677352884802887 -2.000208473375439 -0.19376116244798244
Ni 2.2220770687112936 0.8847867832138719 0.14028331865154234 0.26779042155025495 0.998657605494022 -0.7909713483245151
Ni 2.2723874657625 1.1825391959828948 8.025055509388244 2.277671127908136 0.29571902963972296 -0.988830077880639
P 4.0475759814081265 7.472591407467518 6.558571477034075 -0.38548138320653613 -0.06959950546569303 -0.9833150615996807
P 0.9442570252991487 2.418082307091995 9.122031242381693 -1.3931206233738782 0.05580682255697485 1.0329142126840472
P 4.643841772891836 0.924004783101673 0.37773483096390764 0.377179291098744 -2.445959342895994 3.089080432372028
P 8.634269965212221 5.527353373072998 4.188557166106373 -3.101881440791439 1.6354864342034412 -1.3601827349952769
P 0.5418030443651358 2.039803121775867 12.726282402331075 0.8159398453443948 -0.3490665920229279 0.759295614487789
P 4.411379861544976 4.970774592666373 13.0299991682361 -0.43993811949351974 -0.19182589309848253 2.300933697980502
P 7.068921576241609 2.6205388037991804 11.666109920853295 0.3447841625974901 -1.2274132817393184 -0.15248390096575026
P 2.4523163567515107 3.761601588585236 5.4661031487633345 1.5717675558882414 2.080522537045159 1.9496780687260553
