# total energy = -381167.10710752907 ev
CRYSTAL
PRIMVEC
9.28047921421167 0.00000000000000 0.00000000000000
0.00000000000000 9.28047921421167 0.00000000000000
0.00000000000000 0.00000000000000 13.58291941521204
PRIMCOORD
 96 1
Ni 2.2167166909225786 8.689971550443635 7.086860652497427 -0.18937460334451256 -0.5165312826682266 -0.09318706297764597
Ni 2.8562437902375097 6.842209588959961 8.817569786446464 1.1647544692575167 -0.9590456475293546 0.8976983547701249
Ni 3.643144898594845 0.40126935786999157 4.302947060728097 1.3891922348537493 0.20931145147775562 -0.23747582972711356
Ni 2.3621046774249903 2.419652928688967 9.38005127583261 -0.1942915810301557 1.1678505916843371 -1.5453253025363127
Ni 8.226504421251088 6.849587569891241 5.888928978290831 2.0546430981752355 -1.3861087108324193 1.0245365301433131
Ni 7.570430227595942 6.1497095146063625 11.208774334321918 0.22795889137561384 -0.771164083790601 -1.0801451206465527
Ni 5.856641263249306 7.115853797437564 7.300547397321417 -0.9445225142125152 0.5346123085396535 -0.23797488085071916
Ni 5.575832524861077 8.419603351109105 12.044300513232004 0.503291644049501 0.3369523252578971 -0.039634069451854326
Ni 1.2873695079561844 6.153560913457283 4.537238325380548 -1.6220462495381356 -1.5707272875491851 0.7968463190480535
Ni 5.688720273349226 9.168092556227995 2.4010938264671156 -1.998510773958042 1.497046927145899 -1.2918656957864332
Ni 7.9675048088861375 1.727997377938823 13.18898729436058 -0.12810855744517938 -0.6944320810451847 0.10569136609224378
Ni 9.651234301237285 4.489032732485777 10.735069908569251 -1.7849320625635001 -0.5873456343776272 1.005823527114842
Ni 5.24382338295352 3.6134195238490756 0.14933590233658314 -0.35345777911208803 0.3165272246343258 -0.9731242371096079
Ni 0.7316339988706019 7.007931105299396 9.731292354701033 -1.4935759378781632 0.12954811810518335 -0.37197203586619165
Ni 8.637249148342256 4.623154217289356 4.0078983551185425 0.8880752298580641 -1.4189987766922207 0.4709227408004921
Ni 1.1333692367943673 9.826449747756214 9.150146893678542 -0.5978979559721768 -1.9243267344454602 0.8928155727565269
Ni 5.692098367763045 1.4847096167897915 5.772074753010194 0.5674972321931323 -0.38977563970651585 -1.2098418485144582
Ni 5.896575165069801 5.623654833966588 8.874427570061023 -2.3585204952560352 -2.1041072663436347 1.4075565962935501
Ni 6.465078757382118 7.826441525671746 5.255693115797678 -2.576132753290002 1.7721472520940058 -2.0382348320205415
Ni 2.1931164324216446 5.844131177343187 11.102936037802825 1.6238997578071064 0.18140906864053274 0.3737206431261822
Ni 8.597120356459426 2.0710038876496073 3.5696323670818293 1.3514250434073047 1.2070270047734826 0.5112733767033969
Ni 4.020285010651849 5.979115746708537 12.937527143264271 -0.7019178478992686 -0.3978363052274632 -0.7386244592916827
Ni 7.76007681920687 2.9330861576727183 5.842598042186146 0.014536245942962062 -0.6543547534083247 -0.20429445787913847
Ni 8.276442679604815 7.527173914236582 3.4408388053633416 -0.33470749508777836 -0.7870804979105412 1.1232645775438461
P 1.6984297713387537 3.6308111417927442 4.476209894432006 -1.0231982709478635 -0.7136101966355323 0.5220434707357074
Ni 5.7745739860476695 0.19178667010495626 7.639591142431377 -2.3143579418062075 -1.7644115740126451 -0.1925504299693329
P 7.075056811055297 5.877930682439688 4.204430134217414 -3.118257311046301 0.14360022532287525 0.1009826477626648
Ni 2.469424138417834 3.3924049126812634 11.574480896055228 1.958103316675273 1.62117927355215 0.8181533080559458
P 0.5571906882176888 2.913105286043732 12.457452596616976 -2.1982808616042657 1.3822255737279292 1.592457480137425
P 7.2435810321007015 9.083454586299359 0.7353424783424749 -0.017951956492730375 0.7194005780650643 0.15596954552150558
P 3.6317391897086284 2.10510964855835 13.08501066196075 0.868176434051608 -0.0022414877360090427 -0.5344891526982278
Ni 3.957057106142661 1.3715991368018303 10.626080889375732 -0.580165314579104 -1.3156864523551146 1.6473600457125759
Ni 6.243293866444122 5.965965307740459 13.357510587358068 0.6695481733193115 -1.292677135944135 -0.6007271978908558
Ni 2.482936516073108 3.5492542909448446 6.929000630053448 1.1304037596917886 -0.042258651558894966 0.9325558287689424
Ni 0.856063879288602 5.144707865537093 2.285122174754484 -0.3005496182591469 0.8034447982011776 1.2753579279393972
Ni 2.7776102903246453 7.646910656343955 3.864272731608395 1.965972949231337 0.06862197204377214 -0.6584849735266143
Ni 4.0113107873052485 2.7270038374714822 2.185790422173655 0.11886621291130497 -0.5512285769400959 0.2926535033405218
Ni 0.4579127624159811 5.190571993540088 13.520818251068286 -2.6795057556617143 0.7027120616657898 -1.9059819133896851
Ni 0.6713257331047858 1.3231550355926773 7.173235000076682 -1.728112996691927 0.8949398181883812 -0.606835881891755
Ni 5.1974395481176305 2.479641945971719 9.138520309388346 0.7688621751303016 0.2372814543281204 0.614743823884922
Ni 5.6482202623000415 4.726770767097822 2.188778736462802 0.06797611092965714 0.3557434898224712 1.0402089465732471
Ni 6.948665965391033 4.937363400170255 6.603756957452687 0.09455771807292747 0.5460987119126982 0.22051837593716864
Ni 7.847406128091568 7.658845352542226 12.873184653208106 0.5725425079265237 0.5252483508262503 -1.0998212589192413
Ni 7.025786747201007 2.3809718915549154 1.7654942259322064 -0.5361266883016509 0.20170252878224618 1.0128806910719395
Ni 3.4088127998340956 -0.14774151601709418 12.880030862683583 -0.5215673024302373 0.8155996883961566 -0.48942774158321517
Ni 2.57008021537463 7.2918580846849945 0.8521967036231126 -1.7627989781098867 -0.4883203674516493 -0.9785034991436501
Ni 1.5368659096624808 4.669695820270946 8.867839357906162 -0.5964578810915405 -0.018035003124839907 -0.9819369503052314
Ni 7.804818009231645 8.5566296258894 7.890385883171995 0.7952779461196691 0.6991099461368283 0.3200681479080488
Ni 5.393146292619281 4.55070151649628 11.136092405693619 0.5926649897080115 0.4569590795315485 0.663472913659509
Ni 5.138786919833752 3.399059016238153 7.093530532868886 -0.28545595715081806 0.7092159242225785 0.817803638026011
Ni 1.3660401297856841 1.4771738677128121 11.27956861348931 0.9047308361368741 -2.069881255281229 -1.1421477876015944
Ni 1.8683275032996662 1.6677485072396236 0.7077525418511549 -0.541267609072642 1.0586488984459896 -1.6961541843971435
Ni 0.5586013210498326 8.371595432420417 5.077933889941312 1.0911216742627143 1.20796160077261 0.9038728590119531
Ni 7.49955520825987 4.01090244622226 9.100053651322863 0.4165115130394633 -1.1043965369947495 0.320916354840957
Ni 4.801367258576589 7.792938995908328 0.7797597796446065 0.7832464688764318 -0.27019877388143143 -0.7417612051484516
Ni 4.153329959873001 8.659485176406841 9.01017499481323 0.3552403249338075 0.6868740661922687 0.6691270266214928
P 0.939620673395232 7.9344663030806615 2.989954149814351 1.3895984691532326 0.374638012734129 -1.2127207127241502
Ni 3.1554557187977204 5.010929758462391 3.6919193848620524 0.8682522815948658 -1.2541609821468078 1.0132501585962164
P 1.0867719509378237 7.031020937446594 12.515559532726316 -0.3748629842607415 1.4569600864273424 0.30885016770504226
Ni 3.807028880060828 4.437024927279629 9.458411929658203 -0.599766119529167 0.14838556252666057 -0.3819571721033616
P 4.058195768015716 5.375578345571594 7.37071710024142 0.29262702097796056 -1.1314676821799288 2.1557594433022875
P 4.364924884694589 7.014780098918621 10.964689380013143 -0.1603198520704013 -0.4091082785968567 -0.8377898513399507
P -0.16566212127281726 2.5868129192980214 8.67489448400218 0.6228307146581145 0.5059781897427286 0.8426309814823358
Ni 0.13929627998254834 7.439853885831042 1.0243662968821095 1.2765126103691307 -1.4404862571420354 -0.21795909985042464
Ni 3.69798324994444 2.5661916946070757 5.286295495823959 -0.7023523643335259 0.8418758484838661 -1.261889204029001
Ni 8.32262234389921 8.563200205133858 10.580034863981226 1.6035343067768772 0.8032491372506038 0.8699373826067727
Ni 3.0424844459971423 9.320292414432995 1.6778577331873494 0.7993965962737329 0.35174439596540713 1.9919778579355305
Ni 5.216807908122133 7.104893551550973 2.970855851753371 -0.34300058833450603 -1.9386097267270355 2.044673388557033
Ni 9.25880924000567 0.27554949084891256 1.7296353825103585 -0.39519783916335166 1.8830520440663894 0.7151975957273102
Ni 8.012728583827172 6.226524040604096 8.571134086766754 0.6148631230716056 -0.2573311738901439 0.2086452786486665
Ni 3.657900860457403 1.3481659269257555 7.572463580579644 -0.5603626780308801 0.04474567964680681 -0.5515016280958244
Ni 4.093359503548567 6.2572517070990195 5.558782428550453 0.659204111080826 1.4031792931614606 -1.4274538494381093
Ni 1.992917936007114 6.103399923603744 6.920320597896184 -0.9816852393057415 -0.05608732991187115 -1.4900082751315629
Ni 7.323755091553934 0.2732999027008094 3.615705305865898 0.6888124208655622 0.6036893658429732 0.01841758327523925
Ni 9.738378000538807 4.26934522983768 6.324682740619247 -1.2311876611800858 0.17771567894934556 -0.5965003042937017
Ni 7.723957194320659 4.0571192324332905 12.334418500264466 -0.5371325038583459 -0.30670046835189113 0.4199729892255025
Ni 1.7726086412553743 1.8424164054881806 3.039137905212464 -0.23136020374767896 0.5871057504526792 -0.02478080648910571
Ni 2.3394046254024645 4.6234140707058025 0.6928972788615972 3.4691159619726446 -1.7500838445360634 -0.008125200210295684
Ni 6.473459030062552 0.6666121777400102 10.051061472645992 -0.3214686278000012 0.6090858542681962 -0.0839478037675651
Ni 5.472689279489712 4.005399122081067 4.954057126081179 1.1511533335343143 0.6897986960382314 -2.254346337139266
Ni 1.7197841538832481 1.3376325830804703 5.29463586244401 -0.1204214732135668 0.07954838914828881 -0.5208936734019803
Ni 0.43312181843896763 0.11508165376129895 12.738510051846662 0.12169134106492589 -2.056340797592633 0.6562206029724699
Ni 2.4522088495781835 8.359363760889064 10.630617187588575 0.051093990462337806 0.3298771635786706 1.5453361011695903
Ni 6.478368403537579 7.718073370533952 9.768780850263173 -2.2480216804728186 -0.9620008735029366 -0.35707994924570763
Ni 8.25156171497996 2.1700915636285583 10.764178131450958 0.33346848047435473 -0.23023508900430023 -0.4698109957935522
Ni -0.005755753174313539 3.139484014165354 1.206441873595254 0.3509365553521311 -0.23029653836985503 0.12839806366114015
Ni 7.219628115391731 7.025628979055306 1.5639649088062983 -1.4959835188783914 -0.5040866291469706 -0.40024028668326556
Ni 7.20489071448749 1.6532895207101483 7.912037241049573 2.635338831336513 2.819507979220686 0.04138910446974808
P 7.466349653829534 4.420505674376891 0.9743872044200842 0.07379400316301483 0.4578170566564696 -0.6898321203793281
Ni 5.493551796638788 1.2099795922506045 0.41608564284708216 -0.714511368293563 -0.8493145641500985 -0.6574133377289904
P 4.2917204650896466 8.550281778144752 6.216440799998013 0.10170667041288291 0.3036166872202449 -0.2753227253715581
Ni 5.9014474166281925 2.18113533382758 11.824705815375495 -0.0016287938526746142 0.2502038188167433 -0.5351229296274849
P 0.18039952217705765 7.33739739591743 7.574202742374012 3.224216071867318 0.25059925448294906 -0.35517579024445933
P 3.654903265689097 5.85692895810323 1.9450872744703607 1.2600274682299137 0.4356646889291465 -1.698231378641146
P 5.721888705862925 1.920186820839273 3.5553701267105215 -0.8148862072688998 0.38812730546981544 0.4003973810864201
Ni 8.002473654356653 0.5408904546230994 5.618996033428849 0.7889486614675315 0.18592546845364755 2.106275991860179
