# total energy = -340859.8594524456 ev
CRYSTAL
PRIMVEC
9.38025010346210 0.00000000000000 0.00000000000000
0.00000000000000 9.38025010346210 0.00000000000000
0.00000000000000 0.00000000000000 13.72894419662675
PRIMCOORD
 96 1
Ni 4.797510219481929 5.731436073102001 4.684315925885015 0.06609303497433133 -0.18955689455864774 0.6257913399483351
Ni 3.6350533295155634 8.19517755643436 9.191157517424019 -1.319681946667753 0.23010164875022954 -0.21525661331759702
Ni 0.9680699644561979 2.9575459961746935 5.3633353555629135 -0.8727794800412582 -0.4872042515693351 1.2025445435220967
Ni 8.145734257473586 8.819677095727169 11.776152805350652 -0.9198095848468675 0.5136339065157736 -0.5005855579722476
Ni 2.182399638192829 3.8652540504027426 11.31844349539222 -0.09177115646672583 -0.552508472093784 -0.7057145959375394
Ni 9.206828163457764 1.7010520976555406 9.87779746238853 0.42359207403532856 0.013981401880756568 0.16280945126147445
Ni 7.8187762554670055 8.733932228377439 2.700840440238461 -3.2696693191041106 -0.2114773487808229 -0.7628151976052734
Ni 2.9676391454218556 9.239396392255298 2.831732451943758 0.26191725059892956 -0.47247388733769596 0.6494238917656107
Ni 1.3603614093126712 1.4374670662008426 12.815942287013126 -0.5478969414637016 2.2458812370910484 1.4630255758951318
Ni 1.9692991134744011 8.680286577313758 5.199370457597723 -1.3237756571211523 -0.40177266416739194 0.8631005621905974
Ni 1.6886889278527897 7.101027648640702 3.57938248242729 0.4047276330306578 -1.5590153984288955 0.07400431940160802
Ni 9.37936848618295 3.90501693112646 3.3370530979931026 0.46820045677332267 -0.6932979674407415 -0.5960619312047025
Ni 0.5240914647840063 2.7715543946201118 1.124101046777103 1.3400635956478986 0.9514686065130452 -0.19091932212381313
Ni 9.07393815845354 0.23953782196582707 8.103523131439916 0.011622414730276759 0.2851384259103993 -1.289954080586017
Ni 2.9067144201799247 3.0662818568374286 7.168582334744989 0.2879350148189299 -1.485945417916099 0.2714321320679003
Ni 0.5505681590823702 8.819226843716143 13.553955048410659 0.5120241388264923 -0.0018270259064097566 0.5941816834628542
Ni 6.91760623564906 5.420002385225581 3.774429777553628 1.3103706965691562 -0.17517774301884026 -0.5893343826728819
Ni 3.603019774981122 1.170392581660695 9.340981688167929 -1.4372230130097312 -0.5126831125667299 -1.06981879901988
Ni 1.626741755335821 5.172232455658166 7.50651991964544 0.2680740142289448 -2.378517764313568 1.558798140211767
Ni 5.911321131757045 1.598075710633844 8.439648451995987 -1.2300201232345462 0.8065501765993787 0.6815963627330971
Ni 3.4962725273670845 3.2862581049742294 1.5487759295015857 -0.29764761412100355 -0.6834655547313521 0.052804031174909054
Ni 8.395202012332579 4.031997378485971 9.565957609677163 -2.258189107924124 -0.09221030088667345 -1.4405837019518482
Ni 0.9522267218182268 6.709608567055591 6.2697892703352505 -1.4376801551518077 1.9375126370081148 -1.1228208051382083
Ni 1.7620518648993089 7.147075297018323 12.521387421400036 1.377026546025493 -1.4047306968089808 -0.587709188364633
P 7.387659954909784 0.6501141885950638 9.631128774198082 0.41588724919190306 0.62282968621685 0.47490152294258214
P 5.33081496604155 -0.3668240654828258 3.1856643015108785 2.067356431976846 2.956883306679772 -2.3544815492999707
P -0.46674249092963854 0.807511973374437 5.597990757284179 2.3416172917427933 0.9695645447828074 2.003284798307918
P 1.808343399782901 1.1470545190891903 1.7130841446251825 -0.2947741492279504 0.4605303418225746 -1.576765266213149
P 5.506985445605632 4.105472878535246 6.083487182498066 1.3532798372278565 -0.12029420360708315 -0.4073015644054211
P 7.094086263470722 7.007028161088834 13.011236282720507 -1.2719000512977838 -0.10943077853001798 -0.22383381346364678
P 6.737683655993098 7.399929322210238 8.038983257759456 0.991101647523635 -0.5637027981477066 -0.7402997901115766
P 4.765317200693583 0.7337100406171677 6.668917041559133 -1.4776626090820162 -0.4392282379106887 -0.15252221040285346
Ni 3.267947856525846 8.956581847829707 12.8276938645009 -0.9533051455011519 -0.7368357428223762 -0.3496677159420365
Ni 6.234892863430704 1.249514992348253 13.438481354007928 0.5409174248220748 -0.4466384143318308 -0.49274652154380305
Ni 5.060757561928357 6.348806622220236 9.259816258980342 -0.309745425825802 -1.060312916411974 -1.0899081135705875
Ni 4.695162309225623 8.875283219088857 1.1460630266399106 0.4459712130614771 -0.47479893592644684 -1.7594799410389828
Ni 4.276859430482178 8.624192680940126 4.86943704021828 -1.253875332585589 -1.3064405082768147 2.80707129611923
Ni 8.684948561677922 5.715817956469544 2.0074739178342296 0.019973614908449473 0.050897043960183304 0.5782354445462429
Ni 8.318077594943949 8.207944076996988 6.051965789626166 0.5626612442570696 -1.8187693228279191 -0.41908415886264594
Ni 7.181059943600541 3.4807857342378425 7.352316110069281 0.2287021972995416 0.29199710070344553 0.12520552486577147
Ni 4.442448987787152 7.204088457914466 2.911977678583812 -1.7327232417704288 -2.6613594237699907 -1.047176636140332
Ni 7.714505393913609 1.1112407237121782 4.03493714890796 -1.9931677644785737 -0.46824622240959357 -1.5299141101875653
Ni 6.931460865238334 0.5710996507851476 6.554912294342373 -0.3624568972869048 0.4528663975194136 -0.04740908541158287
Ni 0.5728603237532631 8.629098551810262 2.36535954287317 1.9023972813622203 0.8391383949480451 -2.4321301503223856
Ni 5.14226255617426 1.7014554484154176 1.6695766680097668 0.8569908497484338 -0.22235414359432673 1.9650308970330415
Ni 9.139008954297001 6.564749362758264 13.645294296997383 -0.5769038702190129 -0.19074268733663277 -0.623363961453765
Ni 0.9268615871720829 1.1430491522411064 3.806802897146385 -0.3435040103334858 0.2065418591524185 -0.5392266673832133
Ni 3.65199406143041 3.5169653593738133 5.144853381287704 1.4889834334114744 0.05328611301765016 -1.319925944357759
Ni 2.1591084768724724 4.97237684426408 2.294381065435042 -0.8276435069345681 1.2053354760036725 -0.7383316106416123
Ni 5.241646307357978 0.8996532333558018 10.963193720667826 0.5446280409044426 1.228033946042453 -0.4550716327008485
Ni 7.276635313191001 2.334960027928744 11.459727886327007 -1.4083513242807038 -0.6244407394577117 -0.15027480912957344
Ni 6.244273113660409 6.510343911425978 1.3927326528553818 0.3420112278380433 0.2905932783773834 -0.4526087729826528
Ni 3.897381407439481 1.6640563907495858 13.348213329997435 -0.13585786237329506 1.583611856821337 -0.3362421865647499
Ni -0.10483461459220092 3.2471518417665917 11.535567209434168 1.7811016330738163 0.8555638874939202 2.2534878457937126
Ni 6.900168350472039 5.997169181859302 6.2275040403247655 0.09994572185771819 -0.46123302431655405 0.4858873325301245
Ni 2.8724202253401248 1.3436270429028787 5.180548985511821 0.7993932538396232 0.3560815898881803 -0.1357123379343663
P 5.686570336253325 3.2591773225610727 12.991988009249152 -0.3139239826835239 0.8864631481759377 -0.8484709852028807
P 2.371242835817241 7.585114222245064 1.0490946898903397 0.05318506866341163 0.5808137467963803 0.28419174572641376
P 1.102263824242351 4.82097960555665 13.791823185835598 0.19623353524787493 -0.6315243857773705 0.1731936227092759
P 8.510044415894852 1.2751136952251165 13.200571943481975 0.013969317695898523 0.708263073391006 -0.7960369357728807
P 8.825380287866828 7.30652079042284 3.723221115499625 0.10970125858258527 -2.3073989939898714 1.5701359338220895
P 3.8235025566303276 7.232501235860242 11.10667496620641 0.020655985687454748 -0.46659068908404155 0.12100459941054645
P 1.454088869607879 8.20972632454063 8.448353324209153 0.633157036284787 0.23572773668775532 -0.09883474818172655
P 2.263566943430462 3.034304583804366 3.5328001597865772 -0.1096521505122047 0.267820503457242 -0.43239218882546177
Ni 1.8865746866986368 4.962246174015999 4.706707521208343 -0.3156659050752951 1.1311833181702906 0.16145345145421228
Ni 8.063985376721712 3.7702133550753762 0.0445458703158439 -0.8176794537433207 -0.6713255769347084 1.3275618636364621
Ni 6.267592415731454 8.272461438076894 10.00764545224326 -1.1249517354382819 2.0894519783243046 -0.26336401034778517
Ni 8.87673715787446 7.311389140292057 8.504175193326125 0.5774270897123346 -0.6765269186299897 -2.116665562624619
Ni 4.318535882252755 2.95257446355295 10.350786261946128 0.49372302652445943 2.336652748648666 0.9656564679776529
Ni 0.005992103846735261 7.07889963834883 10.671384454296971 1.5851979703615346 -0.05088470266500914 1.718231990132789
Ni 3.600965500180817 4.402423460057003 13.022480388670854 0.5812965999700699 -0.08786462232346803 1.6344536220635528
Ni 1.0737009622929006 -0.09278568317214544 11.105562468529168 -0.0511685524540151 -1.3184516738050778 -1.1905596032460786
Ni 7.374593266339805 6.459427913179142 9.975217927199173 -0.4593946855562346 -3.0145096989439892 0.5232860848935568
Ni 5.562507146715253 8.576953740783335 12.180923735112726 1.4868280776313683 -1.1093366546088443 1.6735665289046147
Ni 4.9338333960702245 7.637587342030033 7.070406759790855 -0.7797094022574508 0.515990322563092 -0.9090646876255375
Ni 2.582457930239498 0.3941431062518173 7.378786238192484 0.092867217744382 -0.3704034058274911 -0.09611272126487319
Ni 5.253502943648326 1.3360478007172774 4.499249217003082 0.6979838029521851 1.3543363035168288 0.09986473210813769
Ni 7.873444353805723 3.0713002907103206 4.919286504013998 -1.0014603650501397 2.1227305378717762 1.3818316807236202
Ni 5.4084365366923555 3.531101396469978 3.3295019965581907 -0.15738750891495476 0.3170717842838862 0.039183355067680906
Ni 2.5910502394499075 5.720742587840139 9.548961534285962 0.20604975000734835 0.4499044866776123 1.109173903778735
Ni 7.629267060076284 5.14320058119723 12.014610960515041 -0.2791906929673966 0.44265089043899253 -1.1942241965818592
Ni 8.098373374063808 1.3525007596201792 1.6077139177448654 -0.4883604766609654 1.9822212927693987 0.513547003228922
Ni 3.928992850713585 5.195645560231508 7.1007612495341785 0.6642792116108882 0.7689099976491015 0.5851314003351278
Ni 0.5640907278135123 2.632407762712675 7.653433398743071 -0.5141062181665017 0.05287139407773475 0.9032192845883541
Ni 6.498290289880807 7.684816901936594 4.28814011940842 0.850335034994813 -0.8209565818326958 1.7482830438818988
Ni 4.458798763937527 6.918628682924097 13.150736550061602 -0.4827259040830074 -2.163254980348384 1.81256833622353
Ni 5.002121617742474 5.199200675068566 11.295708582910484 -0.23230354149755475 0.05486014237298939 1.4871247829361807
Ni 7.668701632041961 8.795063319124424 0.44444751218367684 -0.6944356805896105 -1.5805350176682262 -0.3966456273534717
P 2.7759443517276137 1.139662881908183 11.359617165750485 2.2808587816074977 1.0041631086932836 -1.0627757761301697
P 9.110408571346632 4.572121566962588 6.674724354476344 -0.8407785016546294 -0.5399463191580572 -0.7334079480877498
P 4.380173506512143 5.337024691693615 1.460224491283129 -0.3173965146131566 -0.06579298723540927 -0.1571705078081422
P 7.3241087596035355 3.6828738451865974 2.3980075037976567 1.2174656836083033 -0.10937498559141809 -0.3829383050697082
P 0.5769388565531387 5.052531082476905 10.374894443061493 0.9497613940139515 0.7687575312316373 0.5296657631676556
P 5.942032071009098 4.304981420670832 9.66701667355191 1.7275337271496893 -0.4877369841443535 -1.5227196493216548
P 3.076900300097454 6.54836206560697 5.62919697374836 -0.7263353575116845 1.9223325868335666 -0.12279665831396269
P 2.277412192769506 3.07227583673421 9.09623595127457 -0.29843437168835696 0.07790802533138841 1.5142869451732694
