# total energy = -340890.35074767604 ev
CRYSTAL
PRIMVEC
9.09456279048998 0.00000000000000 0.00000000000000
0.00000000000000 9.09456279048998 0.00000000000000
0.00000000000000 0.00000000000000 13.31081193637925
PRIMCOORD
 96 1
Ni 6.269100408273409 2.2174908695296724 11.30022710111669 0.6923741700748914 0.0749402009523161 2.2857950425668503
Ni 4.729518249934264 0.46075146899581315 6.041365280084787 -0.32831958928356364 -0.4792315177765036 -0.17540682831051083
Ni 2.7307879940211324 1.7693653820705622 4.857900736259056 0.84510258295128 -1.6094789543960861 0.00934904531506777
Ni 3.1027465180214198 4.239375882334286 4.821961752438133 0.21219288679060874 0.8503250076924839 -0.3068043409196071
Ni 5.100067116700388 4.646903241449494 2.5542916326536473 0.07730818696386041 0.217975812020973 0.46350382262860174
Ni 7.427829560192835 5.801085111968393 2.4097490176876635 -0.8108310633629197 0.9193449865056232 0.5041349658864027
Ni 4.889691689986418 4.682408414624807 11.240288475520067 1.0153121833315675 0.4326019908434227 0.6131857353691827
Ni 5.8488679449251295 7.8083642569145155 12.30722984291358 -1.3305857380644504 0.09491921517740427 0.3123730932566362
Ni 1.8253333215482452 6.626725901299236 0.34072506697262933 0.37555178279765 0.0939005441049028 0.11779560555494552
Ni 3.029116937584091 1.4820499540596797 0.5497826915367264 -1.2219430026533666 0.4744726629352796 0.801058300246872
Ni 0.8376156001709888 8.96872133557533 4.935942089111176 0.23861405709661487 0.9891175272140706 -0.5944308233591826
Ni 8.475286736241372 2.3082727954097884 1.2940908057377465 1.2612618548576473 -0.363680999501993 -0.011207181569729085
Ni 6.7098956781148695 0.7229495334627459 4.718815768429985 -0.9918598658458984 -0.5690092979622846 1.2178361795738446
Ni 0.7842723515176896 7.275650240842807 2.6135117877889873 0.49625582024864207 0.7941309769994195 -0.41777366758133855
Ni 7.761172570539848 3.5894875191338036 3.5390518022080015 0.13405011974059494 0.577462056715328 1.0930399743313497
Ni 7.507215998883231 3.955643712067019 12.830450954333552 0.1650529958800125 -0.25883706901170905 -0.33342991392693544
Ni 8.107193401431532 9.009128478100411 6.785399647945495 0.3481965307131487 -0.18990630747826648 0.0855799400543494
Ni 7.111202356274156 0.2544231227283122 0.422533387736946 -1.1740464360824039 1.5993058705178262 -0.6118150802739011
Ni 1.807571640397788 6.6235973716956735 9.385200472855615 -0.879937431242278 -0.12736293752840647 -0.888236952246909
Ni 0.18697420717057897 5.1472951813262595 1.2512590527699048 0.4097374275404233 -1.353512779174269 -0.947145039437027
Ni 6.530314441045267 1.9284747582749933 6.971351626257237 -0.8949421321812264 -0.10509949814451577 0.5628039404825211
Ni 3.2980431596112427 4.524072076258466 0.7347833785794767 0.06630155144071162 -0.5246035181533998 -0.8470337385357218
Ni 6.163357926585559 5.662665866136359 4.556251367817433 -0.014124612326840192 -0.5164433509401105 0.5799771098276979
Ni 5.166184588264048 3.0291987886493 9.341807585362949 -0.2814218962907605 0.1959455716938109 -0.9703528450120579
P 0.17551505804125156 5.454173013922207 12.303822110232025 -0.021601894540491832 0.7304457801356323 0.6216148399731424
P 3.8529842871687268 6.133727840979727 12.6426755161802 0.8419318985327823 0.47654265809043084 0.6107125912383418
P 2.4047933904173697 8.561475907906955 1.4351183721811231 -0.41882242056082714 0.08153019546500798 0.31347352540966655
P 6.594094609969055 7.781780849847036 5.648003611988501 -0.7025415975261965 1.1101452665530687 -0.9255914816359673
P 4.961220426416704 0.8664881086954933 12.796415462506888 0.11507023620398248 0.3687051921894618 -0.2529669833841772
P 4.224779109038595 6.106671516646592 8.169910415963876 0.44908224788663303 1.627079441086669 0.90359080899516
P 4.543807277536752 1.2246465431014621 3.734188379492526 0.8713910843341638 -0.6080774676083399 -0.5622922909534253
P 0.13991166358768725 5.503201801982687 3.709403876947095 -0.1111315632712086 -1.2320664642406136 0.29132295745455633
Ni 1.2634348534479554 1.0091326884048972 2.757933445069717 0.20179997359205892 0.22023375481721427 -0.8939126624754475
Ni 1.9050653536250814 6.526412873603615 4.906644864503862 0.7069836924579502 -0.08815669964259011 0.06549653904091302
Ni 6.25901453812704 5.870995016220092 9.138497724489117 -1.6172174606909244 0.0052399082427006536 -0.3281231570020413
Ni 8.669955852997923 2.5684045752083224 10.37678974961728 0.9294761614023541 -0.057720751750236075 0.3427038830296937
Ni 2.3726441109156453 5.535023677223574 7.293020855792818 -0.7832212720654511 -1.126853323336369 -1.3263770992997415
Ni 0.45674167625682865 9.290550629416211 8.983267179319336 0.6276096241039966 -0.2450580129497457 0.9908401663321321
Ni 1.6760551677317532 1.1352288016415042 11.834283474657836 -0.4355890984962047 0.394762551398146 -2.253593261023325
Ni 4.01124786903266 6.7466559009567275 1.810922986789976 0.09873627493064932 0.31209978499059154 -1.0290359606755632
Ni 5.992643888246984 8.165962466251939 7.902762180964331 -0.2896124025213529 0.33796354013123087 0.7315181872642047
Ni 5.2831315713227935 3.090005035537144 4.74718170980647 -1.1413219492661892 -1.2405264220825087 -1.5147181191734171
Ni 1.0280675681566906 7.53474524048202 6.967079000653302 -0.10185013796928266 0.6741555901843358 1.0147802220874975
Ni 4.6670022252398216 4.863581200184594 6.533838584130675 0.2510057458927483 -1.0659076368909322 0.06762386979656096
Ni 8.297242480285146 7.258525179088422 9.116695329086152 -0.12814686688228252 0.3255037171013233 0.01432155882899469
Ni 4.69089364171819 0.2633085105849415 10.43652829483228 0.3924015073651371 0.03196215472889335 0.31991850970406194
Ni 8.649011074867095 7.1061094011055665 5.043466195651751 -1.6571250955191397 -0.6413655402375082 -0.1987293050865352
Ni 6.980922744149065 6.162839536505899 6.85726488319942 0.9857108155253668 -1.6173748122043954 0.6480527224496969
Ni 2.16446047383673 5.3440196692758475 2.684404814279479 -0.05601431058209063 -0.9535730544505577 0.5428804620857166
Ni 2.292821133210799 5.072856184799636 11.493273747869534 -1.205884149418291 0.06314732208244608 1.2348535400674476
Ni 1.031505312895489 3.1251282370748124 4.040416860304479 -0.5298999906656486 0.7893772643645178 -0.8328114242887527
Ni 3.432697256443641 3.0022515990697785 2.7181347287960267 -0.6456222586313333 -1.2083706632855704 0.2965590090425151
Ni 1.2100588643685724 3.456588672922009 8.412246864729589 -0.4832457811422193 -0.16595339620709482 -0.6437834056503816
Ni 3.8508379703476785 2.4520669278572456 7.098336278279507 0.11892740516654358 1.4446200768047506 -0.5776104093677343
Ni 4.379668608103338 7.119087342222669 5.988214836162871 -0.2663722010464896 0.08815284298784819 -0.16846459266472277
Ni 1.09867775374407 7.539438034887363 11.509978640822508 -0.5083662303589309 -0.38171574551651677 0.18943579559975116
P 0.08799535183787331 5.746208520026837 7.84664418120043 0.30118210963682324 -0.8593398095965846 0.4402733913457514
P 8.643245122051226 1.808126408728652 7.858569881401451 -0.35571855012180675 0.128779615370275 1.103671485903267
P 1.8392934754478625 3.137551409861052 10.548632423199466 0.057722037301816714 -0.10913535877678623 0.7137148405341965
P 3.9126900919576433 6.09301148331941 3.9390552295178973 0.6210777365227497 0.3863162204030057 0.11189183847600084
P 6.860092382774268 4.022315951961542 10.172229386358303 0.7026454700939124 0.43624344425075195 1.4141710162862742
P 6.368322088432902 7.813648197901927 10.223635493134978 0.4211518400249521 0.16997331599976534 -0.6437127003134462
P 2.739073140732892 8.613796927701417 5.987908349396474 -0.7938270726057554 0.11153111270247243 -0.20590833933347763
P 6.798122031847889 3.673330293596716 1.6058833400713843 0.4184380406382149 1.3114503027865803 -0.613686586265001
Ni 5.022481401444601 2.792985709017538 0.8628293660806295 0.34934349983339835 -0.3166200414584483 -1.0855899458112077
Ni 1.56673852286309 1.163285527882754 6.996948273260801 0.06592719882042838 0.16845713646555505 0.3802219345798097
Ni 7.0651747739380255 1.2228731033552567 9.453471536890564 -0.7736590822983127 -2.0482096838450663 -2.0931065443577563
Ni 3.0074900672431855 1.7579880840064441 9.316622922054272 -0.7639559960779359 -0.8265888404178088 0.34023510977422694
Ni 6.566656313998276 1.6907701703438576 2.5530274884243007 -2.0752389200487165 -0.5116341024769253 -0.4676150165834979
Ni 3.8582955118445423 7.019129002476291 10.649621176911204 0.7220526709759306 -0.5478596604678629 -0.3658147580155442
Ni 8.063448554358464 7.154210543760339 0.22543420379995413 0.42384327081418616 -1.438512678355432 -0.29628132990109624
Ni 7.567422004626205 3.9455851256090537 8.095648763411875 1.1058458678467666 -0.28974635699605583 -0.49219810523950075
Ni 3.077718281192921 8.549925813149617 12.587755270337198 1.520274273104956 -1.1204664459734186 0.03163099664171972
Ni 0.04752454737318521 4.896876394599251 10.11306197968721 0.24217452075436355 0.4311444324612897 -0.43074231192686463
Ni 8.49556761128772 2.366232444140903 5.761744761659876 0.36251140467392406 -0.5970955146755393 -0.7769531796685523
Ni 3.9387460143826614 2.56683121584374 11.760395608636957 -1.2764506467829437 -0.06960439056169948 -0.3687108486164166
Ni 0.8214818457619198 3.1464367977176813 12.842391205835053 1.141591657987808 1.4869900571305292 -0.4751858869522204
Ni 3.496959437195885 8.345862013019579 8.374470779222852 0.26657274709306994 -0.29527911388882694 -1.7058850385316622
Ni 5.528502875695217 7.810665181303182 3.642157770139825 0.37761972107027225 0.31630996641719716 0.06544151743326149
Ni 3.09160567859013 8.408241619272005 3.5949842728907604 -0.17047699510906122 0.3191818886483535 0.6022927426057627
Ni 3.294450807304827 4.658516998146439 9.487467922097183 0.361449539068313 -0.6881871285767375 -1.1782527608542677
Ni 7.302433728291909 5.941286892109435 11.290310389838421 0.05962568208243279 0.4062229866292617 1.0498546971931273
Ni 0.393614496942156 -0.11192041819860478 0.31517571169562975 1.320218021676881 0.34724393699189227 0.44324764348272694
Ni 4.676633367246138 0.029145345408536177 1.7499457621214725 -0.02316152571812785 1.1146935480453835 -0.7863006823217231
Ni 5.963677705725629 5.660310374370887 0.3135214107221181 -1.025026582405854 -0.051616952845343365 -0.006016381397408993
Ni 8.1224631723745 8.632522632508786 11.308013865786954 -0.259672677539127 0.7545149052696942 -0.05658586681484448
Ni 0.01135547111339541 4.632652061540243 5.844271552885476 0.17072999166013178 0.9224585924339405 0.5256407011686625
Ni 8.051216367391048 8.605839185250495 2.5983102260670266 -0.9185651709168051 -0.2298702494657138 -0.04608162484941096
P 8.349554405516805 1.3181841215102974 3.6644267166144844 2.765382401020876 1.5938327632183968 -0.03714215626793603
P 1.5564616668978992 3.3127399730977456 1.6514725644805055 0.041691980422147557 -0.6203935659715315 0.07447688816265238
P 4.948215201611198 1.1044346119971369 8.305666773807763 0.619312674202527 -0.9505178125640016 0.5096695225513868
P 8.604111218318295 1.5190375409715644 12.306484998220174 -1.1364257975161525 -0.767217440438027 1.0417045572821673
P 6.257432084199657 7.58403777086373 1.442825104698736 0.2445484203031788 -0.7972972905425431 0.7663810605796608
P 1.989326477976842 3.258972917817917 6.311361022697343 -1.3918191309536352 0.4854250481817252 0.09052494276445054
P 6.525303336941887 3.933689437465276 6.054822504661507 2.993477560864038 1.1110094143255769 0.9039067975736821
P 2.366232444140903 8.611195882740315 10.123218787423426 -0.6082523026233073 1.467190505906099 1.2883332571531423
