# total energy = -340897.38682989666 ev
CRYSTAL
PRIMVEC
8.99438219245674 0.00000000000000 0.00000000000000
0.00000000000000 8.99438219245674 0.00000000000000
0.00000000000000 0.00000000000000 13.16418750475166
PRIMCOORD
 96 1
Ni 6.46517088166822 1.9127003354769334 11.187307854928244 -0.1297836311547571 0.7810186079871775 1.071078382458594
Ni 4.3978751058481125 0.3860919486052493 6.003593580894011 1.154709940537321 0.041279575475077296 0.4043075147741037
Ni 2.786315679035933 1.5873735332188126 4.685278894659705 -0.7034116588359757 0.5932095493575719 0.6373078252283669
Ni 3.2773729667352516 4.407544066656171 4.986818254453572 1.1226308006145893 -0.32592743490230325 -1.3908706509974367
Ni 5.078048272570911 4.2489551206397165 3.044876283178426 -0.042344526404481914 0.6583085958497501 -0.8342283592409375
Ni 7.232229779931339 6.040195319603139 2.6944065850664938 -0.40308572655186065 -0.5894004600241268 -0.6630566520576968
Ni 5.154050801713325 4.5726449453470766 11.355019802756434 -0.02848113815882837 0.12908069155046156 -0.04586102419817263
Ni 5.7190149275148 7.749865466875136 12.285451758900015 -1.3368072934941302 0.38967973755859986 0.015649019391166596
Ni 1.885339424985664 6.432071555367144 0.3048106165807425 -0.21768784846690897 -0.11098115373627339 0.4024864024049649
Ni 2.697550121626881 1.4185219971725946 0.30031882213651506 0.012718476007932935 0.48113233434364233 1.2716853641838164
Ni 0.6473094932339754 0.2546849248753373 4.610427646432112 -0.18063079571361149 -1.31757621317866 1.5851977132512183
Ni 8.396777408418211 2.389474544326766 1.1431832725730295 0.6839640916343253 -0.24494539863128134 1.4992938141985468
Ni 6.844392021751351 0.6206735299437569 4.778481380781888 -0.8572582444772076 0.09990921219282795 -0.7368421705802795
Ni 0.6721115020044142 7.347159995006105 2.718312753375088 -0.13552490451390853 -0.5041843310670994 -0.337585845076838
Ni 7.592814560205823 3.681805359976513 3.750872321045351 -0.17797844569242896 0.7961318094795321 -0.16494989464324497
Ni 7.582731857819001 3.781139316408326 12.590505223798727 0.04551289683013452 0.7395585410701779 -0.9927296700453613
Ni 8.102912954910407 8.98469519745891 6.701624193931524 -0.46109058520141877 -0.8450604168594349 0.4546751685933782
Ni 6.8388514823487805 0.543697808653034 0.23940796679860465 0.06184145878682897 0.5030746429426884 0.3026180707524014
Ni 1.7406827769149604 6.51952393298273 9.24264148530076 0.11594312572723901 -0.3726127547739841 -0.7640071610308454
Ni 0.2413786359270192 4.991450361259294 1.5187913693476993 -1.1844930853370246 -1.264850343539854 -1.0940506749840513
Ni 6.386640931142489 1.8620889471355884 6.957220249718356 -0.3426735440123905 0.2999677776137479 0.3679680569131211
Ni 3.3529887374453433 4.32059537444082 0.47839949370380175 0.2875408647043048 -0.21451150762145638 -0.01318050324601601
Ni 6.0515462298726925 5.5939300549960365 4.863311896001612 0.32473367170451817 0.4489608918174203 -0.30705759458099374
Ni 5.2684143707128275 3.0208891654305083 9.184495503034848 0.9095683667348335 -0.5128556335888522 0.059532608147994256
P 0.19323530604681965 5.405128979347702 12.384604028812458 0.27862325049970077 -0.06063406874228911 0.6818326471136192
P 3.9970224767013702 6.208992889356475 12.590794842903861 -0.4454420800308844 -0.5085968583124983 -0.5028473574232307
P 2.113167124769966 8.238431310719728 1.4845389632553747 1.3507922949193125 1.1372248963786802 -1.172463150755684
P 6.285804912892122 7.66683832527589 5.879428833668888 0.8258627608850616 0.3416453598581923 -0.37703633776297646
P 4.773678380715372 0.9904163901203477 12.58119783715298 -0.16973780295019156 0.11305629109774722 -0.6725306529864031
P 4.197651164873049 6.140671562567625 8.049334319898756 -1.2321204574070006 -0.021887286991394566 0.24530303908101625
P 4.748494110703685 0.9815389349412278 3.757625303161342 0.1384922146723486 -0.3689345345914485 -0.08564087519927185
P 0.12573696522442354 5.47248790724682 3.6877893224189324 0.47542654220811675 -0.1829913255259881 0.600180067138134
Ni 1.2542486016392156 0.9784178843362079 2.5606978989451568 0.6328896415560132 1.4234699250896967 -1.4261950373303436
Ni 1.8097866149506017 6.5238952027061865 4.801979204141007 0.22541735590068276 -0.0572731226898562 -0.08722724584978526
Ni 6.034393943118304 5.710919983582472 9.129745799467653 -0.2629791162045406 -0.3881363043308799 0.5423245895822466
Ni 8.724739564645413 2.365639431637134 10.099091050532152 0.005186429296945907 -0.030916744183514495 -0.2388963642237241
Ni 2.4179057862935323 5.328280978283467 6.909013059724913 -0.48663140978500063 0.21509231982559085 1.6350434331287518
Ni 0.3896888020258471 0.10025138341081045 9.13580171696725 0.6115931940710821 0.09782096220523152 -0.4386232573368381
Ni 1.5355299145233245 1.1721478814011141 11.339960508727659 -0.396826118795394 -0.35071132671520244 0.011732457945579795
Ni 3.8460967442741856 6.847899830788693 1.759907369316025 0.9520926132502894 -0.06771977194447691 -0.7783091794758144
Ni 5.444758227087522 7.958580104596996 7.947259775226743 0.8095987336177155 0.43705539862908604 0.3689278497232291
Ni 5.051182053097729 2.7836173643918234 4.976707669482095 0.7991631401066881 -0.4222309320217438 -0.21575977820626066
Ni 0.7283668651430212 7.266534353440116 6.930550107775979 0.03286692593134985 0.5866102988734995 -0.04398771843485973
Ni 5.122201694530688 4.532485029060583 6.801909755994494 0.12233360263461512 0.5846387769694255 1.0701440435697829
Ni 8.223734490291477 7.135836986461605 9.249961113492017 -0.522044756287288 -0.820071351014265 -0.7081527730653869
Ni 4.693727317810412 0.4137271877520029 10.395653818684067 -1.0496017006420568 -0.6066782732679681 0.10455211028147801
Ni 8.167330719847444 7.265652903989708 4.65834521732042 -0.45003561293883787 -0.055067887508421294 0.8589780553817917
Ni 7.192897346802372 5.997229156086771 7.0889016021037525 0.5063420008400505 0.5404821370568692 -0.7932370044302403
Ni 2.2751919247665873 5.113782952841066 2.6051400405718526 1.0276545069470044 0.11792878869870013 0.6926737035931813
Ni 2.3304983805886827 5.131169093531278 11.351070369555671 0.760623332160277 0.09374910612870306 0.504419329896041
Ni 1.087798565626255 3.3865827547645058 3.8138096106809876 -0.0905164581240183 -0.42320795122303245 -0.03411699628836705
Ni 3.6050023308230124 2.464919421776065 2.5468618408883783 0.20082372572171864 0.1880815955647019 -0.3304757163946179
Ni 1.3096450012827812 3.303843433393965 8.098410367207602 -1.3087789266020042 0.9837503493648863 0.7798153317076957
Ni 3.712494191862183 2.827509949269336 7.131922631351218 -0.9166892940503308 -1.380497535293229 0.2987727288643822
Ni 4.1591642036659024 6.906174432719308 5.943946436247757 -0.1850024424187459 -0.0977245458366833 -0.5318056923287938
Ni 0.8113922078658373 7.230170066419669 11.36330003096099 -0.040384060244001416 0.33586989082699575 0.2660482420481676
P 0.1667198674773715 5.470491154410179 7.968242769337552 0.628858151799117 0.22736779475883426 1.1406184954412613
P 8.488969825425283 1.729331866645407 7.908529965701626 -0.25588775657539803 -0.4899329633544079 0.8835130644086784
P 1.9941444658183014 3.247790443853666 10.210341663870567 -0.7104179149504797 -0.6263909212055471 1.2273317777691057
P 4.014399623009435 6.068446673926964 3.813954420233555 -0.4057103086589013 0.24745633797859315 -0.35517656157540767
P 7.048879299864107 3.986544021500079 10.29280215939455 -0.8726668657227938 0.16795679979036882 0.7527866097246777
P 6.2095595354317386 7.7328570902350995 10.135015512265609 0.6544043756993375 0.032543481153660084 -0.3665243824880591
P 2.4185893593367065 8.451373308050693 5.891789813053553 -1.1673579683186348 0.0687988639412686 -1.1661557204804174
P 6.752010722719193 4.038585516602802 1.5774518302724223 0.7258645885228531 -0.026039104376239023 0.33971960359038916
Ni 5.3888131701329876 2.895057759193541 0.2886000416371481 -0.6017985765781636 0.13447692286536841 -0.12368677422839988
Ni 1.4052013172128415 1.2044287189268095 6.873364725523368 0.9715170405234881 -0.7816631835497119 0.18104371488131402
Ni 6.828840735019134 0.7467837620272824 9.199516121220391 0.08614763963236131 -0.4281655523386239 -1.046692497415062
Ni 2.5180402427364315 1.3880490304584525 9.13114082813866 1.071383829514155 0.27284958124071723 -0.3172311926798859
Ni 6.277602036374029 2.0166124324215855 2.4492233254912805 0.2805829453292329 -0.5753169853478672 0.6866151561039271
Ni 3.971082678589332 6.865232005186022 10.318643019302971 0.36734173618303184 0.15103019923835925 -0.0035707480703938504
Ni 7.985284425191533 7.074423345161676 0.2697064424990942 0.9217016596632577 0.3102938421301043 0.41408413454489335
Ni 7.630824819159177 3.7885326985331855 8.20627819342052 0.27991677250014374 -0.07211867234312096 -0.7353411605547207
Ni 3.094184385546666 8.365054222585634 12.366331941480764 0.4991364842305469 -0.8198702907470525 -0.19692336222604795
Ni 0.2421341640273698 4.7186057788291 10.258469703301117 -0.7359453697976228 0.36717127204343863 -0.63101967822681
Ni 8.630883186941142 2.3222505321598548 5.735912673254427 -0.4112011565701434 0.4104876754428866 -0.5990094438688006
Ni 3.643345381915807 2.7238047231140654 11.58466886492551 0.12373048298214175 -0.18014202900265106 -0.5450790123989322
Ni 1.1567764823118378 3.195712971222355 12.576235636522462 -0.46625156057706796 1.0874483391761853 0.1724050653697095
Ni 2.998367232534342 8.207265776580263 7.947851605572017 0.1175858035369846 -0.032267858894770234 0.607209720291406
Ni 5.553401369041513 7.7376510959194675 3.603749413389931 -0.48266933981345905 0.5830868591012732 0.22821523036079402
Ni 2.9030447705401046 8.386865599292184 3.5356898231215603 1.1314445422514772 -0.13035878693193678 0.48903204880669326
Ni 3.491897975324094 4.434949949058176 9.228871985671871 -0.061027190415649746 0.8518656127067264 -0.28319595747204773
Ni 7.268279263576641 6.140743517624801 11.322438552867029 0.297312599379088 -1.2526887684766557 -0.13360249068021507
Ni 0.475066175680112 9.103124227188871 0.2873759062269371 -0.14506935366923404 -0.7598607429626398 -0.29328779449041104
Ni 4.646884575588673 0.33075671076028357 1.519358015422962 -0.16152158568798633 -0.8261188427599255 0.5340322676664673
Ni 5.928799896712157 5.646232387181022 0.3838766322824355 -0.4367178127840092 -0.12787432994718623 0.34181813799063065
Ni 7.992578869112775 8.687313940531617 11.171788048533541 -0.5361714254966573 0.477602466813513 0.6089179612317641
Ni 9.100515856366233 4.736621526269603 5.881824937072857 -0.3075489323951155 0.2948528249846857 -0.3184902618979676
Ni 7.921874031054962 8.823084139041054 2.358561752325635 -0.6035505262722638 0.354051446832029 0.4276027378566184
P 8.398117571358119 1.6767597029960093 3.5171290161229467 -0.5196040080562793 -0.2870546690965056 -0.3563415284177863
P 1.7612439345030737 3.021051064309155 1.6092559655443248 -0.5279634357645681 0.7491096750937227 -0.4565937257723298
P 4.590894546723404 1.1149795884745837 8.289014816476417 0.5377791363034092 -0.029153224525188502 -1.0152522766279095
P 8.449565437239139 1.5992641064171877 12.200963929640091 0.1515639602546422 0.3922652388975889 0.33360706293474807
P 6.223266973823813 7.624258920191844 1.4700840917068807 -0.08690277263083099 0.37022677104031076 -0.22776631574883355
P 1.84848044694713 3.2824637870304714 6.034990270654652 -0.4378866362811298 -1.0938118195003677 -1.1174664828048304
P 6.910491736149884 3.7703820353604764 5.874570967871276 -0.062311713555028174 0.42501337986288734 0.28021373491527224
P 2.282873127120152 8.462166566627129 10.22172855166871 0.4330066824810091 -0.4487297496432207 -0.31118190116201244
