# total energy = -340859.93837988086 ev
CRYSTAL
PRIMVEC
9.39354962761764 0.00000000000000 0.00000000000000
0.00000000000000 9.39354962761764 0.00000000000000
0.00000000000000 0.00000000000000 13.74840939456637
PRIMCOORD
 96 1
Ni 4.285393648354355 7.9838219619453135 2.634222756550766 -0.35747821312539074 -0.11874537106272452 -0.26533810335502045
Ni 6.067988752015661 4.451809771496633 10.427590502154372 -1.0734011170544997 -0.12255163218269216 -1.0060775521071772
Ni 1.493931327178906 6.655611635244849 10.864047689872889 -2.5264775521567198 0.5617724138942131 0.6698705896557366
Ni 3.599063346860375 3.2090055969529514 10.94699179270276 -0.8072829410003451 0.9808306046149301 -1.5864238723488355
Ni 4.106888026991029 7.52516311995683 13.73499071217339 -0.7339730765626005 2.0636944097442265 -0.4534338399871094
Ni 5.29131129132195 1.4195719892474166 11.460440390925829 0.18048707104689563 0.15861341090225586 -0.040346007917214384
Ni 7.974926270558108 2.299221539684051 9.255896436766221 -0.11338950606744988 0.3360061592945439 -0.6722272628133713
Ni 7.464095654583837 2.0479816644546904 2.1153165060616264 0.2034601349033012 0.8107395320903779 0.2695876226599938
Ni 2.071907035059984 5.748720791225431 1.561434313322094 1.0258246528271173 1.2643662048145838 1.7669294553384924
Ni 2.232114021975289 9.151458953299533 6.353923702365026 -0.6191818050516175 0.2867631059980158 -0.4606483554576776
Ni 3.534717532707937 2.6309735277748056 13.291797410100319 -0.416092937444806 0.16969306575518517 0.9692120465393953
Ni 7.1175957937603345 5.919457947142908 2.3584431725780726 -1.6779142643503488 -0.6658995208231306 0.18157567612538406
Ni 8.602697184398613 8.3650403817626 0.33114422543737315 -0.6544483415633955 -0.34197600372473363 0.6103225548887746
Ni 0.7527624229928792 6.339565661936995 13.572113139132021 0.5814410959677341 -1.0748213944407938 -0.39735885137041244
Ni 1.3532065619500475 2.9102343611963883 2.42779011249033 1.131929966528328 -0.6154801878303142 0.4307829353568129
Ni 0.44859271433216924 9.245572925853297 7.8774531646991015 0.6505428358614022 1.0657541420322032 -0.47959224355003216
Ni 8.349616173465037 5.010040238304947 9.776315048726682 0.42840543626357186 -0.7430315872204429 0.40671895242907374
Ni 0.9671598576839507 6.707492209195786 5.351760661137099 -0.5204182764274585 -2.111415884189906 4.10091159913353
Ni 6.621437902122722 7.3683378108655955 7.114692247606389 -0.016258627950707483 -0.46650481423845463 -0.7625197778520416
Ni 8.598113132237097 8.106999576687056 6.243386047845696 1.2600135842728428 -0.5875901462882656 -0.1757474994793812
Ni 3.583047344943601 7.054903244321885 7.073804005293582 -0.2284188617311679 -0.35525009512582045 -0.12530142701368743
Ni 1.4492368186041173 4.863500865928592 4.244037607275885 -1.8524150359068225 -2.0001614221875874 -3.5299366928044433
Ni 6.369549871977082 7.853805843159343 1.1287467570224663 -0.04421886060905933 -0.17511012300569842 -1.1991116065811478
Ni 3.851345906085491 8.305776477895778 5.058300538274229 0.6579769235419441 -0.9879672156597112 -0.8610092268792074
P 4.970089472233369 4.0128492028333556 12.330343194389535 1.7257933474198148 -0.1443188486564547 0.3039427031010959
P 2.8946222819085996 1.1621793390881514 10.773033588657855 1.7749515543120205 -0.7220184753038855 -0.14731598361156564
P 8.308331523362853 7.327973728615518 11.14098174108052 -0.8451995135404604 -1.6640272219556118 0.02767946819313943
P 7.214499650518955 4.083460514509834 0.8607835455981298 -0.5256440436027721 -0.6171902285428854 0.699269354532828
P 8.987607269173843 6.825090055527811 2.22714577363876 2.2501865493346216 0.7243952030661782 -3.4218359459397583
P 1.8748679405108528 7.755314476533312 12.670574739624145 1.8978065766677445 1.753142171746413 0.7313916889886695
P 1.764756753139337 4.310436851351494 6.187828838616035 0.4351347845676054 0.5610239657639629 1.2352893420532856
P 6.731774534682509 4.206985690583494 3.8924633510063744 -0.13039478237619478 -0.18400613994374762 -0.2501755366819691
Ni 1.3962102316128011 2.3081172310712565 10.165326357218545 -2.597308873146985 1.0749921156907036 -2.379241015632838
Ni 2.8433710757749204 0.8103260943981555 8.367652727881694 0.4326788668279452 -0.9982878808594291 1.0869107215051603
Ni 4.448747474355947 4.497481209220597 2.4662717274183414 -0.5232233499764215 -0.5683469817879373 1.9094901836532596
Ni 8.407668309444903 5.029757298729177 5.078290950989236 -0.04254558667169447 -0.3505007533662931 -0.17590716498569706
Ni 3.691693138591353 8.817302216533886 11.643184381828657 -0.7829384507177096 0.9874360257465897 0.8200068163249168
Ni 8.200493574973072 9.224568949146018 10.100694979160963 -1.0254474719933564 1.0051748377872494 -0.7264680264348069
Ni 8.138768561134288 1.3121943247836905 13.3983475028521 1.71139542682693 -0.940370953937987 -0.8360121906142377
Ni 6.324564163367442 6.4688772645096195 12.090446969550026 0.875044621926351 -0.3335073041320901 0.3528150033217666
Ni 4.620198540036284 2.0099565760329283 1.8323189186444462 -0.6543182437434345 -0.13790446048967864 1.0440938834499502
Ni 0.029374568676801497 3.5940753720698724 7.163141357920847 -2.0959872083396616 2.7118908568606392 1.2007609692591128
Ni 6.631000535525231 7.171975051881278 9.59051909358763 0.5896917660123004 -0.4150709239381948 0.3731714554909315
Ni 6.087339464008949 1.878907166800714 0.08844214735883774 0.19630758301891998 2.0667591647124794 -0.3444992843672196
Ni 3.419571402798362 5.453866665615082 12.70908453520069 -1.008664853218379 -0.6546648284495757 0.11974604441309698
Ni 1.9756043654700866 2.777522293700673 7.6278928561223625 2.3337183486106907 -0.6294495055262127 0.51207144712466
Ni 7.653065690102758 0.1377441919689214 7.704375136243407 -0.6863431333894631 1.3915080274711196 -1.0697830606859384
Ni 9.194584739105935 7.081158215205982 9.019093507780784 -1.5430761014908199 1.8933421131384875 -0.26059596068434476
Ni 2.68291046302281 0.7740190861820111 2.5644906811085453 -0.03818268171730843 0.1470215922995984 2.38525122638266
Ni 6.156297510971438 0.15333184802798075 2.5354815215077338 0.4501785662746053 0.21259500732503386 1.066371206790912
Ni 1.3032516656489281 8.31386432402501 1.4359252195916472 0.21698156642850375 -2.7871966686824905 0.8515061724847787
Ni 6.0068649253455995 4.665663319671 5.994773548414647 -0.07947768381135345 0.21296036108425256 -0.32952312267336153
Ni 7.338212697582841 0.5857422946170251 5.1118512853282745 0.40721774644236325 -0.9867587971739069 -0.9294972444482766
Ni 4.103017884592371 4.0665427318399745 8.558467656524634 -0.10550856065747635 0.6002769977273146 -0.7585960173176033
Ni 1.2917351739480682 5.564710549848479 8.44262358588637 1.1916111844390447 -1.7465830304716565 -1.1803695500869542
Ni 6.026102914744752 2.033637714350928 6.4273671692191625 -0.55737942703284 0.7677195768854261 0.19142557233627033
P 4.718173261439194 0.43617444187822413 13.547160114210191 -0.8308139342427497 -1.4961539830179846 -0.31095281587034185
P 3.2383040778787118 2.9632515546381932 3.6417607868090607 1.3868350474754827 -0.8304059001710536 -1.664931478937436
P 3.129432839042688 6.289526223690275 3.395472251527109 0.2893406369172049 0.802056145383767 -0.671586801015895
P 5.3538911181662625 5.962442829706639 8.01298517575811 -0.7607662854960446 -1.790997809141606 0.8972751511897773
P 6.219431557236918 0.2710687188927739 9.149222349160892 -0.9156171440320747 -1.3496448115784303 1.410731651587422
P 8.295236915344093 2.1538751480956306 6.401754717121639 -2.348287247563801 -1.6464385623395712 -0.49402333137369764
P 0.25928545038579304 0.1722758193274293 4.968537657854101 0.39266273144632374 0.4033965729240601 -0.2170728405907294
P 1.975745268712756 7.722981879115401 8.397486641129598 0.7045465437713673 0.11479229995224746 -0.13368168065758268
Ni 1.1869219485009284 1.5669379939807677 12.34604357304273 0.10860416886366459 0.2822685605617719 1.1079888823316983
Ni 1.6390053058314986 8.10185191155486 4.045717232573411 1.4391572539179667 2.631668581573777 -2.948313305622574
Ni 3.273201114313209 5.782011530693495 10.016348419389054 1.3092561233487388 -1.2838040018242214 -0.7966352314785119
Ni 9.219505825959427 3.105159907105476 0.6617962288803539 -0.3679166348498954 0.02741258768499795 -0.2897445572238429
Ni 2.531570986846177 0.43608989993262237 0.42656108330835474 1.782382556668769 -0.0466125576522165 -3.0334337895420016
Ni 4.788455798882777 1.0449572347365776 4.294494119120907 -0.7043665665500772 0.5760500068591499 0.32628404691077356
Ni 8.039478742799796 5.882747955652728 13.714313630989105 -1.090581228378212 1.2581431067230076 1.381197389573731
Ni 8.489955803163932 7.238152608188422 4.1057833455685 -1.9611246200000996 0.005648199424712854 1.4084251149414324
Ni 4.4476296419641015 7.8209566005183095 9.109778834762922 -0.7965506421845056 0.8144038683158424 0.7517478840475182
Ni 8.862804570366645 9.126209092213145 2.820802133719059 -0.5343940218812603 1.5038112424529262 0.08151579728730478
Ni 5.163371146977978 9.299717345236457 7.1611067150966985 -0.7642652997882385 0.08554163061724622 -0.3123448111218621
Ni 0.36995085717847587 3.98387010259098 12.173721725322695 0.2227768329540421 0.2338148359357586 0.17858162649406664
Ni 3.296421968705155 5.4225673586434135 5.2421445138248295 3.3632117085386466 0.3303157937779859 2.454391532823747
Ni 0.15664964971537362 8.878106662520562 11.938582393955713 -0.08464997204091226 -0.387676591085642 1.577603188733412
Ni 6.369747136516819 3.8032509325876096 8.01529504958294 0.8685898674399427 0.25254635090699085 1.4013206426861673
Ni 5.2111279526934515 5.786924357087907 0.8428916518439473 1.094221910454593 -0.878277784151668 -1.0627716623651116
Ni 9.096393966064264 4.577664547849095 2.6393375442596714 -0.664646622252636 1.021905520278369 -0.7569253144833996
Ni 1.7881936591700427 2.3687807738152635 5.032330191940323 0.242289449065673 -1.1136399099698884 0.9241192679658149
Ni 7.317603249955038 4.2972764884861565 12.356259058136274 -0.311590963674973 -2.4542130982643537 -0.3300769382943025
Ni 5.4674121640103825 6.125449094376313 4.3039534234787915 -0.6484106200097478 0.11392172442183607 -1.187913423872483
Ni 6.6782500895670935 8.808462886443747 12.350196461281678 0.21278115519391094 0.8226455394993445 0.28001344597900807
Ni 4.965270581334069 1.883716664150502 8.960759565315582 -0.2705073062607858 0.9765767144345827 -0.08085116712011237
Ni 1.2349793478007642 9.034537442532322 9.946300720683254 1.7673169205848984 0.6878593129236734 0.7747268614411947
Ni 9.019056872937691 2.8035048516489423 4.143056010674406 -1.0324532138872282 -1.3084981621367915 0.790827109437167
P 5.938940168829355 8.141990548616665 4.514977634540354 1.003830407944213 2.1199974552113297 -0.3722633418543653
P 4.4584510110011255 6.948831283240231 11.363101612824835 0.5013787432975042 -0.9518434733539609 -0.6218688649654773
P 1.3858303594028094 4.413296218500283 10.346461233090087 0.41488683295184675 0.9252559526734195 -0.5312351645373045
P 1.7605766236068066 4.047548974728116 0.5260584990870472 0.5027727954315535 -1.4172969635097656 -2.1721391702118913
P 0.6306068264379682 0.9372705224939297 1.3499338493003088 -1.1154648789937691 1.5147106629742493 -0.40580903902029464
P 3.7744409162364376 1.6951881254586132 6.399581989119674 -0.2904680656534288 -0.7426909160515726 0.6942942699157397
P 7.993055821114927 1.8068304614004715 11.283140901319754 0.21335014032350352 -0.14568076200098784 1.1198648078336777
P 8.731755161134432 5.9526265704673245 6.957808698508185 -0.05308762385359889 0.7773717552632096 1.3414530197962575
