# total energy = -340894.63728690706 ev
CRYSTAL
PRIMVEC
9.04188964541148 0.00000000000000 0.00000000000000
0.00000000000000 9.04188964541148 0.00000000000000
0.00000000000000 0.00000000000000 13.23371946427617
PRIMCOORD
 96 1
Ni 6.495259449268631 1.944250386437131 11.466249815142941 0.06363017525613558 -0.26215302075881947 0.14042259892584202
Ni 4.654439237509352 0.4714215169391096 6.061069720971098 -0.2472874165008967 -1.1778737802482941 -0.06454548798155336
Ni 2.7617095377856042 1.5822492960094314 4.926477143569995 0.10981181601852055 -0.4992002475889467 -0.223618355018731
Ni 3.4392002387439087 4.3641493731827135 5.055029304201597 -0.12687288526586538 -0.23803015956868684 -0.6389618158920223
Ni 5.094498960509294 4.536053777499114 2.464594855219011 -0.3382119086966111 -0.09985624746770544 0.6491212729235273
Ni 7.054409899664498 6.135835297365557 2.47225695243223 0.7744746362210726 -0.6913133329105449 0.6879711559111894
Ni 5.102826540794136 4.429938161621917 11.413288755422636 0.2443244772178308 0.9775341932518457 0.28511091510657344
Ni 5.730279424926911 7.745698524091498 12.231000175489834 -1.0827465628251418 0.6342235298760884 1.0836101963770175
Ni 1.9128931134427445 6.487338754013994 0.2781194809787595 1.0714997862667286 0.4018397699599015 0.4067487772257446
Ni 2.7849381520654712 1.5762454813415328 0.22143587532656522 -0.6384442528256553 0.6892291966880065 1.315927107611011
Ni 0.43894395382822804 -0.15073734085623391 4.610720797297368 0.4120730176521355 0.06788920764280566 0.4284763987108233
Ni 8.746671865951527 2.1455047642655787 1.2794888576015189 0.08785665190366804 1.069055181380978 0.6028725263686326
Ni 7.010195059715667 0.5829098235929118 4.9802980869874665 -0.7582944269167844 0.14155696964060135 -1.2993884865260397
Ni 0.7358922656269157 7.214776852902227 2.4470336973154074 -0.4567114822971167 0.5658077603058513 0.45755480413401844
Ni 7.536053272751288 3.768415437626728 4.043840435516581 0.006952005837800931 -0.033647512851116244 -0.2826490838296422
Ni 7.626653006143374 3.786517300526025 12.60366165370888 -0.0038507412046578844 0.6764847525381447 0.23541869008776878
Ni 7.996466289150991 8.697239855726522 6.987707880379727 -0.39184023554502845 0.34275170554849355 0.2157620921991058
Ni 6.801444955441905 0.6871085588833705 0.5633476955296605 -0.04796032992936256 -0.17790439792138393 -1.0796702378926633
Ni 1.7093963470033946 6.710465462688295 9.016583119587636 0.9771678110513624 -1.0918719221651778 0.4321497337973525
Ni 9.017811008189897 4.935642002828101 1.3844850875511776 0.041030435578748685 -0.7953620211930431 -0.6200454386034935
Ni 6.510350362944419 1.787879948384962 7.142198509592353 0.6974086471750054 1.049544107931244 -1.5719220791882347
Ni 3.575136006390278 4.247481872188892 0.5579442623285517 -1.142359132281452 0.6545064484948405 -0.49396008223592996
Ni 5.986409030495535 5.696354255297459 4.61199118278056 -0.635798330562376 -0.9700587108104066 1.0479065723278211
Ni 5.585455479842976 2.892708433732165 9.335171385670485 -1.7565542827517553 0.1540299052966315 -0.06653655026965315
P 0.22749122876495642 5.663559321863018 12.449780447852604 0.36276902921068493 -1.0080179636629996 -0.07130029020688367
P 4.087919647122012 6.125274370359373 12.554617540546005 -0.8985499041371428 0.04687481017466766 0.147816577397068
P 2.3406196990827266 8.475017336008229 1.3858350416624987 0.1618545435473729 0.3759431046987977 0.022175250545458585
P 6.247547842880449 7.734513706705669 5.906778013328793 -0.11077289438020922 -0.4023056538527265 -0.9767019271585373
P 4.797301092558749 1.1500469750372053 12.670637642247323 0.04905073478006391 -1.5526544892078746 -0.12340163888781326
P 3.8888895741253457 6.325841564581254 8.349378472192889 -0.5320607457623934 -0.7761404539592698 -0.7715551485814325
P 4.965064311456628 1.0445462076500938 3.937375802702364 -0.36560572732853164 -0.10355297959300232 -0.19960836525737882
P 0.00037614260569967796 5.3464692968802785 3.54691446069533 0.8497354537376011 1.1788446288019956 0.6891371511948325
Ni 1.4845245536439957 1.1173695861670458 2.675805257642072 1.125847507779674 -0.15828225281508224 -1.1496140140716524
Ni 1.9113921597757697 6.512692212340482 4.808207419746127 -0.4389323039368247 -0.3476537708358013 -0.9500017921595316
Ni 5.971236739813707 5.574433416469227 9.380470348177571 -0.28852842542855467 0.7439638692267252 -0.631965329969531
Ni 8.653685073715577 2.483183171776641 10.260380926528619 0.42562915907001536 0.15934848929606749 -0.03565760130260956
Ni 2.2333286375627175 5.243165708656268 6.939020921854474 0.4118138504534779 -0.3261755463573673 1.04134177462611
Ni 0.6363555285936383 -0.20050299680600453 8.705193101783577 -0.21031032505591518 0.6039891564715791 1.4737740726608877
Ni 1.4560606853088376 1.246252679956546 11.136002936661315 -0.06254722660460196 -0.7262096305670976 0.8687428480780394
Ni 4.037257939916837 7.0833439462567815 1.7812450098257693 0.33901460710356457 -0.9066702192514321 -1.6020556653488216
Ni 5.624923327772761 7.752434731813764 7.9971236345220085 -0.6571390010216811 0.7799706263386373 0.4480859454116347
Ni 5.324244332341581 2.9128628055616024 4.982442823191119 0.3040902844225537 -0.26505322512474994 0.0656816584685256
Ni 0.6862667589653263 7.158816598414839 6.770251340648556 -0.17683867566103093 0.7605266586814128 -0.2763146569711822
Ni 4.791360571117771 4.641690173229627 7.290614797398512 1.1280928521704248 0.8083208953465562 -0.4888111910451388
Ni 8.147619556926989 7.094519721753051 9.282144320156391 0.23177286580506534 0.0028868346294918024 -0.8967730147423782
Ni 4.739288329141221 0.3929858375722107 10.40663981948574 -0.42032394480701807 0.18085962389496593 -0.2826519120431197
Ni 7.971727679314588 7.029815960061058 4.700974226319302 0.7458343467765607 0.04961663458586294 0.10957990251337257
Ni 7.159341028009324 6.08706334507844 7.102444937952469 0.5074000097909197 -1.0190564808653482 -0.11032449398888096
Ni 2.180180410728518 5.258292789890295 2.492386006970899 0.3870212168898302 -0.622463818236999 0.3640417252755214
Ni 2.3320479877797626 5.250923649898825 11.326369975270461 0.25131222138957365 -0.30218869652446667 0.4661631146283197
Ni 1.1424065783589308 3.2487599608293265 3.7793118187355907 -0.8807617269157862 0.7682106575892318 0.06887933947021686
Ni 3.710149501301518 2.686806524669832 3.0590267586783435 -0.5401661484783471 0.35994621504990915 -1.0737160771917573
Ni 1.3063631617520137 3.2375661015539374 8.181071835732448 -1.6662810509867947 1.1148231316447124 0.248437728055256
Ni 3.5570160597118607 2.796566022039745 7.069253969755295 -0.20859642768860204 -0.9568645807176358 -0.24788314110336662
Ni 4.110081318433789 6.657914000565062 5.910469816836177 0.34888147259531527 1.4722139272626193 0.692881191618297
Ni 0.7774650654462901 7.381934265199582 11.24327501021325 0.5532553775621375 0.22086418931236157 -0.2985508426615633
P 0.23453576492122133 5.405711757277978 7.959830361031424 -0.5640411553237318 0.039684463073815526 0.8375353121269833
P 8.57330267552639 1.668924849332439 8.017636065178026 0.3922863219435115 -0.8360438151831214 0.28523124273452166
P 1.8992489020965708 3.2565269439614424 10.369492120417073 -1.2476537771559093 1.0365577229739051 0.9945507824145
P 3.8763665570846233 5.973913139123494 3.7034169103350765 0.40941012610799166 1.0607659447889923 0.21258832245681455
P 7.049563446860291 4.027230484394699 10.465741226406303 0.02598536832016815 0.4923431154577972 0.5042159556359832
P 6.326836172432865 7.814679099545413 10.115775795172036 -0.12265936140515005 0.0034900154311294732 0.529608941787791
P 2.3345797168565876 8.538482358830489 5.801000564121143 0.1621383933363788 -0.4107869518508602 0.32540395829866536
P 7.0042183707164485 3.9557181798639593 1.6127141345042373 0.311367020589625 0.3383553762530108 -0.3160963077444943
Ni 5.466771637477254 3.0140144240703113 0.229491294735648 0.1514523743774424 -0.3512420024076918 0.8349079018064653
Ni 1.4838012024791887 1.1473886595065395 7.022341029961733 0.0948816770712495 0.021958249438646053 -0.8643341774873824
Ni 6.939388022570614 0.8349642495368043 9.306533913055773 0.36324494040583893 -1.1618753479375088 -0.2315334961007496
Ni 2.8822560094007033 1.7691994045538195 9.217907119965698 0.8846523202194442 -1.942419844501745 -0.6248415744405561
Ni 6.418756021700724 2.108695231866459 2.499743392505943 0.38034663308313205 -0.41138653310807216 0.9392851770729759
Ni 4.012492204411755 7.047185429905988 10.440412181181628 0.3368319976299489 -0.5503634007263232 -0.19979399890562366
Ni 8.263997717454886 7.244407124990636 0.39454194676550186 -0.12421050794235382 0.0297332653983746 0.06754725092235463
Ni 7.619618416065625 3.6468834000495796 8.34797607512212 0.9978628775068685 1.280400375459311 -1.0985639894733725
Ni 3.0881398346839157 8.620808763275095 12.24606034674112 0.5390885991434522 -0.9421776681294224 0.07471600075665195
Ni 9.092433722729307 5.030916393122753 10.26318572067016 0.7032018568180147 -1.0454753371785093 -0.6310024518356294
Ni 8.604542403956495 2.262524898952243 5.799968884522337 0.5001857514306676 0.3411095419593803 -0.15013005602159304
Ni 3.7471037039335995 2.6097605837283187 11.4181587171397 -0.2157708339498542 0.008128285534089228 -0.11781797415244871
Ni 0.885350179110397 3.4220025648006205 12.607658168894439 1.905566680229137 0.17474348369489906 -0.18005486860548348
Ni 3.1535398218720356 8.497730562583172 7.992835970492615 0.5222321897077458 0.09286438953090459 -0.34123758289681233
Ni 5.391787247355441 7.886824336345358 3.598975852404407 0.26150356010027864 0.2696794110428517 0.8090109794350454
Ni 2.8744528587103466 8.443171800977598 3.641231314885568 0.824675939665812 -0.23113600355201483 -0.17803423863102885
Ni 3.4806211348186737 4.2584225585566 9.281151520682691 0.23381637859765536 0.8767880869800191 -0.021664886567943336
Ni 7.400397803681281 6.209852205304441 11.457873408654475 -0.6685004487810875 -0.6312927293825387 0.18201790586912522
Ni 0.7730851741433833 8.982050334979748 -0.06084287484983492 -0.015031183301509597 0.2878213720592011 0.49544515142188866
Ni 4.5304206803031795 0.6115554339082278 1.8489226489940749 -0.374820046837948 -0.8569846791008466 -0.8005618202264277
Ni 6.000650006552674 5.54508344295718 0.35817365857691424 -0.44710969754129454 0.8515218562140624 -0.6113556241389794
Ni 7.922304710979145 8.754538309868803 11.405441299473436 0.020966317839021954 0.8397863129446892 0.11926370546003978
Ni 0.0742673682796982 4.877014390920488 5.780118320182119 -0.4753334682736781 -0.5535975913929045 -0.33661268253029125
Ni 7.650044374435323 8.558636730659927 2.7361643914004423 0.6999416980095042 1.0527664715232836 -0.12197519085393187
P 8.618439788210353 1.544481323316942 3.461583436349908 -1.8118651395089185 0.03622427243935697 1.1216769213417521
P 1.9045564912683428 3.172328868377899 1.6567291486937916 0.16825144821265217 -0.059849110947148544 -1.0014716779040496
P 4.800637549806421 1.2274093821133218 8.129764537612681 -1.340723854939717 -1.0748345070669167 1.2992529893894398
P 8.583709890410052 1.646717968572862 12.433926398697945 -0.7270601514928511 -0.8755776116116857 -0.8215330231614562
P 6.310895321138428 7.724649005195612 1.2282068767725214 -1.2631328466281149 0.08425427926439039 0.4039254488443366
P 1.6931028620161153 3.2078363686803666 5.9043828167843255 0.006180417779099033 0.23325073590217246 0.5737277864838765
P 6.618283398623194 4.026127373868367 6.312589771241989 1.1712259359144732 0.13263729855346837 -0.8258211090138488
P 2.396778875140436 8.562135941919681 10.089612183540964 -0.254642057093755 0.8090845129854581 0.6969188520227805
