# total energy = -340872.51105502766 ev
CRYSTAL
PRIMVEC
9.17325069330101 0.00000000000000 0.00000000000000
0.00000000000000 9.17325069330101 0.00000000000000
0.00000000000000 0.00000000000000 13.42597963603775
PRIMCOORD
 96 1
Ni 4.373383818141441 7.404849529207454 10.155478014124055 1.621850845697878 1.0852132791980795 -0.3469351475022218
Ni 8.03183202035834 6.827567708688992 12.196884900786277 0.2749010644531072 0.021931509965768682 0.19429209525078797
Ni 1.5485455721908465 4.330920842069554 10.212672313002995 1.7731181006477073 -1.4796076486235292 -1.3349190753324816
Ni 6.877543576833223 7.256903346859775 10.021768716387214 -0.7260286249045432 -1.7254966421150026 1.1473095343081918
Ni 6.591273951800732 3.2448079954695324 2.4746365696250794 0.25210592093546264 -1.4766218265223279 -0.5061460827791605
Ni 7.575160096014684 8.322669924086833 0.8262163164490771 -0.20911759029939472 -1.00654754976506 -0.34825720874775506
Ni 3.7233397755010924 6.375427370039765 2.8171198730694353 1.4035767857101957 1.1205358657587734 -1.2314080047210083
Ni 0.6337569365665455 8.999646629882738 10.157410817981983 -1.0409872195001686 -0.42146757149315806 2.426948091900814
Ni 4.257562358672084 4.5096616259884845 0.8324522920666337 -0.9851791113916131 0.8314376838696779 -0.843436765213083
Ni 4.76835646033787 8.478862858538342 1.8269271192098966 -1.2813144026331482 -0.18938925863253186 0.21495219470330074
Ni 0.1221794393171482 6.294831192081761 0.8610774199198041 0.5339893302436739 0.22897267735210888 0.7543871214425782
Ni 7.763119996579164 0.9792077865132255 8.645458258936172 -0.2347201213588474 2.242050036270416 0.29688502492336616
Ni 3.009183885860004 2.3622862681046533 9.120898653585094 -0.439920635992023 1.3558841076199228 0.6489806335806049
Ni 7.325528433054157 5.094777402343065 1.1728184093201517 -0.7419753780417866 0.9809128799160913 0.00954239227279647
Ni 0.8342273160177918 7.077529608663688 4.867266115381621 -0.6674041303931152 0.6905571714708107 0.35342486899162356
Ni 8.213178007389049 4.764100072155248 3.6087557875098297 -0.6683762644983973 -0.26624904520506404 -0.7368987348498277
Ni 8.64068816873151 2.5698035385082485 6.625948838288469 1.339466585493848 0.008121857776186011 -1.0354068971989137
Ni 5.575831826232861 6.584357321003972 0.47109869523764125 -0.09835832276594028 0.4801332036551667 -0.7964922781427444
Ni 7.410949740719186 3.6215075228819464 8.605583056800313 1.1416644202072725 0.2851150288716316 -0.18768153191280582
Ni 3.8888343858516916 0.31791733889034585 8.315527631330392 1.759080648718035 -0.1329581722279968 -0.21334525522749706
Ni 7.426094777118989 0.9786023519872491 4.81650318235362 1.9933310295293154 -1.024384835056797 1.1207523526449534
Ni 5.3830192762101765 1.5736160655165041 3.963093682437811 0.011986225827598711 -0.13081027264705858 -0.2802224766660206
Ni 7.401849876328754 0.05239577159805746 11.11543573468635 0.8744378415802876 0.5667025042059789 -0.19522077771264443
Ni 0.5013465710854361 4.910376722931296 7.798560849474765 -1.42404816619067 -0.9815733963182255 0.38645557419434734
P 8.387708269377326 6.804726315208975 2.913948117598883 1.2703185657432767 -0.9381551772335908 -0.9859393865964053
P 3.9280867242858264 4.496819075437471 9.577959523745438 0.3050377359374876 -0.8703868114393656 0.9350456850703317
P 8.974034914783859 9.186184676636211 12.663611624886336 -0.36123433773371333 0.6534558957431391 -0.3707358494662453
P 5.3851107772999125 7.998588160932002 12.1455165332323 0.554656114564406 -0.6610303656562874 -0.14983772159215486
P 2.761854708748266 8.099117811995258 4.766894244225133 0.8574515914349362 1.0519360052021884 0.10190618801819869
P 8.566935235567115 3.433877859331636 1.4903101093922355 2.4997491350229404 -0.5804154829166972 0.26129427230295
P 6.9317391401585 2.9561166323331363 4.87125372732771 0.14929239061164612 1.3474873989157954 -0.37843321811050307
P 2.584957748158445 0.6884074931113453 1.4200393420772455 0.030445975194683055 -0.2736962455117286 0.386093048648606
Ni 3.9395624605281965 0.5581702706484752 11.016580201819922 -0.44509086733905273 0.3301345310051153 -1.2358359585853746
Ni 3.245963825019124 5.305000781612768 4.858566204708349 -0.5295202387287267 1.5308541055033313 0.486504140178517
Ni 4.030735396190001 2.245217246581769 2.285477725234158 -2.066076536823158 1.4476285246137712 -0.028478052835034826
Ni 6.915988669232721 4.608475879228142 12.245379288991943 -1.3616534060035324 0.0600278026168579 1.2019405913895107
Ni 4.696795934017542 3.3898829504440195 11.761090377013371 0.39028523235308266 -0.22627944679066195 -0.6231772993642558
Ni 1.3190308473434433 0.5277912173200522 5.515203979731603 -1.5156619711439252 -1.378432425234084 1.463739314132705
Ni 1.4005260038400194 0.7378155370562133 8.247310754778525 -0.8636988578962286 -0.32043118767442236 -1.1214663479928428
Ni 0.05642741514603643 4.43733971988549 12.77432266656143 -0.13593139592370782 -1.2672615240845078 1.1637483965905056
Ni 1.717003142418573 3.973888763500977 1.1835501949556022 0.075819775343792 1.311761920489728 1.4461048888803933
Ni 5.04463641569175 8.212535879861498 4.389650743064379 -1.6972235062019223 0.5795495353719761 0.12915602487308725
Ni 7.677194160142488 2.3593324814779204 13.04264024057368 0.5854409611557466 -0.5869481418288923 -0.8004870011244344
Ni 1.1012854027510048 1.976973058572666 2.5117726391934143 -0.17147406891500788 0.8150890673083253 0.1200797736034319
Ni 6.429632106615436 2.3385367228356713 6.9572756346041515 -2.7966526718890674 -1.2803024164288659 -0.3577083268583259
Ni 8.420621891789494 8.05339833203365 8.52459701570058 0.7022163529762938 -1.1540247415448384 -1.655182369970472
Ni 8.28364691691254 1.27055939226376 1.5930330846245977 -0.3192680206042566 0.002141986043667279 0.1331620607086868
Ni 4.205843572953073 0.8946331698595243 5.909001528552614 -0.7570047615710834 -0.67838711176718 0.021269450901737562
Ni 2.396438279319956 7.429709037774059 11.306165039544654 -0.8749736594790997 0.004624900366521067 0.6192576525948754
Ni 9.039412670338912 8.824804477381079 3.2021762315904025 0.15535762296911954 0.7380778427595933 0.12447018936164368
Ni 1.028183770364556 2.16422661885684 13.360379618406391 0.2545227579070713 -1.5914375235133429 -0.4289754498344289
Ni 2.699072983054596 1.1750750289169725 3.92360834344368 1.9211203116930207 -0.41717871430981707 -0.5209980601903286
Ni 6.068655530377621 4.834137838910241 10.153691982272425 -1.4147402585261828 0.7665422687478733 -1.2421359326614736
Ni 5.73738193891422 0.9586321858804228 12.472949284755906 -0.18330602855292946 0.2964026859703089 0.15333853565656172
Ni 5.414171634546778 2.3815592671815677 9.528229498711756 0.4353371303863986 -0.27896649277173247 -0.2978813273983644
Ni 0.48842971720623435 4.750587874325502 5.320863166193348 0.9820007136636312 -1.3062641305999503 0.8156205143317631
P 2.440084604692616 8.329953484899338 9.268423783739708 0.1737682642658233 -1.5690784390918526 0.2909511759374344
P 2.512131313283803 6.489982920954807 0.893720431445363 0.4994241906742947 -1.009532600535313 0.6665541236879939
P 4.135567301687847 2.6163577842556736 7.157040591100132 1.1674649262101442 -0.11824889104228022 2.6991628677710096
P 5.998902134384828 8.964604813379257 9.070067838504182 -0.6000785085632633 0.25521849842251526 -0.3487765715863348
P 5.57383205764706 6.384618966934133 5.4665756620701895 0.8034741087772163 -0.33067909065467566 0.4210261130803652
P 5.872870847227416 3.319074630655966 0.29072874204881033 -0.2515665034922248 -0.6117451462679142 -0.051715940317052865
P 0.7974379953143341 2.808775884511434 8.391693129348296 -2.222949310885223 1.0574109122738307 3.5708280317021663
P 0.8466653262264485 5.944367160794988 11.612518578988851 0.10128372394285137 0.6077524801687533 -0.9106029786469351
Ni 4.644976242544201 4.943794874115111 7.023371655665024 -1.1517354312900294 -2.3363043641703114 -0.9186950116264501
Ni 2.0183902840996852 8.060966263608353 2.8063119494557185 0.5584042687529286 0.8821714627791195 -1.003584610481994
Ni 3.8507287037167552 7.617421260577913 6.558509853369978 -0.13126278680344491 -0.16824373490316832 -0.848589513058616
Ni 5.573969656402963 4.470592752562222 3.9925104617999474 -0.6531818161461461 2.115951053056098 1.3991868841726163
Ni 3.6537606712657786 1.9320975176472663 13.387822314283829 -0.7183315133706015 0.2976887517715841 -0.7981542392261995
Ni 6.850032998902872 4.599238416081806 6.277517599288914 0.7032867032223371 0.4520914670266021 -0.08555577168463331
Ni 8.466983499278655 4.4484576993625105 10.567937623545767 -0.41287494472814057 0.8633728420153777 -0.8782021937187263
Ni 7.862860748108573 6.750650004138812 6.300879116066247 0.4811467325213455 -2.114594281917887 3.0066431517117187
Ni 3.343530516205254 6.208199015364779 8.472169137726146 -1.9492062712959592 0.11728498446711415 0.07757223925852447
Ni 1.4134878066461496 7.648527752662547 7.204756170347384 -0.04930218866923767 0.7975585146237296 0.2587092851845932
Ni 7.333830224660348 7.847899176716641 4.578983879212778 0.2696282460899421 0.7762152730612631 -0.6205066945106282
Ni 4.214374695819104 5.824858054667411 11.922363457532844 0.4300041482092594 0.09798448436628932 0.11737934395313335
Ni 3.8954207796342835 3.199290327016582 5.245933305003458 -0.6956620967975438 -0.9465207755894668 -1.773356956131391
Ni 1.025486834748843 6.540151427357304 9.430381188738544 -0.6185362010478186 0.5156031144270022 0.6065489467789554
Ni 5.725887856171063 1.2667158003488495 1.3462763183374191 1.9020293564998403 0.43767040650526556 -1.107126791441719
Ni 1.347541309566694 8.237147710667475 0.42088157060805936 -1.053596937844379 1.1159557025872586 0.07390070394420821
Ni 5.5728138268533725 6.7402108451909175 7.891669340969615 2.4682240678314655 0.8907134388118595 1.0487712343209616
Ni 1.947068262289591 2.4754750047110523 6.811710828058647 2.06267805266457 0.8956080478999995 -2.6123873647466618
Ni 0.14012598638715057 2.0280955830160945 10.95464608446262 0.04576152250583086 -0.04699308092008681 -0.13374235869218903
Ni 1.4740129127429988 5.705541586798099 3.0566930669734007 -0.9531511364217907 -1.0042032179025995 -0.7347240957960121
Ni 3.4505823482983473 8.626451284120671 13.048454246673131 1.359107242542911 -0.16408651820168516 0.9844790000007949
Ni 6.063142406891077 8.973282708251585 6.893609607572541 1.0764846410758298 -0.2414003615925004 -0.15693319498635552
Ni 2.52236866072304 4.135576474938241 12.35173945800536 -0.48596318007338246 -0.16961901798414014 0.193990247739653
Ni 6.224775078825981 6.893440819765299 2.8171730779217183 -0.024604428812241494 -1.3967548776923557 -1.3649259061072172
P 6.781774842724235 0.06744081956857008 2.786790355293138 -0.189897308617202 -0.24025442091351523 0.7839625211068498
P 7.142035905431351 2.486547117936105 10.902458545648496 -0.4513005956941905 0.598166379142215 -1.0975566312547809
P 2.317163049418627 1.9514347294769356 11.394037439714845 0.3659947352368342 1.1875637538425483 0.47794442353396394
P 8.739117145454637 8.712111096295933 6.339961749368101 -0.7669929831320468 0.6956124745065311 0.16810258133961373
P 2.0476712993559967 5.70323910094931 6.641630509836296 1.2349047050203572 -0.03305281668991082 -0.44587196847945143
P 3.7128088840492612 4.275541929443504 2.8775092150604595 -1.5334182666860818 -0.6311394916341259 0.9450871284667337
P 7.756478563294212 5.872329625454194 8.49221360716116 -0.5552495251740308 -0.4492329145318844 0.32085773368887965
P 1.1895871110396181 2.58133431425298 4.789718208529402 -0.3718262543169467 0.7355134244665269 -1.0836659893156175
