# total energy = -381159.68921571464 ev
CRYSTAL
PRIMVEC
9.33309983467211 0.00000000000000 0.00000000000000
0.00000000000000 9.33309983467211 0.00000000000000
0.00000000000000 0.00000000000000 13.65993501223938
PRIMCOORD
 96 1
Ni 4.334226313530474 4.4698735890941705 11.684968415921231 -0.22360575661324072 0.9449729714863724 -1.1418816784244012
Ni 6.96276326830255 6.933084010266732 11.45411512045264 1.8376245078612095 -1.003038765280853 0.08572520738296203
Ni 6.302567772805836 7.265995687668485 2.925808323160818 -1.4362315956307394 0.1771603206665078 -0.23867576357248574
Ni 2.7869476612632433 5.435578780359568 5.18002543571117 0.5715832293370479 1.0158451730169022 -0.49611955178109396
Ni 0.1394495805082855 3.614121649061463 6.111536948465304 0.3815663644228461 -0.7650651699817146 1.051349536571099
Ni 8.38537970371934 4.383010427289346 8.744899115943202 0.2958722673881356 0.6409253673762961 0.5625095491705538
Ni 8.15099756313649 7.527145159083636 7.4724625261176465 1.1891025590845778 -0.27477122374346225 0.15410678128115393
Ni 0.23339563191165805 5.753697494243468 5.7229393298463505 -0.5059607062412319 0.22456683497492938 -1.8794149615344342
Ni 7.67829471376604 9.552707854528053 13.02181179561451 0.7960729312171386 -0.48862504317626165 -2.4703341721959324
Ni 1.4951719549043492 7.55422048221631 3.8144417078432062 -1.4489528998521497 -0.2840616479064528 0.17916038181567207
Ni 0.7209147775499882 6.042304945891756 7.8802256656097285 -0.9788359427824044 -0.18577608735997683 1.2359452304697296
Ni 5.0605094902069405 8.363176258792546 1.3671274226098271 -0.7215824162077316 -0.20216224202748406 -1.5493285101584349
Ni 6.762820266761261 2.0935729952264897 13.000229001838465 1.3819640925364265 1.3023537398019507 0.31405536605506557
Ni 1.2246893834779353 0.667325983905318 3.7494338663347557 -1.268647605798757 0.7107089638283373 0.4659129462907266
Ni 2.646111182093284 7.43761273067559 0.42081734647783553 0.9152739017600432 0.9831237715244812 -0.21307580361619433
Ni 1.2362250950918563 7.694478309185571 6.21980557514596 -2.8363098812693734 0.25048201217879446 -0.5334018331713201
Ni 4.722184614798655 2.4894457653042226 12.680981916163203 -2.875060262564694 -0.449644033927374 -1.1070951668728353
Ni 0.46317002101894605 0.9118280048303792 6.3820307196117305 0.4131107148880305 0.46241084667473914 0.09793511918559263
Ni 1.8383220430184573 3.460414824975972 4.316662352619278 -0.3760287224340685 -0.22460360175013577 -0.20843470529975716
Ni 8.258178883665837 6.949584931086646 3.846651169292076 0.2494612842237639 0.1622741475832947 -0.29285044984267633
Ni 7.43561544727318 0.29063646759073536 9.025228107881498 0.9030297942853672 -0.23617742263066424 1.0594163727396335
Ni 4.207184156177161 3.2117903737759366 3.6827731328143107 0.3997191240724729 -0.4796979158899609 0.30165236440502247
Ni 3.068079299802508 8.8484787931782 4.843307720124825 -1.1489702098400665 2.2746264275445407 -1.5289072661896057
Ni 3.132263028579964 6.924021570155797 11.68690783410357 -3.161940353756548 -0.5688720010534718 -1.0881731331573516
P 7.08580152575103 7.29699091280589 5.6807985166754955 -0.32124339916307254 1.0497634230309019 -1.858605995208883
Ni 2.1768149142269446 4.49987017253037 7.210670004111719 0.1485511415702474 0.3728040448491838 0.4685776376070834
P 2.3921201983867717 1.7643945578292426 5.563650378644123 -0.2940814940363 -1.3052295186878489 -1.476684304329147
Ni 8.124062236503987 2.3441760636289137 7.8755945813841395 -0.2827781532083388 -0.9617779588588533 -1.1381471510826335
P 0.45633352526069587 1.1569217442961544 11.881124978787946 0.37881271293710894 0.03278850728493062 1.3225466698100576
P 5.799644345598916 3.804806215391578 9.53374672854517 -0.4554768385590671 1.4222939025037247 -0.18027058416071534
P 2.48580585629983 3.7623592765403537 1.1727012164851967 0.3424532004714682 -0.7115355734946908 0.23926891707179437
Ni 7.998149384252036 5.340175832044437 12.855829145084206 0.44357880156990054 2.286395395155011 1.4033219893869122
Ni 8.950638905901485 3.4511937221648443 12.56831553275724 1.9641518368621977 -2.9177184635548525 0.4904440986628714
Ni 4.344343393942682 6.200211664982315 9.652588824228586 -0.7617880418923396 0.07465429428078112 -0.13072696890463292
Ni 0.5191424884064927 6.773870657174597 1.7408219471307955 -0.4654899998206951 1.1680094858597045 -1.2737993252030257
Ni 5.010250746646289 7.042775934699107 12.519672348808536 1.8670608108444553 0.5702226015440954 1.69685506711891
Ni 7.53686091619536 0.2801983285381388 6.81180037562037 -1.8035077686831584 0.49646253694280956 -1.4140159787656488
Ni 9.129087778116835 8.08588985745792 11.580059705244627 -0.6812572342261235 -1.3724083305271912 -1.7174323770496294
Ni 5.907628312729229 4.412400359224812 13.655618884139377 0.26257571011853487 0.4177471852187773 -1.1953683374886317
Ni 3.649634094604319 7.113222173584121 3.2115327802156255 2.5120963437343833 0.7858571670264014 0.04799992491804637
Ni 6.955866107394226 4.838932362839545 4.360428991812095 2.6265585140407213 -3.1281640286370513 -1.745638921390832
Ni 1.8452845356268592 2.211524713168832 7.56920197435439 0.3038105483986058 0.4372759992803244 2.023133971823361
Ni 6.586984662549066 6.063537748417378 8.966176650800236 0.1261411493061634 -0.8316711400367225 0.19433503267358143
Ni 2.1125751868494214 2.1409758101836944 13.29424498494328 -1.013085607993894 0.7243088139999591 -0.3198784004947459
Ni 8.865726361999014 8.838436377566081 5.009548897525442 -0.7632553704664854 -0.7073534170925431 -0.8802166530455937
Ni 7.6126456882868165 5.627523315191204 1.5960273002460597 0.3423660400743007 -0.31149814685085064 0.8392049865199225
Ni 3.066791332000954 9.469363271427472 11.697999290156954 -0.5337409616782937 -0.050664359124086934 -0.8357897901907865
Ni 3.615670943663333 0.5697082909575146 0.22115713786688881 1.1063544320520688 0.3641466262845019 0.674555910946548
Ni 3.2597345085337945 7.541602131001083 6.550362511414871 1.0582938290994162 -1.8019419668579353 1.572962604637607
Ni 5.478473708011333 1.960734982766183 8.041125509873899 0.8184451282647517 0.4400697599753776 -0.3582585429348411
Ni 8.705626364405807 2.1964890890506874 10.264621790427178 -0.23660551130701832 0.934350715885836 0.2070761343893337
Ni 1.7944098074654644 9.120501326106472 7.7884719593990015 0.662881045711781 -0.43619870705574554 1.7086908834115735
Ni 7.082898931647527 3.8005969872864984 11.405321673593756 -1.5212839453163927 0.8482282730644553 -1.6717083926499534
Ni 3.669289603228039 3.493398000415776 8.800249065559997 0.18023921670214765 0.15772303787750255 0.7643583737226772
Ni 6.794552806799556 0.3989993585815059 4.291501248298913 1.212418608102699 -0.12846362679175297 -2.388346577478532
Ni 5.260041835347733 2.6655053639166884 1.2745337373980865 -0.8735004173676828 -1.422058903674783 2.1788757176047766
P 5.748265630036913 6.3296804283385555 0.8696965247595356 -0.3241731712153578 1.1985007124700262 0.2752733601908614
Ni 7.220039503213027 5.389743926204255 6.62625741408646 -0.21987817125000841 -1.3259333268941036 0.9671443653770893
P 4.283930237569778 8.68997475568692 8.464092269284329 0.19397636378258207 -1.8177717348013405 2.1630438927788425
Ni 3.679649344240541 5.474945796207075 0.3863576746162502 0.036320431697589056 -1.5981797273331833 -0.6485101217020895
P 0.3879732342281998 5.562462275012689 3.5326912847731946 0.23119642447630503 -3.0090810717292498 0.6620662631199695
P 1.1054310315340161 6.364698219580815 13.233731964400251 -1.450052817784548 -0.08447667968784162 -0.9424273222463834
P 6.810400410618681 2.287598811360637 3.1604723233640066 -1.2644703344926158 -0.06290049617896264 -0.4319610148253142
Ni 3.9951361239212653 0.5020097167158172 6.848422526754565 -0.9879124511623761 1.3034593141613036 -1.0980808791893668
Ni 3.9220486177330645 3.1404854896898864 6.227386852285109 -1.5215742228633022 0.8688616330440907 0.5363002377650377
Ni 4.93784455675891 4.970781066698658 2.4597851734684286 0.5835334597203885 0.8680571348649244 -0.08085759487801558
Ni 0.19672774858740785 1.8924446899837715 1.3751865544695527 0.6339453365140373 -1.4193954979100072 -0.37106932154626415
Ni -0.07054516974513277 5.559559680909187 10.759330223004184 -0.4955994176115659 0.4090758826970245 -0.5287766756944828
Ni 1.6613384675048761 7.019909839671513 9.614121519222165 0.43825970334983233 1.137152648379848 0.8769729492973154
Ni 8.154861466541155 7.748255631450469 0.41011788062492355 -2.1732187764293154 -2.2629816442167603 1.4061250060533461
Ni 6.0297145939765615 1.848887112231207 10.323495918608227 -0.017483244386427954 -1.0818032250752658 1.5051518156412207
Ni 5.228822615810058 8.495090294351737 5.142077984375376 0.10589885411735954 -0.5210654230931543 -0.8750289381970672
Ni 0.6624186399193961 0.25397885067649756 9.968119469479365 0.9208231137130464 -0.5580499707373034 -1.024101242378107
Ni 2.6337448245783603 8.991769877651121 2.0022458116862776 -1.8292275420467659 -1.190552404157227 1.163454005278538
Ni 5.354110150361253 6.036387760484614 4.72053172278666 -3.4128869642765873 1.5336697205752554 1.2778755521549283
Ni 0.6736911581129995 8.689106777385872 -0.20865731702180426 2.5469473899752972 2.3681307646522893 1.1663981755085266
Ni 2.6315515460757135 1.8752624528630362 2.498497939005147 -0.33741101006187046 2.724044461504038 -1.96483909273721
Ni 5.858797533470301 8.177615564368613 10.02551803454863 -1.7734289470199072 1.2698858490812324 -0.6919267981248276
Ni 2.232916178394647 5.531523048475353 2.603255453461566 1.6679638380058566 -2.199695996784237 -0.7516010740570088
Ni 5.3159004389151425 7.248720119547638 6.979926839223261 2.682039320716845 0.3546479427654473 2.8388845839750854
Ni 7.00414623375249 0.5462980761992636 1.512919777885767 0.35526295064162683 0.4680734442771552 1.5592054029525149
Ni 2.2829322613550054 2.7323303599973316 10.89864727349231 -0.14094350442631856 -0.5918890307739355 -0.29194567864021975
Ni 1.6969255778478223 4.6850948753538955 12.023516352419783 0.8021749303498185 0.46250212083696474 0.6414035925642954
Ni 5.229046610210329 1.6690289419141568 5.309084475976917 1.5847277155933353 -0.6225088125423214 -1.3343467477687794
Ni 4.618941862474063 5.13411031689576 7.054250047852954 0.19411777445645279 -0.3832576360823399 0.6179741578967615
Ni 4.392763516801115 0.6032243864079614 2.96286726337554 2.4943809287324914 0.17287146348316682 1.356546680904586
Ni 8.846229516075486 2.8298145896149745 3.4249695777531977 1.3383985492406498 1.9216795266306002 -1.3431543187580801
Ni 8.175020962565481 2.0224921055407106 5.2656864942345445 -2.320026195835579 -0.24361948073100628 1.258287859830988
P 9.0197598445849 8.75772372866868 2.5087559492275258 -0.1077986422432337 0.646199728401358 0.034037806310999445
Ni 3.0860828497242347 0.9939844842995242 9.352548325066504 0.8576215413538971 0.007798412998496246 0.11383430691435235
P 6.17616026625329 3.3490896080416266 6.377141108515829 0.8052075465285552 0.4275004079507992 0.2387747510441952
Ni 0.3407468148612077 4.305545697195862 1.2282088954921824 0.51664595386922 0.5428534655025231 0.058227516183325535
P 1.1005778195281595 3.5763879257159266 9.25203830442521 -0.19315155388844155 0.5347354643810791 -0.11623828837015465
P 8.276929081588463 7.398264381028105 9.545740695369645 0.31300301353115123 0.2689019094468788 2.073474371949126
P 5.203427250679411 0.31429867604929057 12.39057224290274 0.6166698372630413 -0.5925829715171665 -0.4466641253634437
Ni 7.568472125933509 3.231604545099848 1.282710466317954 -0.051826497752988164 -0.40622992860779716 0.14367761552803
