# total energy = -340871.53859173425 ev
CRYSTAL
PRIMVEC
9.24897167558775 0.00000000000000 0.00000000000000

0.00000000000000 9.24897167558775 0.00000000000000

0.00000000000000 0.00000000000000 13.53680494760620

PRIMCOORD
 96 1
Ni 6.7399566970768445 2.694123635575584 0.27295379471377057 -0.27719423136265814 -0.23130621058129194 -0.6641519420044046
Ni 3.058348130043162 8.574656659457357 0.5953442665575222 0.04270756617085548 -1.908774645643474 -0.447474537079881
Ni 3.291070748879963 6.049641217300902 9.008716437518814 1.8969581126245199 2.1321119790866763 2.127861688450755
Ni 0.4993704648373159 5.756596806871476 12.056785260727256 0.03248434578095051 0.2761573054577115 1.454665891076527
Ni 5.350566961591469 0.33265498032420154 2.9874917600046627 1.381991346229936 -1.2933921597332887 -0.2699187807471674
Ni 0.5016623599548645 0.19430794094645937 9.079825304477044 0.4185676242375436 -0.30393807511540555 0.221332901418664
Ni 7.021726611346901 8.913668457837618 10.11100515160841 -0.8888786995959659 -0.5171385772349223 0.4798454972114187
Ni 1.6960486318430967 0.4959760923266607 12.54387956580056 -0.8360150188277151 0.4933715567223116 -0.3155828584431855
Ni 5.850140903799996 8.588261896414235 0.3873950176656531 -1.139929439794037 1.4435913784299201 -1.4777559401267713
Ni 5.8810787131954765 9.248065019479956 5.7692641981265 1.1580014668043992 0.358556276680918 0.7818300481448793
Ni 1.203735132198233 6.777072819380004 1.616768298636464 0.6649759805675968 0.4088861352837216 0.25626468029884253
Ni 8.956139734592192 7.981732848720105 11.091461789685455 -0.35751497990059716 0.5398457890244509 0.9044783538064358
Ni 5.894508219695399 4.850946774525848 9.272928104447649 -0.3711675376870253 0.48786091131672743 -0.30665418849498804
Ni 7.528311273890786 8.689112680763511 3.865407826654239 0.8014408803972713 0.10341414002229288 0.4561656370959757
Ni 6.4582607745781395 3.52262799731801 11.234911486594882 1.6630764280065682 -0.3766272752500159 0.7327471745752993
Ni 3.689738412910702 9.238751305261347 11.15496337765182 0.7232685456609028 -0.5044375847284862 0.5339937011190481
Ni 4.281802069306019 1.150340820198199 7.418060759888706 -0.8239933117764905 -0.09211388451812523 -0.6135310345237434
Ni 3.4094668320104726 5.956901780885807 0.42237092798252956 -0.8257018098271651 -0.0616959343479002 -0.29568766218115533
Ni 1.8578038929843734 7.784443039388264 10.48529715146522 1.2568441854059256 0.6503386902703961 0.299440187245052
Ni 0.8716998329590827 5.525474260090108 3.497192401019501 0.22348542898529256 -2.1053637644585548 1.712801306035521
Ni 0.09338963910582734 3.5581440475657375 10.668220533492427 -0.6758026388694555 -0.4357870734396237 -0.25099006216346453
Ni 4.5576618908395385 7.226508087527872 12.114614454522547 -1.0239662594621397 -0.04344007346150583 0.3800923509804809
Ni 4.740273582529936 4.9643484130902715 11.24988372152744 -1.9038103596596634 1.3531322559063985 0.7690023002525918
Ni 3.316745893538216 6.341695987788528 2.9566279423805306 -1.295376280042853 -0.8090747427934454 0.5461537335203498
P 5.298476754561469 2.291645395320349 5.74143219333341 -0.1008540926046005 -1.1447119487843447 0.10873092424951598
P 3.129232246995918 0.07679143499786603 2.692104585114886 -0.34332249045029906 0.2609219765651958 1.1396826138905534
P 8.140944642721244 0.25778640648427886 5.911400541094474 0.39122394211726813 0.6927618924316133 -0.4138902733665324
P 8.465222829631548 6.726258970405782 2.986787913279701 0.313430330876557 -0.15490845124684288 0.4310405598935738
P 2.366978267525489 2.502151984809483 7.85485268410724 -0.3026270696134659 -0.19478497572680645 -0.5765364595772652
P 3.0404513703480185 4.351354334374485 3.856744315126363 0.5264030332559837 -0.6297503245960832 -0.22664968564588708
P 4.569352590712748 7.341787267290287 1.6994106329537866 1.15341230477182 -0.2860550241873977 -0.86991964199496
P 2.129261204122602 8.336282919083745 5.4221401269149165 1.7076894387302526 -0.8664013444290564 0.1315065273831348
Ni 6.060342277232313 5.563274806278248 3.2626542090932134 -0.7180391789411633 -0.8268960872455823 0.22788535782520108
Ni 6.898521063078678 7.248677872018446 12.291174544213705 0.219373463699448 -0.030253142457586608 -0.7819177227626791
Ni 5.05727282893374 7.622928251503873 4.1418022387357585 -0.28133962098959936 -0.9446904072489473 0.314068221570872
Ni 7.339928224035132 1.2270517891447226 11.935888255725136 1.1124302059325035 -0.2544937044413488 -0.2665382943107087
Ni 7.495662404782849 4.74934682349166 1.534748420095619 0.3280565654301641 -1.5236287913994855 1.5331781256508175
Ni 5.005746809160279 8.374851129899637 8.567836467933224 1.2172265710143038 -0.11814553269519655 1.3622105640585829
Ni 8.50723165781519 8.980381288680551 13.647941307711116 -0.6534332700353198 0.34078943961580016 -0.02477026496614444
Ni 8.385209977888557 6.4170288599936685 0.41534540929290104 0.2817419986343406 1.914990801756515 -0.8825882386015639
Ni 7.9002494105215435 5.7448043683126615 10.547580649895744 -0.9202070773956023 -0.2644562149706994 -0.3913653527911389
Ni 7.912902003422295 5.3806076207593385 5.146476383575473 0.16124004989182553 0.3179984098632136 -0.10053270470943974
Ni 8.583646659676315 1.8047887888125056 7.427536331107143 -0.025110164804066432 0.4632102026475829 -0.046117363183352834
Ni 3.1358452615602737 5.943361286728861 5.335125803807984 -0.7695000658246166 0.0472069967031058 -0.30062623713335324
Ni 4.614876028035487 2.3377145219567885 3.369310572801994 -1.3649930118997267 3.2932676752493415 0.593299795078533
Ni 2.0299827449145016 7.342240466889802 7.444863354162896 -2.0696663110569453 -0.536746581273837 0.5486991256500227
Ni 7.02887606625354 3.8512347028522558 7.324588804937253 -0.9205811729055694 0.29177007229430396 -0.9882513225590336
Ni 4.229341903419272 1.18751243632987 1.135401881562749 -0.059264184977956005 2.215695971756919 -1.2070293187663277
Ni 6.960498420555245 2.518790884391686 2.696409981310281 -0.28944528081586923 0.04282095182026819 0.8492957950970212
Ni 4.6364723762981015 5.421506572372737 7.2505295160964645 1.6373080607932127 0.347353208876247 -0.23993277590803838
Ni 4.062767928168863 7.750073861596452 6.544354825028913 0.9531308247068166 0.7310577026880184 -1.114754483190306
Ni 6.549918081337248 1.3039107416339448 8.442228036890429 -1.113537065843437 1.3843012253100353 0.07361145483856354
Ni 1.0375218668331527 8.08930763529076 3.6630727034135084 -0.23360194859400416 -0.498257166949387 0.1587072561676428
Ni 9.158072527576211 2.824978083207054 13.101204085547318 -0.40009476224433677 -0.9827455622494559 -1.8265553945312414
Ni 3.7580513158090647 0.6721209032011184 4.873912895455571 -1.1383057881476848 -0.5735005009644188 -0.03602269795151215
Ni 9.333229548303153 7.582464001547152 6.011830497244199 -0.8851472575779916 -0.27539111671564825 -0.171174278286402
P 7.826525859343253 4.609058425013137 12.692418971681686 -0.02847496751124128 0.3226729325207475 0.09311584342007834
P 2.909670914487897 8.690130067619567 8.845638573464667 0.5775587301941923 0.8341854218181439 0.3484734385236192
P 9.083895776798405 7.154736069318923 8.882228429294104 -1.0901575105772323 1.147052166881747 -0.43166173841734046
P 6.141381764802778 6.869294313395652 5.861314586170901 0.19283865063371305 -0.9103749217965289 0.7063038927821063
P 3.5618806320188834 3.160789737476451 11.081445153639024 0.9387218483703382 -1.4152861037273239 0.10810486062974285
P 5.432087395675706 3.7789724891581167 1.6917487850305528 -0.9005594783680039 0.029725294978574613 0.6818524446079611
P 5.3026572896427115 1.0790959933601147 12.65073940688055 -0.5994048795350064 0.1354593413832957 -0.126182286956744
P 2.518161954335216 5.912673199561685 11.344437806134879 1.955016450219833 -0.31378977109850476 0.33585832086276995
Ni 1.2953739410145044 0.5141484713700812 6.6927314490130705 0.05828510889413832 0.9358424699400141 0.6032026560145417
Ni 5.274225951501693 4.3654775137308075 5.226790751786714 0.48783545739543077 0.36306959117023924 -0.5158342566012019
Ni 5.369175892085852 1.5491657167430557 10.494068875958694 -0.6971155414146187 -0.2779653052007277 -0.027115882380185558
Ni 9.184228618748234 2.2529569478760147 1.8826577289806476 -1.5708596993619914 0.5209854617848383 -0.2000516234423845
Ni 2.473230451183273 1.5494339369141974 9.97574541889022 -0.7082710438108061 -0.017404825740008734 -0.5460974263611176
Ni 2.1975648580495464 4.003713245660597 12.661636545006038 -2.233958774621849 1.009668611892545 -0.9808352326006206
Ni 0.9401116998516257 2.976152521045362 6.128747669844864 -0.8087626108696652 0.254961902327019 -0.36538127002255133
Ni 3.2251903254647125 3.105804602392404 5.832399526824686 1.0865816203005159 -0.2175991454078446 -0.45377348271471535
Ni 0.5674465940673608 4.64341835383353 0.9523712114670847 1.28564105503296 -0.6739337039815168 0.25901807467426363
Ni 7.15924031839982 6.294378250010566 7.99046480263648 0.26051754203792554 0.7882966297058295 -1.2704072688023411
Ni 1.0960123620848787 0.284012789839085 1.9035049105583501 0.6646725903945649 0.0023638722464862515 -1.2611464123257055
Ni 4.305747656308979 3.0294080984741156 8.909626657327655 1.28782469294784 0.4427881873478052 -0.40308598366217674
Ni 4.145305749109154 3.3061188253781535 13.196015291560196 3.4663129453062114 -1.1505691788960701 0.23328981667022403
Ni 1.0108293353188451 5.693962772424182 9.736563318414614 -1.154185692602735 0.9754420866095072 -0.00624315269623441
Ni 6.791066513136466 7.371004768001894 1.9673172639643839 -0.30429211602071465 -0.12760770654936088 0.3887672530466595
Ni 5.675057874844403 5.296469727763616 13.675014896847873 0.3892603906329941 0.7377281727296585 -0.7742380947302343
Ni 2.936270956288018 3.765006542315912 1.585227456304485 0.8092223241149031 0.8965902093076108 1.6865922517403211
Ni 9.404909076797916 4.4231818464119455 7.95973601999506 -1.5667353927809726 -0.54895366486299 0.13793197129350437
Ni 1.6800664092316195 2.651467379392636 3.6280126274567217 2.5787848462008682 1.9399631554311363 -0.6999681803720655
Ni 7.762828193182811 8.710376066055055 7.957109312112156 0.3780424104299876 -0.991059224321474 -1.5052975971904656
Ni 2.4066563549116218 4.789755579619869 7.425830820777539 -0.2841089562046204 -0.6503294342990155 -1.5961243874660511
Ni 2.3536874955968474 4.024708410780999 9.561383175259127 -0.9653016557413957 -2.0760835274371985 1.3004333828507861
Ni 0.13445137261619458 1.296132356670836 4.05354207917873 -2.5435301367636325 -2.8100170090111156 2.1603385780325377
Ni 7.427710211769815 2.746528307633819 5.204400841776376 -0.22726340797048603 -0.9426008717097702 0.7907353210543092
P 7.476036087432412 3.290922765337264 9.261800666933837 0.7387697266202954 -0.6056302916194279 0.695178472292906
P 0.30163670487737787 1.3007290954659194 11.01346336391745 -0.31413172781895576 -0.05603359385580027 0.2938668069223326
P 5.7763156139361 6.9840925466442965 10.305271472183483 0.5134703843547157 -0.25046427156698153 -0.4380840970039165
P 0.8826598640902175 5.340097125945524 6.018327899665822 -0.6525292701638116 0.3384222249352043 -0.21364298897357398
P 1.0826198514706316 7.802265807312058 13.409545369806096 -0.6485139783568316 0.36724609114543205 -1.7942001181289875
P 7.154985791547228 0.560359107269227 1.7503225210250468 1.2647588122673121 -0.16459276841414236 0.15941868041237062
P 8.790962354026004 3.3955008851682673 3.7529708558087846 0.6189421782369857 1.147420091744127 -0.5458629417528083
P 1.705371595033125 2.3189853548339636 0.749950997689302 0.48705178515187086 -0.7920954346266293 -0.8489209282561058
