# total energy = -340892.88310286927 ev
CRYSTAL
PRIMVEC
9.06863091994334 0.00000000000000 0.00000000000000
0.00000000000000 9.06863091994334 0.00000000000000
0.00000000000000 0.00000000000000 13.27285802259740
PRIMCOORD
 96 1
Ni 6.344595621014315 2.129595686627616 11.240570846496569 0.7699867756530482 -0.16068469160898777 1.3388492636248233
Ni 4.765538385203624 0.5505166861025221 6.198318602966002 -0.9433256656909367 -0.5928110283675726 -0.43962907289353315
Ni 2.940929827775191 1.802644333143683 4.761040344227061 -0.18796358192959886 -1.394171947456528 0.17352426657581727
Ni 3.4681981714432024 4.240881807263939 4.84418155324547 -0.6396189898600467 0.18098149418481088 -0.4257898530175957
Ni 4.974035280550726 4.240392101189878 2.6597079529775836 1.112982736001864 1.055102575855628 0.8574988997331039
Ni 6.973713759456078 6.072119533954202 2.687063478392508 0.15511928170606834 -1.4798359625842512 -1.733973569237762
Ni 5.246674602968859 4.651400595423334 11.51950017137709 -1.2488136017919655 -0.7439702969846285 -0.6518975501170837
Ni 5.7996797214180935 7.986416851983863 12.618121287735832 -1.411407080387892 -1.2888315369457999 -0.7146124126478015
Ni 1.9883426901539314 6.398345396958044 0.379894021268561 -0.24368967184730936 0.4312524187940638 0.38045487652622223
Ni 2.5527198718785886 1.391273093670181 0.3824323310857788 0.3621036277125441 -0.5093957000647098 -0.05839592344038975
Ni 0.05120330435861042 0.030526825676021822 5.000748746890771 0.3522835562983288 0.35793844059126095 -0.6411462251378507
Ni 8.963489293308188 2.1871996307468273 1.265716083733262 -0.6624336737617172 0.43929457237224995 0.5939983638074544
Ni 6.786265156662609 0.9433371340001016 5.103586115580546 0.8479241115604752 -0.48061065751221743 -0.9731350357428854
Ni 0.8972068218235262 7.162141774397668 2.463309518249095 -0.582984529195454 0.39408917948020517 -0.03789780348703796
Ni 7.549562759397171 3.776250497920769 3.9393579882440894 0.38767247732058396 0.15934540397227395 -0.3940881510389406
Ni 7.704853996660613 3.8284948811183104 12.618399694707566 0.7025608807999061 -0.16765418094828546 -0.10738829417869247
Ni 8.020197502463091 8.775940935573708 7.289971383263471 -0.43182886012282407 0.5030612732062497 -0.2548292334038966
Ni 6.758524214430137 0.7452755123460051 0.3085910031590342 1.4787823245087564 1.4272597311494324 0.3354297179657836
Ni 1.7738060865600724 6.494699601345107 9.20073193520269 1.5278230319864914 0.4615731812647922 -0.15578159788041557
Ni 0.17726997135779338 4.82725041916635 1.3297016234879726 -0.8740717164901205 -0.731182915411973 0.044924628426832314
Ni 6.21923993468562 2.1271108817333046 7.281290889669185 1.0523620369960134 0.5163633896317946 0.11726930073783029
Ni 3.677257321912376 4.478316704135665 0.7013506912289059 -1.0771330732931061 -1.299091267000595 -1.3945930941543465
Ni 6.008539362005242 5.452967820982686 4.818286077421727 -0.5309297174817437 1.1709402863532543 0.38418271899977063
Ni 5.049005653037113 2.8902996608958524 9.357723540778844 1.1781406607564355 0.7605449135138579 0.7001162759141555
P 0.32540424503513915 5.586766402773438 12.549354765717322 -0.4945432084329095 -0.18205312998243484 -1.279690750986796
P 4.091077091756184 6.199134779756103 12.78416520077732 -0.014909827232296903 0.5366079988134437 -1.568693802058924
P 2.3195290943153943 8.516986177336287 1.4064984182579872 0.8112010451078288 -0.4398062219013458 0.2991658505377428
P 6.615802099734268 7.901198926466194 5.859289646714757 -0.2882728577743229 -0.38535488493100084 -0.3303862420046052
P 4.680964332487036 1.1476896649796855 12.726534050765103 -0.04352980496183471 -1.9927211638594584 -0.2465104291255561
P 3.759174265745631 6.465616501724465 8.101394396994857 0.9729668855961371 -0.2764771506909755 0.9247746421616267
P 4.82277958408279 0.9901766131209656 3.9468831382488316 -0.18029115298600562 -0.1417613723419236 -0.639131508700667
P 0.24907176417238264 5.301004771296662 3.5334070695199666 -0.09234014159631838 1.00224069485959 0.3440256871649108
Ni 1.326350764333053 0.90993736602292 2.8506380032123873 0.6399048965315818 -0.5205740852790325 -0.1365263491952294
Ni 2.0013743129025627 6.577913359411525 4.710338535162813 -0.36864348571359096 0.3113266542699929 -0.3221124320315872
Ni 5.895471670683086 5.742365973490918 9.234471776842414 -0.17288843276403126 -0.07755192754355031 -0.30835805855997217
Ni 8.697225218483853 2.4863737674742827 10.137224973386235 0.08903138893805958 -0.11085491257105425 1.46418925718593
Ni 2.457907334761719 5.383284460369963 6.725330304376681 -1.5477614227816312 -0.7043441979525741 1.007029374497485
Ni 0.5829987086223888 0.16678935450978127 9.144442035715542 0.4836859540034315 -1.035586103089255 0.6354399187816927
Ni 1.480109402957303 0.7680305212540539 11.567561195093806 -0.8089341034505231 0.8222467613990291 -0.5484661837036103
Ni 4.187848453169299 6.64920186771145 1.6511301806922138 0.6891986005603873 1.1408167274949965 0.9395435729406851
Ni 5.659224764472509 8.003275437014974 7.953255589002012 -0.6391446213267895 -0.001362170454849267 0.7535412285025151
Ni 5.2955363868029774 2.8765153417741263 5.083305936072707 0.2997309790125935 0.19163563146454737 -0.2554987486670955
Ni 0.9942212225474719 7.649589759339694 6.940337569919499 0.21621974856181472 -0.6746443568952962 -0.5368453116352303
Ni 4.866109503006215 4.7461043089681905 7.0557186690100435 0.7531334515411351 0.31826940413641314 -0.23252259948689633
Ni 8.35980866482461 7.017306668678535 9.127452862398014 -0.9949593307068284 1.6418010635675595 2.0898142467597296
Ni 4.723877094384408 0.4291638934977293 10.608332192127314 -0.3256333007006521 -1.1031400388798291 0.28880199080491553
Ni 8.245498571055299 7.197146690062049 4.243253254270736 -0.08285174248990892 -0.9787618950113597 1.038761158383127
Ni 7.285330057917091 6.243670826602679 7.208582233754482 -0.9839946041652086 -0.24810528441650176 -1.862303241554812
Ni 2.3200006631274537 5.018453435194288 2.4874266355335144 -0.005680338214228927 0.5358114710540772 1.6655310601946476
Ni 2.510432845520295 5.290748149634378 11.499192785976247 -0.5296842751104168 -0.7367552672934279 -0.31247516605213926
Ni 1.05954257164865 3.202732136146967 3.667184793459415 -0.05273075473481242 0.5970572052384363 0.3360082161770729
Ni 3.5920393963947066 2.3690347509505925 2.4779363131908263 0.055262005797098376 -0.262632017277767 0.3000037730580059
Ni 0.9523060100602243 3.321640025833854 8.272056963805223 2.315934028044076 0.3702445116521237 -0.9950423773389379
Ni 3.6449457896553303 2.72749959716347 7.22677934872136 -0.6715333220701403 -0.5803080108045554 -0.8846587479773474
Ni 4.263127159109724 7.1566733899039825 6.083468925652122 0.006099428029518528 -0.1031313186745514 -1.3193500172496309
Ni 0.7553344378524645 7.422357072344245 11.265033478622131 0.0828496856073799 -0.3916201491144223 0.5532579486652988
P 0.2806514579076363 5.750437055081929 7.850722926313876 0.9117000683658557 -1.1273767999400068 -0.7491999208146839
P 8.613068322793316 1.675483989245763 8.11300768585491 -1.6163800523912937 0.2025715616507608 -0.6871170354410102
P 1.9539725786596283 3.3667292591714992 10.353784788556446 -0.5306582089879119 0.4156118840433293 -0.13023768797304022
P 4.016224611472813 6.052195751644708 3.861233545895509 0.48693634261992913 0.5941706277192607 -0.5087704077758851
P 6.908011527852851 4.008217010298811 10.263118429533295 0.4992053897952693 0.2889526574501669 0.06818462739603741
P 6.215857335322197 7.720860130377617 10.32506262044965 0.35710874560111405 0.23490755477930514 -0.6902609803866305
P 2.4568644421965886 8.751002200320587 5.403778659569428 -0.6212435726766526 -0.7145517346131952 0.7150962942627556
P 6.989810579483093 3.721013466492854 1.5407930541645 0.14800966724448059 1.1077369142218922 0.22844714386594203
Ni 5.336327089046084 2.9091352074852104 0.2947223457689979 0.5573323758449885 0.32601510952010304 0.45743730471954763
Ni 1.2197580755457083 1.0607305623097987 6.636376102886544 0.90595442413133 1.1823840094138218 1.4547713063061398
Ni 6.814477667707142 0.7433584037523651 9.259013306057687 0.1816821197962613 -0.24288388811656234 -0.011752769660553952
Ni 2.8657962199307847 1.5585530611171237 9.476409249006203 -1.6428693569310737 0.11074101270100928 0.01803963111053022
Ni 6.215911747108204 2.0073868152563157 2.6564169467872714 1.3042818100625988 -0.28242514074429426 -0.270043993471122
Ni 4.106230774159082 6.884886518799957 10.520293015505192 -0.12270255593825963 0.5890392200299662 -0.36675012534561996
Ni 8.022482797475378 7.019102257616759 0.3712062727694733 -0.21698722285545854 -0.9107603301604057 -0.18429127528433423
Ni 7.849398906187709 4.1175665629105005 8.227220745272511 -0.9691284856866536 -0.3974791789983606 0.23293654709586334
Ni 3.0837335601500695 8.249370876492783 12.544510303036516 0.996499935721071 0.1986819967883675 -0.30991820395824043
Ni 0.15679028196792943 5.005013724050604 10.392408994853383 0.07340011015870586 -0.9132483866895822 -0.010656708382897775
Ni 8.417312854002809 2.531970844147991 6.005610194191876 0.971008990538818 0.1777773854252164 0.20795442322922897
Ni 3.684376197248267 2.6577436875027374 11.586727746714706 -0.31403454011945914 0.6084307371827006 0.028851891234685796
Ni 1.2095740029314332 3.1776755086908306 12.419864690515212 -0.36448369790894647 0.7308075343504252 0.4230482857167166
Ni 3.012744316673182 8.781527212270408 7.8007112400688134 -0.041521259172238166 -0.9172881039765944 0.16753076799654373
Ni 5.925751829595876 8.03263966419665 3.6722949670285545 -0.9210694253958975 0.2078718908177517 0.48088525132984283
Ni 3.318066985219407 8.294333148996413 3.3939895639609117 0.046546994521603706 -0.06534612950597779 0.6691504236602605
Ni 3.3528905282637664 4.305776930708064 8.938925092515413 -0.9770410556655108 1.730995460446045 0.712178092174696
Ni 7.211402577995835 6.043571483562627 11.396554020305397 0.6974464423914762 0.4770134270792623 0.26092763299215066
Ni 0.4294758544041684 -0.34807038135937685 0.4100372438532348 0.509364075495826 1.3793163705009341 -0.7215371647920928
Ni 4.687140070198808 0.23506254300182874 1.5522077400056293 -0.45405784672435345 -0.26508716368647894 -0.013200043630041782
Ni 5.953130026588305 5.324565074637611 0.32906434450719735 1.0697686625082352 1.07147047569069 1.0994492202918031
Ni 7.809750851450746 8.825618896197927 11.345506696400005 0.7172241392390357 0.45412238141370176 0.4124936501293218
Ni -0.032847488349212355 5.052451732817544 5.741546169248415 0.318305142470355 -0.31514551379545075 0.018402670876903792
Ni 8.124214700046114 8.95887336012861 2.4556247603387327 -0.2984935070610666 0.3159718663514881 0.4056308615712175
P 8.484320968470199 1.7807707951689444 3.726381189182426 -0.6794417782839395 -1.5300825174446293 -0.0707269342019169
P 1.9049112849434862 3.144837995835719 1.4317427663758477 -0.41771556064989346 0.6643617440223656 -0.007633091065225565
P 4.600824840330002 1.0731545867813541 8.391352990898959 1.7616535516515337 -0.8365199834885916 -0.8895461579766357
P 8.65541882956862 1.6125839646218882 12.491497806793179 -0.991769363014621 -0.9661632324107425 -1.1527116791603695
P 6.420500062493818 7.887976862466539 1.4885114895798548 -0.31250447662817793 -0.33474863273835903 0.4459611857591481
P 1.8257421363035746 3.179117421020011 5.968963856316287 -0.7535178314637474 1.0114185047041162 0.5316434557193167
P 6.849156112655483 4.0452714365694495 6.261550539484518 -0.3934374048288192 0.5521395187901394 -0.5109473608225458
P 2.489139699929629 8.501451612431342 10.154227749650264 -0.08480372400995717 -0.34342327769422143 0.4418744172842841
