# total energy = -340886.83449850336 ev
CRYSTAL
PRIMVEC
9.10602023164426 0.00000000000000 0.00000000000000

0.00000000000000 9.10602023164426 0.00000000000000

0.00000000000000 0.00000000000000 13.32758105964538

PRIMCOORD
 96 1
Ni 6.268493119359149 2.283817138271376 10.985311321836997 0.9790457448003654 0.5464802636218331 0.4873672595097607
Ni 5.0984606074015995 0.3180878488185564 5.705964179811841 -1.3196408090171725 -0.5105712084300498 1.2465330332879048
Ni 3.182754328309023 1.9008634664652064 4.76831547747881 -0.5835221468664789 -1.3781429190181234 1.0458720583962955
Ni 3.4885891165929848 4.421610139553483 4.866899071384599 -0.4152349603198849 0.30496600215928765 0.4296503644142665
Ni 3.6061751530698145 2.655488451276741 2.6199895428432805 -0.1411805601377891 1.3855440965782009 -0.7982475702709543
Ni 5.1119101989664015 4.793536421119318 2.126882168097987 0.7675545120624717 -0.4031353488428735 0.2726708895710079
Ni 5.913176218303942 3.3819029860762546 13.179191032208529 -0.8613426989592262 0.7536741545359537 0.03687347598758166
Ni 5.988073232942053 8.10111607181852 12.533816433150452 -0.9370958827311409 0.5266038364128801 -0.05437806053024828
Ni 2.017884929700995 6.794903030509852 0.47883368836897294 0.9834230479324547 -0.18723750239685172 -0.9666334871789417
Ni 0.7857766792889781 -0.11128558122721145 12.679153976230456 2.383967988794862 0.1356560307751341 2.289217695095154
Ni 8.309880686723483 9.139348050053027 6.48249551697777 0.4289170857926678 0.7987332516581213 0.6896958519117798
Ni 8.826765700936622 2.7691406871063164 1.3953709938950745 0.6073218203892379 -0.23900049390175615 0.49381918578269146
Ni 7.014968216255655 0.7087716210169802 4.417999602616825 0.4574522171178831 1.290747780131906 0.6835750837260227
Ni 0.9182055283931779 7.460125110796527 2.4775577307506356 0.7023359092732937 -0.09045243765530228 0.15430501333488908
Ni 7.834746774287333 3.8385972079784025 3.5587710340664005 1.1136748769728821 -0.08066579058218365 -0.6590110212334134
Ni 8.073370028827355 4.21582319319401 12.387092953823892 -0.5983586976586791 0.13607126393568178 0.5962617059203343
Ni 8.378612925810225 7.758920945607509 9.064487459494984 0.18264859747458867 -1.0126359220509848 -1.0922619585147448
Ni 7.111227953853158 1.1410662622841348 0.37370377667311255 -0.07174149150936031 -0.4577584355043922 -0.44453216662210543
Ni 2.168780787399248 6.770025383823978 9.051732657257464 0.6331626927117419 -0.15825191379777906 -0.5196006656221697
Ni 0.26398625209279264 5.35170813008859 1.1162942454304552 -0.5840124562393362 -1.0523383828469297 0.8355411645150901
Ni 6.748799251164837 2.0244776881931523 6.727296295497185 -0.09061081761003749 0.0691351642347648 0.05659615122748963
Ni 3.4417295375865757 4.533969320540674 0.3057364432677803 0.30286669642809777 -0.40539611985259216 0.045038271186561146
Ni 6.256901155877773 5.837605358184588 4.694106877953969 0.7269125701713932 0.21363990364978047 0.20276465149817338
Ni 5.770912867581607 3.365639634326265 8.755167797350596 -0.8377551414472734 -0.1541674593157603 0.5490377399363641
P 0.6822075394239958 5.943426416799724 12.30148999145204 -1.3670797192254263 -0.46354804560297586 0.48879242199206147
P 4.207136050097991 6.262710796648486 12.686657336724293 1.2107381350764825 1.3108854314220457 -0.4508113147625978
P 2.353414449259714 8.776846499204572 1.280841848337882 1.0338819759139548 -1.2729696302128786 -1.1232861748104008
P 6.8307170072358945 7.952187114443893 5.588880795639939 -1.7191822698612005 -0.5961411211820702 -0.3931059896313294
P 4.946144210580727 1.5177914163988189 12.884891750081838 -0.4520989232257698 -0.8517753669857653 -0.17582797500832945
P 4.249697587656475 6.529271320600026 8.120295171177887 0.4803813151102307 0.6938852074027791 -0.5589267169153019
P 5.005998080151098 1.2367614266405973 3.759323840120222 -0.5912945917230462 -0.2553200569973861 0.2915924090658591
P 0.3154899013077658 5.534675390285983 3.6435207623626797 0.30248848715307264 -0.3038966803545089 -1.7951447414304438
Ni 0.9623150893545163 9.130150969836068 4.515051563955789 0.23338931836256577 1.1399502657296432 0.16972366188280447
Ni 1.8097395241571734 6.627142823740502 4.787893420514912 1.3645934624684628 -0.14005801649757169 -0.1839143515608897
Ni 6.476720479083122 6.06613003652599 9.068219106497864 -1.0019054230073583 -0.41064476984604115 0.6759144818569714
Ni 8.996602080269803 2.657792274340989 10.674725922910275 -0.020499919725564697 -1.4402561434091004 -0.7236601246723666
Ni 2.3988352771034704 5.543180412981667 6.8818691640782195 0.41575072361403886 -0.684843151805169 0.5099813973648508
Ni 0.7364457264500115 0.4839458080063997 9.238225768405359 1.5326014272117412 0.005290044754345728 -0.2873423755402535
Ni 2.027282342358324 1.3358349244232897 11.189116798240818 -0.06995251792973758 1.179065743673866 0.2936901721351523
Ni 4.3870254755297085 7.063175486224549 1.436006608220007 0.5075648175035582 0.2300304291926619 -0.4738183171807324
Ni 5.984603839315654 8.29314382193262 8.00769012765024 -0.5349979740138464 0.7460287221755539 -0.025633127187071985
Ni 5.527071863571962 3.3807283094940885 4.362543940714564 -0.43979156661332647 -0.5309536287411436 0.4831655627235873
Ni 0.8005612133882409 7.571437099481788 6.958223141919016 1.1308220781761298 -0.07395058334553715 -0.10934156125032136
Ni 5.3757115988528525 5.011224935640737 6.935713060437507 0.031499870380494135 -0.10493777575567088 -0.16558932799945675
Ni 0.7559553743359874 7.415979125755122 10.77337690136419 0.4983291578379031 0.29118360366321466 1.0197985012376953
Ni 4.5260561891460815 0.8129171719490255 10.78703775259338 -0.36263507473598194 -0.7634376616806207 -0.6655675914050085
Ni 8.707240082196217 7.320038098858206 4.513638309649183 -2.168807020514865 0.3171887694777247 1.7848253617823067
Ni 7.527172736180163 6.62433816957533 7.087767203881896 0.8541567227337483 -1.2237366042186795 -1.2704124110086636
Ni 2.7705703322489525 5.239531069501735 2.5136084639971132 -1.7145450281995054 1.3336893166904387 0.8509251031703281
Ni 2.6880060487567037 5.669207730014062 11.272267509422148 -1.0676840120650644 -0.4890875846349771 0.5862092067803388
Ni 1.2268722889023618 3.2256527886081283 4.0614870811334125 1.567993176447474 1.3136282842745053 -3.5621878395286655
Ni 1.704683371223449 1.1813695068784542 2.44341197689167 -1.408108869252594 1.318678445103903 1.2851718287060252
Ni 1.2894397524377368 3.723151086205519 8.282318585336657 -0.4163086530000379 -0.6424600588532678 -0.315221875559341
Ni 4.307894161583789 2.7495991681502816 6.751032957874956 -0.7865493079974196 0.5030085655914434 -0.1327439993346617
Ni 4.125491474627437 6.999651890587411 5.809998637299682 0.46585921023465576 0.04557228931316023 0.2468567567213813
Ni 8.416712513560482 7.531789488328677 0.3481978146060794 0.8079802241776859 0.7717125000949032 -0.43544974470486303
P 0.43589789338779905 5.685288961363716 8.033919107706607 -0.9646889618580612 1.2274276799170214 0.1807161563385662
P 8.8300074440626 1.8614617178525494 7.704954117977994 0.10577595538625009 0.37090888470899985 0.4931789810955313
P 2.1640547630105336 3.543471099234188 10.335672373605059 -0.41236612341252205 -0.08438180598119016 0.3648871039949523
P 4.3006366636304065 6.086400037083368 3.7213535578542043 0.7912713960634373 0.8766867855154643 0.11840058612879609
P 7.2647554513362635 4.144204345761945 10.184857559484955 -0.23575421905031654 0.07971885328788207 0.17002448095267492
P 6.682334411062275 8.241494476397378 10.208340163904257 -2.0034624615363623 -0.22258014356220376 0.26783875828968706
P 2.8322636178627154 8.74784382545109 5.522336733163231 -0.4589568266878677 0.5683778350258727 1.330211385444167
P 7.065379143068612 4.022948583218348 1.4975933533995733 0.6002746837344695 2.2163153505084736 -0.768043021663116
Ni 2.7533690604372336 1.6724207423039565 0.2530963627547116 0.20796265075934509 0.1774940498568427 0.17056544105780946
Ni 1.6226290248521402 1.0689921138512295 6.875019615821588 0.7488901028837489 0.4061093438695328 -0.41433867375786065
Ni 7.623842244678422 1.0243726157689508 9.195604131114763 -2.6129478652358222 0.2694482688686521 0.023318105900650164
Ni 2.9210837371065006 1.9623928437186673 8.89266869960415 0.4604048719883039 -0.10806706541327195 0.3009615089855849
Ni 6.014225722430278 2.3234283253444197 2.2770040140948127 1.60860735042441 0.08052875078368711 -0.8774015521943019
Ni 4.4872645438745495 7.301707680564404 10.557589723822275 0.48139612952799027 -0.20625749514278027 -0.6618724019416086
Ni 7.3623446678562185 6.5310196764432495 11.387485070092609 1.0932266364208592 -0.5924215062386378 -0.22159592527206354
Ni 7.724345387603751 4.088138580518558 7.819944938750037 1.8118011190402021 0.6316701673266153 -0.31678227806792536
Ni 3.2011393827229253 8.507572381288028 12.409417272497059 0.5426025258339816 -0.33684048227038116 0.2716959272522482
Ni 0.13093819362745102 4.930645764512149 10.360754905741311 1.4982473752119037 1.5777754526452183 -1.3156998220915535
Ni 9.090084481762185 2.4653365412860992 5.604514010804766 -2.685483570511704 -1.3983438194460305 1.531271652656724
Ni 3.804221982415014 3.164952059176196 11.754513223491411 0.19307544923486747 -0.44557500606432293 -0.9273858545322287
Ni 1.3081981536723275 3.613095728282576 12.630108041818014 0.8936177569428481 0.2553596519860699 -0.07335048786769303
Ni 3.4486501127993368 8.763843102620593 7.971519194939542 0.33588891699038925 -0.3402654487915301 -0.34310188979906076
Ni 5.725801644418422 7.97580813036745 3.5393788538386417 -0.20173929555745254 -0.07546367755595391 -0.30319116964705206
Ni 3.3046566182738117 8.064855900111654 3.467049736845266 -0.6568122138098818 0.5661556305635734 -0.3717936013067984
Ni 3.846000402252054 4.8077327063254955 9.331092602944606 -0.44042482932195115 -0.6999576388491042 -0.7547787004540419
Ni 5.455507652259998 4.824187284495838 11.037209261718697 -0.17839033641886695 0.5944423933234085 1.5250616671912702
Ni 8.175566891475807 8.909038591788335 2.530907170223012 0.3030047646678588 -0.03057375902179896 -1.0160436621809534
Ni 4.529052069731606 0.5068601967766541 1.7624929393000501 -0.3865329643995021 -0.8294954725416424 -1.2576630817627954
Ni 6.816502509989682 6.013688467249287 13.807240517582656 -2.127757301662407 -1.7742193041316863 -0.9500591277600283
Ni 8.274476480898198 9.16275052149618 11.316475415399667 -1.603871892621954 1.1890557650070426 -0.6093848735658538
Ni 0.17160112601243377 4.955332184777671 5.711294843929672 -0.6138292824904524 -0.06331058713318774 0.978757009915353
Ni 7.591880114419485 6.641748879847436 2.54182255641714 -0.23170755978476867 -1.4848933225025007 0.5258862415205653
P 8.645391994242168 1.5737205913419527 3.4044640612698576 2.0139132245560414 2.384553686095003 0.3536338996786361
P 1.8352272741841729 3.621036177737218 1.6182481186220619 -0.31244174171104255 -1.9952639848859706 -0.9216587222404643
P 4.997911934376187 1.4524375107383058 8.302976502346752 0.45628776449613667 -1.7487607548492656 -0.14503361533529216
P 9.055326803358092 1.9065911530557687 12.706115990898175 -0.4069392959699959 -1.0417356676304188 -0.53869624880104
P 6.489213938546159 8.30225894796943 1.3339709221258524 -0.5980666203395572 -0.8552317009654821 0.16894461762493485
P 1.9531138093215568 3.388850879349067 6.1449481033833315 1.3626273398810276 -0.1359069704436756 0.25343158172542163
P 7.177419613355216 3.9762164884921734 5.589187668514504 -0.5711890792224228 0.15999460752049863 2.0023293763731838
P 2.642667175093098 8.690166294664731 10.100000380152478 0.04910884171150897 -0.14575558110298123 0.33794477107815346
