# total energy = -340893.8393808316 ev
CRYSTAL
PRIMVEC
9.08884108066221 0.00000000000000 0.00000000000000
0.00000000000000 9.08884108066221 0.00000000000000
0.00000000000000 0.00000000000000 13.30243763568755
PRIMCOORD
 96 1
Ni 6.569032404635885 1.8080067465522316 11.494090734968266 -1.0490658827432449 -0.25842157874084526 -1.0323737667995445
Ni 4.589073878839 0.33064657528690194 5.860375486843954 0.05935237381638811 -0.48513219953165476 1.8123479926826078
Ni 2.8333188780913834 1.6904425907020506 4.741002032899768 -1.0181455390153045 -0.10529978708077994 0.8640932651211699
Ni 3.467510923144192 4.435090737871565 5.334583319454721 -0.11290793844534103 -0.3952022100387258 -0.5259741732486812
Ni 5.2254926898897445 4.653313805669235 2.6055352586478846 -0.9346602767064549 -1.1334366329808414 0.10030850451377564
Ni 7.35321758954146 6.12642403497279 2.7003818568987206 0.9838107702891766 0.1593070945351708 0.6061933632117495
Ni 4.96255252531721 4.769114726402683 11.648385623175413 0.47424949118088 -0.3056370600843833 -0.08228250025000022
Ni 5.71543574248038 7.811685986414339 12.436010025442696 -0.8972856927127385 0.4313763459664377 0.6414961522781017
Ni 1.839226914727367 6.536012645980785 0.41677333966663915 1.689595300232703 0.28981166301635247 0.28360013488900193
Ni 2.9780132237531447 1.5919013786628033 0.38560043346370515 -1.9421190254318743 1.2727243469712919 -0.5008573235763955
Ni 0.5814295063947903 0.07994271709404233 5.010109884844545 -0.3420294826704884 -0.12446427582437274 -0.7162977707700244
Ni 8.595943882046377 2.292060230299348 1.1173275558783269 -0.10099293217530994 -0.24193103728498982 0.9129028304247052
Ni 6.830954619037935 0.7729822797257586 4.815894990040943 -0.16430943284576863 -0.935638324349008 0.533939450842345
Ni 0.6966796433752802 7.1877097984296086 2.4551640230175096 -0.057507350187849346 0.319934707653978 0.2568336654284351
Ni 7.771604198451501 3.8387446259428506 3.8778729945049393 -0.3849249964824339 0.12709785679247787 -0.16741146880986008
Ni 7.580820341052882 3.688197066800802 12.584132681857199 0.5826348591655192 0.803159662860591 0.5709188562801716
Ni 7.847405130789384 9.036398196437998 6.892617859499129 0.2393643049990781 -0.5701063876812053 0.2398384164220192
Ni 6.927178176671167 0.701543990975668 0.26933961738537693 -1.1848126734599724 -0.5943927710323956 0.967227926229831
Ni 1.9524829600346036 6.719361831598543 9.093931467636084 -0.7121647224382573 -0.7648828787675795 0.1677554824128401
Ni 0.10440169659218089 4.624629424079504 1.3545872007481414 0.1109796110743766 1.5003255978971712 0.47273382586730195
Ni 6.418457578971412 2.071901239409596 7.001232233805771 0.14893140772780156 0.36564172277278967 0.04488914720320656
Ni 3.633991220222489 4.443179806190596 0.4614895275574243 -0.8715306952358216 0.14436872805778364 0.16525379903690895
Ni 5.881688818538478 5.495213129704973 4.721686428414821 1.113548892917979 1.2215424247808382 1.3056804901823384
Ni 5.298476081577178 2.819522017744992 9.328852553766026 -0.0965876040187627 0.7147142283329885 0.036246898147176285
P 0.4051850676365672 5.609923389541473 12.621498724186633 -2.455138952512733 -0.8760566081306332 -1.4020834889941207
P 3.9748136616779153 6.364015422532093 12.729248749732445 -0.3424907385776231 0.02893853741122113 0.21279966713667223
P 2.307674858807319 8.440042995668476 1.5256564535503465 0.46836552159627726 0.9392784922047566 0.0947214973443014
P 6.430427582315416 7.674817132688179 5.689438931117544 -0.1470205638583339 0.7434126247089455 -0.5678916394180735
P 4.788446690801086 1.159872419700105 12.607558260155477 0.010855197546949047 -0.4493527279392003 -0.16367128504113745
P 3.963688920529046 6.283433759929256 8.139255989087767 -0.2011271158947504 0.017779949691240346 0.6586348688409173
P 4.75766278698473 1.1872661858951141 3.9677443612975307 0.779164328387258 0.10706639206289947 -1.9241313306052021
P 0.4848542106222918 5.42992798618183 3.704089813837495 -1.0161637326985853 -0.9657654827516915 -0.20478425303136347
Ni 1.2043259400915418 1.1330330727943774 2.526465070271401 0.6048923850121389 -0.5921276291473028 -0.2332376232760499
Ni 1.9420580596279426 6.685215056683265 4.782691636801523 0.4217948729255897 -0.7099453461894353 0.11171186125471082
Ni 5.991736503040526 5.580811832433771 9.295636476149477 -0.6708440093125995 0.8067219262905526 1.1119080148804463
Ni 8.602651446562607 2.4738915795021863 10.26059506918785 0.34154765793806335 0.47345887695878464 0.25125514289939305
Ni 2.1998084960991666 5.348628305155168 7.140149712250032 0.2184542943192883 -0.5282084618958387 -0.272385240009789
Ni 0.5075953992077373 -0.11635170448640725 9.002225063884378 -0.005914051491589815 -0.5681310091223893 1.052219340770562
Ni 1.4866980463113657 1.195155299716371 11.304982859814622 -0.28032686345436886 -0.4536719241398445 0.3297249542715225
Ni 4.017249459409999 6.976548759939678 1.6563267178455188 0.318986999028728 0.20556226884796855 0.03401543771349626
Ni 5.752845411245694 7.7352124798566715 7.958276264268627 -0.38736394494122967 0.6352625126635639 0.13580464053785643
Ni 5.405578981657467 3.178431252408138 4.717590087862701 0.29226963763854175 -1.0434793897944028 0.5494822836729504
Ni 0.6822965527967791 7.4488958167262185 6.92457058824338 0.41470299907581476 0.5582230059800579 -0.026665939326960524
Ni 5.002070805149957 4.619657828157583 7.356340515243055 0.9627398085514902 -0.5516759488901596 -1.3522621945966196
Ni 7.994798862171091 7.0657920878324445 9.215809187333695 -0.06452363360468243 0.8123834954517041 0.37365919376062745
Ni 4.582884378248821 0.2208906425747874 10.38868501157766 -0.36764872590048936 1.1723639061736584 0.23226677472234838
Ni 8.4694090403188 6.908927784328905 4.754996121091692 -0.7179867284366732 1.1479548812016747 0.40352564230275667
Ni 7.513108477034029 6.269355145517819 6.929744865315318 -0.821690631785243 -0.5503677716016973 0.031944671227396595
Ni 2.405888872577482 5.079689505649419 2.6349331142410364 -0.6031039256531484 -0.030304050300180064 -0.352667936220941
Ni 2.3867386849952372 5.214140727720679 11.352951943830554 0.13704031271717046 0.34039168995674923 1.337257236547355
Ni 1.0179319928031372 3.190855697792537 3.8509354881184863 0.3197812127952493 0.3579448683491642 0.09760421820873513
Ni 3.6114872503821296 2.7497378980219387 2.7321609887835416 0.2756423134945059 0.4810690852058747 -0.5221152045139072
Ni 0.9021892406508591 3.2414078303660747 8.223326857676756 0.48722096373988344 0.7374741477373234 -0.28289745239502245
Ni 3.770405631908254 2.5972362381061918 7.094761859023543 0.15966087833016374 -0.4026224137621969 0.15129090909891366
Ni 4.240862209806751 6.997725759022083 5.9884508870884705 -0.2833887902091442 -0.6542922756015054 -0.054499416599460976
Ni 1.0293203103354354 7.350809046727366 11.356263917420954 -0.6482866928373738 0.4043139425320069 0.061033875283869075
P 0.21131282213142286 5.6597484148503785 8.089145574177493 0.7067065275371635 -0.31666554998440305 -0.03539663433173904
P 8.616884571267779 1.5875296462342037 8.144802908632828 -0.2847653588416967 0.41332103112662366 -0.7680957292779222
P 1.6447348102791237 3.448242580631445 10.473806550164046 -0.08348731919137879 -1.6810494675452208 -0.5439886075482309
P 3.9055748724033363 5.924333659609143 3.857892995756933 0.6762011598594548 1.6017944412676348 0.077467338249544
P 6.684215284194395 3.8669927431738027 10.54948478315102 1.3685537326677915 0.8763396865886908 0.282980499027132
P 6.112127288381964 7.800779377444859 10.303921573319109 1.7522631115755694 -1.2603393430433778 -0.6841543532682605
P 2.496931790950212 8.486532416400882 5.856917182916549 -0.3511047054988792 0.570307705058734 0.5153444614489769
P 7.078507376122695 4.074345557365223 1.6449793000968562 0.162490634469475 -1.046520747723888 -0.2935821858023782
Ni 5.414367890718706 2.9411216189138805 0.5288587422778184 0.25354265338198917 -0.3624820940978854 0.15374271307351586
Ni 1.688333979634618 0.9932103458056503 7.210891795794238 -0.6267562749647657 1.0777167137107182 -1.1875773806893033
Ni 6.972813246367631 0.754508301899622 9.238954829335091 -0.8532126136529242 -0.7794656616777608 0.14968474095405834
Ni 2.7677701581848115 1.8277931529910292 9.340119989715578 0.027894155307106795 -1.3695176392429576 -1.1052920522258256
Ni 6.448332598706978 1.8233305321543505 2.6812662069115465 0.35330197026051413 0.9117910854177652 -0.9244421985228725
Ni 3.9459929474760655 6.885960283607342 10.440484133110042 1.0599136240910263 0.16151258682692185 0.16028231396424655
Ni 8.035962222190069 7.423810616096416 0.2958072307020613 0.769648675587339 -0.9293666324076834 -0.28780594544023336
Ni 7.6236742254621275 4.155418017371687 8.310884205599658 0.2372405737878559 -0.8025464547566243 0.6067752038571486
Ni 3.1087016657299325 8.555107720296485 12.470463094293203 0.49558553365449487 -0.4661312329491198 -0.14161944744742064
Ni 9.237261578292578 5.153918068527536 10.237435793925243 -0.24620935294536953 -0.5957783385260127 0.3163341347869133
Ni 8.718661410634637 2.314109758099312 5.890039645472776 0.08334590851750807 -0.26887954084937565 0.25905098479472805
Ni 3.666029384070335 2.7759773814343447 11.248461176598457 0.5000111735260163 -0.1779409075862742 1.611245816488522
Ni 1.1705063634453474 3.1862294778213163 12.774103996887591 -0.15447907701890815 0.7048437632968119 -0.6931514145605481
Ni 3.2707284308123588 8.566886857983523 8.082001745302485 0.993285285438515 -0.3624260440489694 -0.2312758715639888
Ni 5.325760781682493 7.819138835876816 3.6781902530713046 0.8056585180230448 0.07972168150135948 0.04404274004251124
Ni 3.0156864689018885 8.665300826251459 3.647581763882541 0.022682786309496418 -0.21962337492672498 -0.5561224146972875
Ni 3.276836131835267 4.188946751112029 9.161401568489445 0.20814956995917056 1.2629163597419346 -0.13168650460442483
Ni 7.282233742831765 6.037607882597996 11.65067328440676 0.3361167167304792 -0.29558378961343934 -0.4418034548370327
Ni 0.7594571757195233 8.998952172309453 0.0930433722345488 -0.1062346401902235 0.10808146359097516 0.31802617777735553
Ni 4.475217970038442 0.6479452789633225 1.7054918933117709 1.2505118154299946 -1.9793133750939849 0.8794100979838985
Ni 6.102983914529218 5.843288466125103 0.8232890135974829 -0.9313666935568475 -0.006295088980092385 -3.3572287514823342
Ni 7.973930883676154 8.56136084277232 11.318206214306034 0.0361355693802926 0.458199636806869 0.04908544467274127
Ni 9.236443582619868 4.71832628396814 5.928204596909228 0.20886433663800805 -0.16256339668893938 -0.24582831545686698
Ni 7.919225150853406 8.65136763329295 2.3918584290223275 1.1269587385659816 1.4833604307977422 1.4746369348818151
P 8.438152516780432 1.5325876035504507 3.619579954237483 0.5938572102438998 0.3300792522871477 0.03505390628033963
P 1.777113776646181 3.2040163392823757 1.622365355282721 0.5951116514762912 -1.0491517575888318 -0.5197027384176727
P 4.91694472214317 1.039218057975238 8.300801045607374 -0.33653220700134295 -0.9463230577563638 -1.295094487136376
P 8.576811872145749 1.4109425581775228 12.371240219193362 0.5796431235270469 0.639347481366215 -0.560944261565963
P 6.244188145320745 7.9410111022699414 1.4591043256185825 -1.5789931271024031 -0.37630511602390676 0.1903325963824077
P 1.8821444210222684 3.0412170227312783 6.104301796446363 -1.0611153577086112 1.0209344146143515 0.3321500187732473
P 7.059902518988924 4.141866555727109 6.207581930082849 -1.1365615517630685 -0.6550798044998072 -1.4312724518532511
P 2.4157411760132446 8.562587836281386 10.118884589963324 -0.18637875394098224 1.380020081436178 1.151788653125468
