# total energy = -340861.8885891497 ev
CRYSTAL
PRIMVEC
9.33449089866625 0.00000000000000 0.00000000000000
0.00000000000000 9.33449089866625 0.00000000000000
0.00000000000000 0.00000000000000 13.66197097500104
PRIMCOORD
 96 1
Ni 6.609948881161709 7.6549171103194515 10.945137454917326 1.1282175506737473 1.1701962090983784 -0.12626404803727287
Ni 1.3327039046451377 7.778776467271349 12.374931264116542 0.8289537411055594 0.7003728720096519 -0.09614974515039569
Ni 2.0048339067041767 2.8533577793126175 13.143471619807503 -1.0394738681794358 1.343847488170363 1.450382947430457
Ni 5.406490334596003 6.046640371554642 11.842319227140143 -1.6521656946313352 -0.8916907151234642 -0.17181011209818797
Ni 4.281077464680746 4.092408738875353 6.13015325940162 -0.16658563047445507 0.13167879129494095 0.45709200556498697
Ni 6.1795635189655265 5.179783559233071 7.3355767162573535 0.37517023108851516 0.3286576893492727 -0.930581478651391
Ni 7.187399144162559 4.446633991540257 2.2007116596686584 0.2690266079502012 -0.3465283989821064 0.5944182249536925
Ni 5.867968885277133 2.639887311746641 10.719646963691167 -0.009910317135176481 0.2571825641274216 -0.24624817660310494
Ni 5.888168723128057 7.1903955156737185 8.55910161745713 0.8506430531535351 0.11920354164606567 1.6816457063683232
Ni 3.3316010752711316 8.325357569563788 8.631332839857423 1.1340647534831436 -1.2588036231251418 0.012618460094958914
Ni 5.370365855629702 8.34149690396501 4.476945883154539 0.8582861715210895 -0.7750009410381878 -1.4878259227682633
Ni 0.6586127260923467 6.51510112127112 5.421384447939318 -0.11926087724656236 0.25930706666959213 0.026658483127792797
Ni 7.452396000331632 4.828536009097948 4.999324517988624 -1.9087931575862351 1.212624810576234 2.786686047594659
Ni 7.049454040761012 0.4647073510104437 5.359905625363646 1.3210690568232668 -0.8768436228083029 -0.8080756121049697
Ni 7.466388401874394 3.821885864218413 8.702224562843849 0.4700891891556033 0.2197825262124086 0.6108244342258576
Ni 4.863708370013974 3.5096471506724805 8.43955946244888 -0.5243590062427615 -0.23666516090036016 0.8537900834229489
Ni 0.24518439968174088 4.60341609715214 1.6270175957210475 1.1268006157215626 -1.0085496677967534 -1.0134129094263256
Ni 8.987770366815614 1.7319587403936163 13.359316781804754 2.3691057269710494 -0.9516974346943997 0.055548683799581756
Ni 1.8995408517326338 2.236273268846414 5.493806093949665 -0.3179259047540654 -1.01583334594236 -2.7729933805989146
Ni 5.576910131104466 1.5151558596516785 1.7265176657710177 0.08622400139625151 0.08323560819188891 1.1982310037484074
Ni 2.628797936808148 1.7809088095665575 11.261945401655508 0.08097020919647992 -0.6939733962412112 -1.7900058775419818
Ni 9.026116454565887 6.153903004061557 13.211466850333144 0.4048798423378059 -0.08066553347186751 0.26457422860580243
Ni 0.64273849122669 0.38556673860217827 1.3708418332530485 0.014746047960922992 -2.3172069812192286 -0.9782289053260249
Ni 1.4956094361489827 7.628621850048632 7.168955124010231 0.34013483675093675 0.9964737104688258 1.2575049589183762
P 1.3519889624085426 9.096302490056226 5.476004286756737 -0.4041200813536459 0.9793442498773908 -0.12897296232800368
P 2.94655333435126 8.049514035214136 2.4232785884110335 0.4646842160899481 0.344164269625304 0.1258891811963574
P 8.888778093059122 7.607376549240545 1.1703920467491111 0.8248201785531601 -0.09366785926880643 0.2787070684627588
P 7.630386068788848 1.681487149238374 8.994809506244163 -0.8142094929168494 -1.437975832015356 0.7617145083419269
P 7.195660168422295 2.5406803447043034 5.579371636299146 -0.018264859747458867 1.9348646578623065 -0.5227849768874223
P 8.77037941316027 2.3441146397760453 2.023024028709766 0.769476668785849 0.006779484815678647 0.9636661770205015
P 8.250149578082784 8.51828282312335 6.634253094568571 1.3334437763385358 2.708942315755277 -0.3872299904665267
P 3.828149307470709 2.173601498360693 3.2686810073330834 -0.4661754559234939 3.65544535073293 -2.3463954298577265
Ni 1.7784258350432922 3.0545627261132924 7.462824493329346 1.2108075548618373 0.0934194907034262 1.6589261532836204
Ni 2.529133579722052 4.319087510766218 9.426595975492758 -0.016225974940559152 -2.1358498488625535 -0.1315026707283929
Ni 8.87524308156012 2.469924905281937 7.18966649195091 -2.8068306408633337 1.9740163883611035 -3.2523804501166764
Ni 0.3299630444661421 2.5790731049080233 9.206296394538734 1.0127053418363399 -0.5579460981695874 2.730968956538013
Ni 8.514194316201582 6.753541351430083 7.4264013106609985 -0.4979002978306006 -2.617447552878389 1.726679092458878
Ni 7.028731471431506 0.8584062979008498 12.084955310863796 -2.39909558846492 0.4931309014664153 0.04436104261387844
Ni 6.8152703383562185 7.148427645536125 0.21655831708588702 -0.5530769430027442 1.9484791633219471 0.029446844506207347
Ni 8.850329325911268 3.36287161907917 4.220838262468569 1.500869643326099 -1.835369907499078 -1.5049075608408984
Ni 8.417227626924598 8.635542695158147 12.734404367446782 0.4190350507922654 -1.504646593870028 1.5477624512228958
Ni 4.412787128302065 9.149779787213317 11.034637485092206 -0.03355341047541318 -0.45684363699960673 0.8159390740134465
Ni 2.9002822640060524 7.762525118981858 5.19100268359214 0.9944155423882163 -1.231167349465112 -0.38222430972181914
Ni 7.150126522841516 2.634986704134933 0.5147710249225782 -1.1175716409241268 0.9062369883687555 0.07373641045220204
Ni 0.3492369008407203 5.301047927773436 9.226625981810233 -1.5682667418238345 -0.7915994688268173 -1.5658877000686968
Ni 4.360850022108655 -0.14982977694674052 6.420961849223822 0.05327120061931471 0.7482771518900985 1.276511581927866
Ni 9.315466996942474 0.9491310132541226 4.287973786401754 -0.4494679133608259 0.029105402006388587 -0.6254720089357034
Ni 1.221688806881258 7.46741519585018 9.623232622550253 0.13053593593974938 0.22059165237726522 0.20052059265900304
Ni 8.834087312112468 5.731862676541311 3.5821686757331994 1.4060082779698237 0.036151253109576446 -2.3366946576301952
Ni 2.1479783214194796 5.284460537819142 7.1326420883320125 0.2472074551925807 0.8731772297003091 -0.1619026231764889
Ni 3.4938345234453707 8.080084492220502 0.06388338737714953 0.47727696515329415 2.896732862442121 -0.5033548931872686
Ni 1.8947615924998829 6.840585477104695 1.0903739922160829 -2.8804598363137104 -0.7283279624616811 -0.5867028585873056
Ni 3.176191139790527 6.0238362108014964 12.829314668424988 -0.24802146645344386 -1.2879833300128913 -0.08605276592570987
Ni 8.261724346537102 8.561062793950883 9.12069071387929 -0.6508482829169631 0.9715787469993591 -0.802943690195043
Ni 0.44013243737360136 0.5317709993653241 7.486254064958652 1.0134537899665903 -1.0490088042530643 -0.4223864837630016
Ni 3.742131975771882 3.862789602417464 11.720030864971198 0.6496403786517909 0.45768824438808914 -0.16171313287350214
P 5.335492198415723 2.9221529756903015 12.943201055524796 -0.4407066222284281 0.02006360351909448 -0.11597397896517445
P 1.2484227882144583 4.639755269404287 4.775952022699792 -0.19203620933707571 -0.8695085225994703 0.12030114558561862
P 8.689075999259371 3.979629422371259 13.162639062988228 -0.4364666160051515 0.0933662688679876 0.4062589820735196
P 6.772107653410437 0.46710164787216363 3.1634159558336075 -0.4385440673594705 -1.1595081332569128 1.0529693315627093
P 4.500979396331421 6.544131387313805 7.055150880428488 -1.7962040359328937 0.3251417057762142 -1.3457243934781018
P 6.0974946768281315 4.9853181147098296 9.931596589011196 -1.3993756031446545 0.27761126429541866 -0.10613693827009464
P 6.535114269308263 6.295441886378358 3.12568127722346 -0.6265318176587855 0.18219094111187978 0.6319406473791827
P 1.2290817235069196 3.5452769016322656 11.065908962349313 -0.027618018827584693 -0.4759448766054319 -0.12505125867609432
Ni 3.1685555264069527 4.351170155264197 4.061608653398039 1.7710254797847367 -4.582270961886315 0.4007899885391485
Ni 0.8058559156691745 8.095570412273497 3.376992836593438 0.304668782633843 -0.15253892257340182 -0.5019371869041356
Ni 3.6806176821315923 0.23893682506361555 3.7263846899795956 -2.315705199862722 -1.4911950963508127 -0.362233468422189
Ni 1.5096018376917435 5.648468336726084 11.070254167765027 0.43326327857650543 0.34018600170384644 2.13595834941596
Ni 7.654814430921873 0.02780091361894919 1.2741458442060436 -1.2586758392980257 0.811169420538945 -0.24372103930587702
Ni 4.677494615259779 4.1176585361890075 2.129217862032794 -0.7318357185046236 -0.969775118131717 -1.3068608836436848
Ni 2.3891255538782423 6.111823120035696 3.326484840924509 -1.2280123487758978 2.4287018413671273 -0.6913698971800931
Ni 3.881701280553311 6.052194393514577 9.200735838435316 0.5896426579419201 -0.2665642624526377 0.511615590534164
Ni 0.12627045589685773 0.4890983751807134 11.056769562515745 1.3890590517099948 0.04526864202981236 -0.7632844239322081
Ni 7.957868005629862 7.520929830970026 4.5842197170502805 -0.7099620583599837 1.3800298516281908 -0.16988178472722357
Ni 8.392043171045765 2.6485123811432456 11.375517216419095 0.09977680038002172 1.3660728752274667 -1.54940255792948
Ni 4.675151658096849 6.223090249048178 1.0272532327282218 -0.3921158578039182 -0.22597142863193986 0.4141358137184352
Ni 6.046911071784622 1.559167983250156 7.212728284647071 -0.1733329765006176 0.8939797682679571 0.7794674614499737
Ni 3.5700319709394055 1.6252095048745947 0.8388038674540198 -0.658590388756227 -0.24094913298769471 -1.1346573927618202
Ni 7.606872486743341 5.128751898636491 11.580733193868818 0.29238508017048354 0.32593720509431606 -1.0557250399309754
Ni 6.4051408209550935 5.01214544094992 13.742713251321748 0.14690949220176636 -2.6748916539284706 -0.6136238513478658
Ni 3.4512879148850613 1.1602771926385467 9.098818135296904 1.419620983657252 2.655687570196194 -0.9283381911431688
Ni 4.7421733012436285 5.993219081341687 4.698433744773269 0.9576338547834926 0.6969713025272706 0.03361177451717438
Ni 5.82427413436208 0.0783910528059414 9.187771164317411 0.5815061448777147 0.9948940246865318 0.018769824408335415
Ni 6.413653876463431 7.711092075285652 6.370850569409175 -1.9946327790598741 -1.4828552090265494 0.6856725896849998
Ni 1.6738515358547996 1.9803028651735726 2.3103489866068463 1.0565848168281093 2.381720330411266 1.8016223787349877
Ni 5.718523689346778 3.7202145916341887 4.064081359981547 0.025268287648485512 0.09393936776263821 0.6851853656359361
Ni 5.100776430041658 8.41268172995907 1.9666819763602326 0.6994141076408082 0.38444008642621535 -0.4169390874951852
Ni 5.125503495876731 1.639649961970426 4.830381437907156 0.24601497754637633 -0.03022023233712215 1.529757787115359
P 8.824108741565961 7.562776352728662 10.94370274369843 -0.36134309539743575 -1.394789783546185 0.4782174746896925
P 2.606124458924649 4.784533219990159 1.506505587130213 0.17260766829881885 -0.07374823752674396 -0.43255365410399055
P 1.8624735892067474 0.6359252464728133 12.871912616684089 -0.5913449853450075 -0.5056619440538904 1.3362658191683632
P -0.18576756609926187 4.748959475974508 7.10247581477248 0.39044566919034696 -0.8997153852001537 0.34028524628587203
P 1.6034414725879247 0.2150619982284457 9.274401772054503 -0.5546370884010126 0.8667872670135652 0.3665495792990397
P 3.141018778874501 7.275852777931208 11.032410275613818 0.6082281342535912 0.015141740737444892 -0.39321526151568414
P 3.718702404142576 2.09784277192904 6.6946939217796295 0.6942312778882882 -0.7257026090236921 1.2689419971107243
P 5.441326653847225 8.892511889334708 13.120929758242719 0.9459139952434032 -0.27688441343172315 0.10461355964703273
