# total energy = -340867.5263002586 ev
CRYSTAL
PRIMVEC
9.33732129357734 0.00000000000000 0.00000000000000

0.00000000000000 9.33732129357734 0.00000000000000

0.00000000000000 0.00000000000000 13.66611354405129

PRIMCOORD
 96 1
Ni 1.4493576802866244 3.050736287972371 10.284474849215517 1.5878978857912007 0.010027559439331118 0.5084611040655824
Ni 3.1218026400658987 6.372544349381504 3.5867666906183766 -0.5115888510612867 0.07976590447573359 0.20998765160917382
Ni 7.359910048472024 3.171327792017556 0.3509488218691999 0.3603627337620374 0.5902586942593641 0.05683886336591502
Ni 0.5033208325476174 1.3171505485966686 0.8900521369411657 -0.2657638780385294 -0.47197252222124525 0.43046180457196836
Ni 4.4855370844180005 5.591832244369809 6.825594911741086 0.775203029746665 -1.0597966388971876 0.07238580996157856
Ni 3.4305878540631323 0.42782952390999296 2.382290531372359 0.021321644295911664 -0.3606159874234241 1.1697709486355015
Ni 8.560829622050925 6.648051350415746 12.071359885795301 0.9357550524325304 -0.21478584432876557 1.3588316202840212
Ni 6.605277081733516 6.461360949186211 7.950138932359244 -1.047634549613357 0.16626527102055882 -2.1127068350871876
Ni 1.0177773544273514 6.438783306384721 6.349891074277824 0.3732586158880991 -0.6014288519435707 0.24505467051563604
Ni 1.5254381738956193 1.793428631317289 12.312485002493872 0.10312514802696435 0.28632910378439075 -0.1621553626172433
Ni 5.020649628384359 7.684017806653396 3.6104097217753894 -0.5010527274166533 1.845785960626079 -1.2170018565980072
Ni 6.266014851150646 5.769941647363376 12.97065877197812 -0.47172441076618116 -0.9069152453827027 -1.1545664729809213
Ni 7.765625994447041 6.355176931841895 5.76645789280207 1.7822897398446464 1.1201941661486385 0.820516923192116
Ni 7.229364959965967 6.8502417049333175 3.6783303303371455 -0.4275590291028765 -1.2942838183096228 -2.4130679914846116
Ni 9.008750260111443 3.8690217737256702 9.298533091616818 0.7417709753404644 1.226136986130056 -0.5063977937786505
Ni 3.998474395644559 1.9085951517116613 4.639522584209776 0.06621927613955046 0.7994878704359586 -1.3656339879178352
Ni 3.8868280453643984 2.8090397272128182 10.876654299513502 -1.139517806177915 0.012336924298798107 -0.159195508657971
Ni 5.861101914803805 0.2848816715771277 4.616276389206222 1.0781514872552915 1.2206548799695622 0.43296194528600274
Ni 0.847296542901452 0.4069064544353936 3.6181989151686915 0.2719952036602219 1.1581413348163732 -0.20982052990369027
Ni 0.3079504574767819 3.7806346906988235 2.1619110750444874 -0.5907801139804728 -1.020769864012029 0.22581587689068205
Ni 2.225008957176562 4.567173284175419 12.435986015843005 0.9910525394532546 -2.7626552318977002 -0.12564929727140942
Ni 6.066691054259236 9.5312574203797 2.2369373850834706 0.6518813521671676 -0.6584888301813563 -0.01594881001977253
Ni 6.443834797185219 7.511594832305864 0.8636573972094638 0.3969749856684324 1.197202562483893 0.9436359978425038
Ni 8.380339202136607 1.867781720493581 11.974262015767001 0.26729214175759775 2.2080579955956874 1.0268245548465411
P 0.42014677597903066 7.10247076407173 0.3442054084567777 0.1001077013568792 1.0648123469442243 -0.41388307427768073
P 7.567226592360158 2.166986842880257 10.12026311518214 0.1267139910904979 1.017068761011358 -1.2407704197725147
P 8.081031369216094 8.699815648974084 4.1950735621929285 -1.6166250785225642 2.8366559517548824 0.5504168796720779
P 5.218908970652375 5.759110354704265 4.347887228166842 -0.12363175262074838 -1.1013217547241678 1.3189409547366704
P 5.999462341202686 2.215148745928268 6.615519189421256 0.5290417564304114 0.5640457833094222 -2.1285530580908247
P 4.749456469771246 4.021873722716741 9.286889452008273 -0.47038075225409315 -0.38493553800539515 -0.6007899328079911
P 6.695251509374198 8.70848068310137 8.517596890894936 0.30708330561260666 -2.6043210427987598 -0.2800540694089564
P 2.8109538780706784 9.003792142523523 4.620963724477665 -0.5449527712337131 -0.5898946260517259 -3.2997995628305876
Ni 4.651125139604785 7.484171119771546 8.461620583686226 -0.48528620861101585 1.1263429593588536 0.13782347074009813
Ni 4.804378593409943 7.967863035570902 12.728153599197636 -0.32483343050717606 -0.853828135749736 0.6807818372516017
Ni 0.31523450179003387 7.424823105856626 4.201577940181149 1.2429705127476272 -1.4282773737806693 0.248345682562082
Ni 7.761405525238491 6.333691755627573 9.743788858190344 -0.8664234559162433 -4.778391368595093 0.6240460751224542
Ni 2.7920551398447815 9.446381170145804 13.386218122023166 0.2605111142800223 -0.7255300880015699 0.18994358847410514
Ni 4.988547917899858 5.779587100222739 10.465236051446313 0.873490904285986 0.4195819244346709 0.5138056562069473
Ni 0.030206234269157917 4.864389557134173 13.665088426174488 -0.7113285996902072 0.04501975924379989 -0.338555665189275
Ni 4.852988687878332 1.299269578387878 0.5375663919929229 0.3055249599865512 0.5996817873454768 -0.2234458339966087
Ni 5.214109587525838 5.689743395079667 1.9166859405815917 -1.5329531541242052 0.718608164070756 0.05773232171446187
Ni 5.741584202703272 3.2673528038333277 12.188602092705294 0.48992627848618847 -0.31033343711878814 0.4185295719107566
Ni 0.31478537663753114 1.6426402303242036 5.847046445114357 0.0923941347627054 1.2932224669246437 -2.299127755120015
Ni 3.0197830680025843 0.4765525999656013 10.412525939213602 -1.5412881563524616 0.7459081374372896 1.3397373226567315
Ni 1.5462323883368603 8.451713685831644 8.546254063567416 1.009465237632487 1.302406704527073 -0.2884705756074258
Ni 1.292294599408261 5.0497914080301225 4.032254956491224 0.6754010325556626 -0.8065841151611076 0.5376989178847772
Ni 7.471472362860865 0.5566304008050836 6.682100826114636 -0.5609319202707889 -1.8539489560528457 -1.1447893389894994
Ni 8.450369111570511 8.134328798955925 10.275905989497183 1.7529490818990006 4.924063131735016 -0.08621011743918056
Ni 8.576656381582987 7.808493636341849 7.516034728563973 0.44522765002723325 1.0175187040645832 1.026897831286638
Ni 2.4752118176020197 5.598853909955714 1.2651734160826982 0.045402853614831484 -0.08679658607026987 -0.17917683687590433
Ni 1.6795786732202744 7.83738330831365 2.213322365890232 1.3415548354814444 1.0545947829812738 -0.8198777469462203
Ni 9.423504733064064 3.9417595063243533 6.230189416948512 0.36380389823310244 1.3810361814055183 -1.4346187426176649
Ni 4.0411086045079205 2.676869944807894 7.486569877602689 0.31709903797739586 0.572651265590246 -0.1601748418521048
Ni 6.860550107601989 4.086637382961217 2.9229354381839965 -0.2803559169200914 -0.09049100420272156 0.3518428692164844
Ni 4.063107333391425 3.664982629599043 0.7844404973899556 0.010260758496059749 -0.49929229308212075 -0.10125801291123852
Ni 8.053990486853348 4.417552048339566 11.45254479287716 -0.8319135950648318 -1.0976985561492838 0.5754702230962799
P 1.479330481524336 3.1418965554128 0.3756777834885006 0.982289962769276 0.4237620239542895 0.29635717744435414
P 4.527583042042118 0.9717723725899045 12.092378195946731 0.13291343503299047 0.14799578328740964 -0.3686457997064361
P 7.630393570669541 0.5056663676475903 0.5707474968148332 -0.4886746654672745 0.9207508657142142 0.00798738908085076
P 4.091828933580584 5.516937590560562 13.339507238698625 -0.04272633522393287 0.23695672399884998 -0.7089233326828243
P 3.3512859846201777 0.8889932847105251 8.435955088744763 -0.39457691774990106 -0.07147872476627688 -0.03418744451498628
P 8.583594011277574 4.760194389217778 4.097578856011171 -0.9103810924441159 0.18034900280713456 0.5782830099547266
P 7.201138237803474 5.399800895380782 1.2360082931337908 1.910678033313774 -0.19372902365846636 -0.7845073378667264
P 8.675155783532091 5.489756648378949 7.542806696074493 -0.6294528479603224 -0.41458035745502153 1.2838888482285435
Ni 3.2772316897241374 7.410798449327329 6.0200455321835 -0.31071087506286493 -0.19574194032343709 -0.27739272052670944
Ni 6.0797166174139425 1.310082196404473 8.571645974996024 -1.0462435828031014 1.7759506850004962 1.561017773570905
Ni 3.47324073756901 0.4911421644309983 6.312897541186332 1.0719399591279408 0.4813261955220033 2.53154879603204
Ni 6.878944630479961 4.226351720942487 8.693752926281357 -2.0638484188235875 -0.1641705932750592 0.19620473889246856
Ni 9.464775693023777 6.164648891575383 2.1302463511948524 -1.8094645004872256 -1.4338024173639565 1.2210531438492453
Ni 1.35404230488645 2.538164037522472 7.750039204071306 0.8478780888138882 -0.48161184508322225 0.8493816699426081
Ni 1.7986015072941401 6.697184334874574 12.395861678933755 -0.013098227944854861 1.6404388931127103 0.485406536238964
Ni 9.077192824931513 9.161602209102513 12.621694130876213 1.1948106652129487 -1.4696471949767076 1.0929075625185434
Ni 7.632111637780986 2.1963900675212393 4.867117922405717 -1.0002442332548516 0.4525864043851496 -0.0842553077056549
Ni 2.5879412971480917 4.454014287851486 8.430802754874678 0.5126975107444331 -0.5226700485761128 0.48731866566001236
Ni 8.152695309870124 2.5662693745086123 7.624966719554476 -0.41544270545531675 -0.5026167294696634 0.18085962389496593
Ni 5.066663947543065 8.755923612412529 10.504991564165879 1.8602512441217898 0.38966611071184504 -1.2682441997127512
Ni 6.741377876387997 4.469290145429335 5.4509890242484635 -1.541994695501183 -1.857274420881653 0.1651560971167801
Ni 0.7234472474694013 6.405038227358836 9.094252110869613 0.5888479299547665 -1.508031708292177 -0.16077159489583925
Ni 3.1914870686132635 7.437111020631962 10.54727375601782 -1.352045193489807 -0.8199926752575297 -0.7795376525662768
Ni 1.083073241983525 8.91429391826699 5.975125547076216 0.36061932985753375 -1.9491476501438818 0.5033446087746234
Ni 7.901820162314101 1.9565796456557734 2.4934233289833383 0.03377812489170957 -1.1517156337956873 -0.5242106535903552
Ni 8.643875757318279 8.496448791978022 1.9988599700434622 -0.467235264646576 0.4029211759495383 -0.10978121989090125
Ni 5.6735338053760325 7.7249339484053134 5.979498214621268 0.2830221508983448 -0.4111289085713113 0.46275357472613854
Ni 6.866404608030663 0.154497184996705 11.934398190120845 -1.382109359865039 0.11334399754149511 1.0357321417488161
Ni 2.525605340430658 2.5895566537257007 2.422045110359799 -1.0015053593554621 0.035731649073654594 -0.25232960691049444
Ni 0.38335586275883404 0.8242688412153322 10.157612400213557 -0.0907889950591146 0.7904417010732903 -0.8378351027555894
Ni 2.8770154259699963 3.9642344385920083 5.633486034501097 -0.21374069089370287 0.34316642448840895 0.7462205264713858
Ni 4.037439037253584 4.123127634436911 3.424550342137804 0.8043444271973116 -0.5835900239899368 -0.020275976640216693
P 3.8993213812074066 7.849848632192885 1.555545432559444 0.4869818511458838 -0.628332361202634 -0.61977470144061
P 2.8189466250674013 6.477000962293117 8.07033173278672 -0.9264597431735334 1.2913373340867889 -0.3378511829230827
P 0.6952177241105311 5.189290987622462 10.898670769307396 0.21510157579697145 -0.809214096584787 0.605466512348054
P 6.679872941262512 7.393972596420676 11.375112255150029 -1.5339589696809002 -0.3744968591705744 0.4354880541419661
P 5.537862527499413 2.2433474561269873 2.7703262595456297 -0.8562657986569511 0.14983875003341937 0.23045620387617086
P 0.11106183396941945 0.656366064088726 7.651588356192744 0.24446305967822415 -0.9647493827823513 2.4042977014911497
P 1.3152830843450978 8.5162159010809 11.316197492941471 0.8257282921897263 0.5826222607600289 -1.2332869669112758
P 1.6252541381420793 2.7167122946151574 4.437933553181209 0.2876673629798401 0.10803081285869781 -0.5511815257522442
