# total energy = -340853.2996925741 ev
CRYSTAL
PRIMVEC
9.41665914334377 0.00000000000000 0.00000000000000

0.00000000000000 9.41665914334377 0.00000000000000

0.00000000000000 0.00000000000000 13.78223250677320

PRIMCOORD
 96 1
Ni 6.041785048559298 2.7214427614280146 6.1580807897925585 0.38437272352338964 1.743010996849682 0.12953320570684787
Ni 6.479885701606764 6.892015208555337 12.82711044994065 -1.3072336936020712 0.3082755261484949 1.2151846008836105
Ni 5.344377850868892 6.536903573118295 1.2005666075481125 -0.3639645921806829 -0.3122013435654623 0.6320365495270985
Ni 0.8008849824081423 2.892571709236277 11.89532072120214 0.18699607581000696 -1.252123897112121 0.19511639092429622
Ni 7.0004480393489406 0.34519306829202373 13.55642411402949 0.09772377450573494 0.8377757102725637 0.7552484410016089
Ni 0.45739162110337395 9.114007782188137 11.920831392665704 0.5412910061114097 0.33856929203602976 0.039956228677963446
Ni 0.10096542004073028 8.374526951151156 9.717535595892713 0.19261445043804892 -0.46541723760123066 -0.3024838591673823
Ni 7.81398147840684 6.568326964899297 11.111429042002866 -0.42390034930436676 3.3562157368367878 -1.5512884620982832
Ni 3.471187751002992 6.918193521156833 3.3779016165473403 0.02571565959854926 -0.16325348077742852 0.9289172035750906
Ni 5.206009460449335 2.670545718402446 13.13657671319308 1.259198287460399 1.2576288860907503 1.039288748751823
Ni 2.5745240444465303 8.325861656358162 8.954164700442066 -0.8651574447196262 1.1322516115338048 1.5813935090137796
Ni 1.268923078413405 7.754439942227253 5.4895318859145785 -0.6204889538988153 -0.587353090576795 -0.08323509397125664
Ni 8.578529456258634 5.58552907655655 2.086202464504714 -3.353762904420921 -2.65288789596387 -3.7567005354306913
Ni 4.210414332241325 7.061938823984826 10.174637183892445 1.0191171588999546 -0.0081550250069666 0.18395960297652836
Ni 7.85772186043344 9.490674150554973 8.325364456751917 -0.023171810130772994 0.24684364409525875 0.7181818751666147
Ni 2.451617808448432 3.0296217673665504 9.965505424513731 -1.0804269135530296 -1.2931957274517663 -0.8382701334104787
Ni 6.183637602886248 8.54679531472373 3.2907833938736957 -0.36355475833677386 -0.8493886119211437 2.5149237858808493
Ni 8.072986689955085 3.83010371676054 13.787607805944239 -0.08255709406762556 1.0152252800447161 -0.2518117867338115
Ni 9.000480538762373 1.6309559583691888 10.074894987882987 -0.7966432018983118 0.44496385484288525 -0.4268188085027423
Ni 6.141648719472555 7.877129595063541 7.741589969070419 0.22042144534798816 -0.4322960295672297 1.190619767060053
Ni 7.237559518235863 9.392872728008523 11.441471647293255 1.4220799867207057 -0.521588899696792 -1.9045269261107136
Ni 0.31377532650654594 2.374815535938434 4.4898932442421495 -0.37167815877485666 0.901553466850157 -0.1888423849901264
Ni 6.0615788662169745 5.947853872947818 3.6375998942133805 -0.18910386618162917 -0.34526573021959894 0.5510015485309543
Ni 1.9510564548665348 5.238920684385388 9.276986611450862 0.19456128975177459 -0.09582012972511886 2.4262163559411114
P 3.515172966169029 0.8762935893551828 3.043820206122138 2.1862175026818287 0.41822412485519583 0.2756387139500801
P 0.45941243616966204 6.219778740931046 10.710903684197756 1.7004756945906327 0.2888492991030832 1.130320713059679
P 0.9308292294991751 8.079804351222526 7.589517514503756 -1.219458545668616 1.1019555316534249 0.615363716857108
P 3.0627495744644135 6.248932717842639 0.8489137110385976 1.7337483406008336 0.6498293547341453 -0.0173181795634734
P 6.348890555347988 8.016703317861872 10.084611096855008 0.16488356018168376 -0.6268408642587721 -0.8493850123767178
P 2.0012943317474616 2.2995010955834854 6.1114833933618975 -2.3735833031264284 -1.3092337547512356 0.8048745886691687
P 7.391955062629429 5.378390823932418 7.70152490913316 -2.0335698224447043 0.5313791463143364 -2.8120078141888993
P 0.41269073983743976 1.1020881272045242 2.723230985011836 1.373123868536977 0.5852008201204825 0.41166781179391687
Ni 8.121877984569101 5.7789190067352925 5.171961645746737 -0.8697494349656828 3.101494489765665 -0.825007869083934
Ni 7.026174352308395 2.3891006079587465 11.48525817094998 0.3077731325907796 1.3929095358043366 0.8757146514101821
Ni 8.551607227579616 4.593870111897973 11.647157851067332 1.1488128583265957 -1.4318635484700306 -0.22435343341254263
Ni 3.068154736850478 1.2492422606662377 8.244448987499354 -0.7706485776067631 0.6858978183219285 -0.5633605843169395
Ni 4.128065647457126 5.375612909465712 12.199329088776933 1.5671205440345333 1.407368391542144 -1.143680936416669
Ni 4.428739576005952 3.091423301756339 10.824592894161917 1.7322105638000682 1.4384270606201615 1.4023202875952752
Ni 5.34781493148024 0.47726736369617095 5.100624802241741 -0.8863646749248606 -0.24548841561894494 -2.0534989572684634
Ni 5.884752839587164 0.7303155966286948 7.16259914426718 -0.21459121181945623 0.3193256133150694 2.6559158841569164
Ni 2.5369421575427293 2.6458929045928365 2.3780143750717895 -0.05083945124937052 -1.083496553617289 -0.9513523926501551
Ni 2.029205309643444 4.649155318115015 11.578192122351206 -0.0709274802484972 2.1413718071220473 0.8755423874983761
Ni 5.139951596097002 5.747297865110896 7.57946993912757 0.005155833169326604 -1.5951949336732463 0.11002521758090728
Ni 0.35217081276601936 5.178757648697995 3.7292795466079474 3.333416479554085 -0.9833389728590808 2.964105021239192
Ni 8.611242930351294 4.050142792501236 6.281252575580355 0.2513453886203542 -2.2143284019854317 0.28614989789404915
Ni 8.817985683288642 1.5013450610141608 12.898887993096634 -0.11875282726189225 0.14812408133515778 0.8317462162490321
Ni 7.552979935106252 3.9120474851987455 4.0965895223845505 -0.22077420070171658 1.0475697578136924 -1.057166400363192
Ni 4.791384538810332 0.3993586337290956 0.13410829379332814 -1.7243982668445013 0.6422957653612615 -0.5695898530561029
Ni 3.802381072048741 4.3005411775323 0.34337188640097005 -0.009925486643828068 -0.1708274364699445 0.7279070728741786
Ni 1.3495673478807444 1.1722704882904749 0.6809082690900169 -1.6680954784877142 -0.8416603900389505 0.9803611211776794
Ni 1.9458678756422818 8.925307348295561 3.481887900862372 -0.9726858640206086 0.27832577386394003 -0.3173191244080019
Ni 2.4672494627356554 3.4743140818604363 4.275895897050058 -0.7646651063298187 2.1822405203119515 1.527802463161201
Ni 2.1587032070879624 7.433256529920852 11.380512903902687 -0.2791984062768804 -0.3964201416062269 -0.1787988847111953
Ni 4.868554061029488 2.657164645666214 1.8399276345413464 0.17885159232600165 -0.777522679018777 -0.9125490466297121
Ni 7.725248298678824 3.242909098454271 8.32118816839265 0.7932280055691758 -0.48640978069249785 -0.1329581722279968
Ni 4.770686721868574 0.09087923636178734 9.643441554571272 0.9463102022405574 0.03176623666800335 -0.5467767118163294
P 5.08204855861981 4.6685159694490705 5.489863352318741 1.9160256707789323 1.771129609462769 -1.3695207245667511
P 7.704993064719897 8.48930661025174 4.917321055741942 -0.00967531830623495 -0.8766186512816903 -0.17743902824919117
P 6.431823073003156 4.466057796451897 1.958496557307701 -0.08770855636157797 -0.3699848302328338 0.33792754468697284
P 4.202852754896361 4.959631988900589 9.534410765917888 -0.320188475535997 -0.5460241499210209 0.005042961740546154
P 1.932872885933626 3.376861075704727 0.5637819785145076 -1.1332790243570545 -0.5554904375402432 -2.37213474360536
P 6.2212854064045136 8.649757066516804 1.3253260420785757 -0.9146671214139795 -1.359795012638555 -2.0323657748342745
P 4.1283481472334005 8.21001791476694 12.410473188228648 0.5914650558626394 -0.2547377021313548 -0.9636142407366436
P 8.359639212941458 6.221473739588697 13.887942309817955 0.20103969838726668 0.8259062125284873 -1.3331992644278974
Ni 2.9024497847466977 1.9495027060970216 13.052807996200137 1.0683134181189473 0.25546275322283746 -1.6308427647838428
Ni 6.74354274280434 4.951354745455728 9.783717760146608 -1.277738769466748 -0.42403044712432775 -0.8153132675039894
Ni 3.4951625653495406 3.6644740979304333 6.275615763377745 1.2118527082969 0.5660772119171541 2.338070197821483
Ni 7.149391338060396 2.308682338312427 1.4012393819592277 -0.159365458576932 0.002577273808872981 -0.1166576352957604
Ni 7.041749506640365 1.8720036008055454 3.7717006546793415 -0.5851545402635794 -2.879647367714744 -0.8346230235761948
Ni 1.3408569381122613 4.580084122815746 7.189860372677729 -0.47944517644920653 -1.5855173013741664 -1.397895161944386
Ni 0.12837731499862673 0.24633886324598955 5.563321769143562 -1.2734977348022067 0.3582171481739444 -0.2855960822731081
Ni 3.9957898355459016 4.824785429025261 2.708208588575446 0.5552927197071404 -1.0752636241845352 -0.14207504692760048
Ni 2.3374031489003984 8.488138944509803 13.545812480766674 -0.5291836813249144 0.03429491662712803 0.35243833670863817
Ni 0.2295508432078797 3.559629014295525 1.8448205306664318 -0.16687333691820294 -2.344784119506549 1.417399807636217
Ni 4.714601099618753 2.9650611518284746 8.512926416546104 1.11481464700428 0.23723543158153332 -0.9160192645664998
Ni 8.662733222907042 7.272033907600639 3.1567928083204824 0.06087061023312742 4.218435181974012 2.8980253560012996
Ni 3.7558533588962275 8.546719981450055 1.755966817700537 0.5549080826742121 -0.013408045875789813 0.5476472873467407
Ni 1.0298623510701836 5.3295560292736575 0.5220624115541969 -0.26517278142174977 -0.04923971086241843 -2.0193482795286837
Ni 8.919949269205544 8.492922607388062 0.300316095498878 1.135149244796574 -1.4285098015064495 -0.21055226586339226
Ni 1.557016350258779 7.118354029306969 1.8678235457825945 -1.799485792007959 1.3858487723028132 1.2591851748342766
Ni 8.075708104466536 0.21967465102930125 2.1193905382215155 -0.6591439472668519 0.020391162061842303 0.262114197101084
Ni 8.968350897540683 5.910949985507078 8.822365371486827 1.8155472163461956 0.2846056933353808 0.06834429290235326
Ni 4.886944796464998 2.83689100333245 4.114093208522558 -1.0333638986269558 0.11547904160662693 0.401840798401166
Ni 2.4931264422424575 6.495724522396589 7.632324705602725 1.3114593016476446 0.8638484961002155 -2.7214561319515713
Ni 0.5595002235720975 1.2169902028748274 7.651137307370806 0.3662490173394854 0.7023935019841065 0.6284886842748402
Ni 5.033119597368959 1.0623686586602414 11.602282761606029 -0.2653041647932915 -1.8267693103142606 1.2030168551728249
Ni 8.453551555234519 7.346237182168905 6.722642467689585 -0.5273103755616015 1.176032099053865 1.089919169314181
Ni 4.984360135983872 7.357706673085675 5.6564901953590985 2.8267641465624673 -1.189852806987041 0.15514627828926184
P 4.140231971155374 8.845557661453093 7.696288304946939 0.8870966679948787 -0.4911670928718251 -1.7399945786208615
P 3.303373467236357 8.159902454455732 5.145279541877551 -1.7265446237635427 1.988809487509878 -1.042965683382778
P 7.904927573049013 1.789221749697724 5.7054587065786295 0.8751814046145315 0.22697775840926718 1.1764843560999352
P 0.5451256932892983 3.4481451859181504 8.908076745274622 -0.797075404339724 -0.586817529788299 -0.43641082306655166
P 1.975473852195915 5.820672473668757 5.443995746976791 0.17971548298819373 -2.7150106334365436 -0.9824673688874048
P 6.58010720556997 1.9332683856204114 9.492526407421417 -1.2362128823088194 -1.5931977007375593 -0.45782374152468897
P 1.585878410734888 1.0779532296514194 10.488430402051488 0.3895311277958775 -1.088049463095294 0.1593261206985643
P 6.338381563670553 4.729884337515236 11.850239406904155 -0.69177921680337 -0.6131019174061249 1.5799655183180015
