# total energy = -340870.2384210647 ev
CRYSTAL
PRIMVEC
9.20650842708540 0.00000000000000 0.00000000000000

0.00000000000000 9.20650842708540 0.00000000000000

0.00000000000000 0.00000000000000 13.47465569117280

PRIMCOORD
 96 1
Ni 7.109164300815084 5.986154439999372 1.5581959758742645 0.9224691339569017 -0.7744265565919566 0.3505501185469898
Ni 8.006089941659887 2.2757383298517317 9.09897610789789 -2.3192134701262965 -1.4453422996827558 3.6317603484111647
Ni 2.618956952668667 5.723778165008496 11.140076451081846 -2.2529335159521393 1.898265261471718 0.7149857368268202
Ni 9.258985219071665 5.3910089289109075 11.219240452477123 0.5089426716876913 0.09764407030773506 1.7004420131392197
Ni 3.7442132014663354 7.123443594913502 8.938224031518606 -0.029345028821020427 -0.22807381968692336 0.7544280019828427
Ni 4.832993265081582 2.1681971084696334 2.289114465503307 0.9111760775415857 0.09967832712894446 -1.5965437343916569
Ni 6.030750765346078 1.9248690987847734 12.510354707058964 0.755258468303938 0.896992586952352 0.5094486647898323
Ni 4.23566581156802 4.667128814741724 1.9750473300063167 0.7864639473724648 -2.0585218644043515 0.23180371904300076
Ni 3.8072869886154455 3.814099804626297 11.07452243064446 0.21053478236189546 -1.4355122009662116 0.02927123816029152
Ni 3.335508686372124 2.905030779567557 8.595280683294543 0.16260993365615867 0.7195530444825285 0.5340019286491641
Ni 6.4032552905015505 6.136920217017884 12.849148682072094 1.8125189710428333 0.5598227463670101 -0.4943922846773421
Ni 4.183962061950534 7.739598357538133 4.743604515765153 1.0683206172077988 -0.09104404849271418 0.9793416787742295
Ni 2.200585604045545 1.3690906164292813 7.118835737598055 -0.4058285794043205 0.480009790703425 -0.9045251478839712
Ni 8.866134310964867 3.958108004682694 5.055286245007533 0.33054513617997267 0.8446492974639453 0.36460042599246884
Ni 2.81310379596168 8.101009040405664 7.01952697577934 -0.762742692496125 -0.9047372638947773 -0.8057076260934253
Ni 2.753344351736768 6.152239846534176 0.9684454785457444 -0.06448275306441799 -0.6277379221517447 -3.446642206350161
Ni 7.651059368921436 7.612106633053989 11.130159200531995 -1.068045252059225 -0.9567848765196361 0.8647892627469299
Ni 5.114021925529192 4.0619574163075605 4.368375784856152 -0.937697777981198 0.08265968108376086 0.10217229719539178
Ni 0.5101832508774643 7.255971279340804 7.485130473024719 1.6760607560813778 2.149246067663802 -0.47529798705005244
Ni 7.235072505902112 0.6708552306360789 10.983676291092198 -0.6949550434281903 1.024172461935675 -0.381936089057439
Ni 5.199154506140464 7.251515329409382 1.088915399284651 -1.4198626673544126 -0.4352340291496311 0.2347116367184151
Ni 1.4387746764105416 7.578125411572837 12.526793847962985 -0.04182850600001184 -0.8528531734309763 -0.5250282643956442
Ni 0.44655431128855105 2.8987151149953356 11.085019691206046 0.960202129731301 -0.6898832853322376 -0.6855707739998128
Ni 9.260274130208852 4.955375377557588 0.5877416372561314 -1.1598554892940025 0.9338632347264562 0.533537587418236
P 2.9872541036120324 5.0734028116915235 9.242414425101488 1.3869507471177405 -1.5048509965713501 -1.7705426266110473
P 8.639018962084206 6.665088381513183 12.91989056983666 0.04568927450699874 -0.3879416718215706 -0.3406763110767036
P 5.078751792910854 0.21596902949641925 0.8123334822603386 0.3053915197324805 1.8037083147297388 0.12558836212648694
P 5.6408827658710585 2.76916113269169 8.816467040944136 0.19376193377893083 3.607211455427207 -2.1350340378294774
P 2.719280271682512 1.8791311664308428 11.072164643914219 -0.8146416953582616 0.4371764975879826 -0.9601630489632496
P 6.333129318130397 6.957072786626893 8.683256233614127 -1.0501601442486883 2.1741639139514044 0.34403982823229784
P 5.379491587249319 6.121701859090941 3.1144779187098046 0.29813072440500915 1.022667081034742 0.7512557749024481
P 2.6184505947219145 3.539543319388994 1.0071210985186967 0.6321319374543823 -0.6725093128301645 -0.5480920881936431
Ni 3.1036888118407284 6.2961007424606095 3.0569685450700983 -0.3006347217737855 1.5470443421099487 2.8995387073220322
Ni 5.101878541315257 4.310487103081787 13.270513987136743 -2.492906401069494 -0.795391845989714 3.325222630889383
Ni 5.272226561110905 8.030919894067003 7.080432630265537 0.2848322075238901 -0.6198749744639003 -0.48930792817589924
Ni 5.135730871682689 2.344695075691293 6.460908285667973 -0.14013412115114574 1.0055592177098616 1.1143893865414034
Ni 6.11036864759181 5.856084893240851 5.610509574923221 -1.5886771871593866 -1.1099151528201336 1.8484529659352813
Ni 7.686421566621003 4.980665655370842 7.499332432454906 0.17982038399717418 -0.18387192835872848 0.17043380057595164
Ni 1.9111882277143342 4.11121223476439 3.967908332579385 0.1385526355966388 -0.10839205285285847 0.19498732154559967
Ni 7.018728771525096 2.8762052026351586 3.850773929733358 -0.35465282786145375 -0.7998056587866936 -0.29486285228701475
Ni 0.9182230560852116 8.295956849905359 5.187742118671477 -0.02915039631171109 0.3019225873472736 -0.7630836207753117
Ni 1.6369723832775742 0.6929775490042874 12.636450724911697 -1.7362523379696098 1.8272475355022595 0.12082282241704355
Ni 2.7415139887990057 0.5060707036990221 4.465190503624409 -0.21343987182383242 1.1333564145622095 0.4393601355028626
Ni 8.290405325507328 8.96642080394622 8.750171896602868 -0.22120408915028358 0.059607684360303795 -0.1839439192472445
Ni 5.035177389965775 1.6404616498561049 10.319914674964714 -1.891431526379336 -0.2122435375228861 3.083219088495245
Ni 6.737156927098241 7.831166287327222 4.807932229320584 -0.22852504829172904 0.9776416653639872 -0.9993122083588855
Ni 9.07178008290322 2.073213564166996 3.195703257273772 0.14182230748684607 -0.9516894642745996 0.19409592007958187
Ni 5.004087012035174 6.142278404745336 11.106322630351327 -1.2120869357948931 0.7852388167161122 -0.7944742192714511
Ni 8.287468449416163 7.804817261079848 3.041660884014365 0.191125010376716 0.14308780446283098 -0.33666590436572985
Ni 0.5590550785963865 6.1597799766867265 3.429003538311309 0.7317938095230946 -1.639524351718241 1.31682905059999
Ni 7.553451969803809 7.199019820093337 6.992550986328807 -0.5372597734648296 1.3190196304934056 -0.9463040315929703
Ni 8.84469235354693 2.959293938443175 7.3973031474859114 2.0757729381753154 0.4822983296272855 -3.433383798678358
Ni 0.2279236802938385 0.15820463558171174 1.4207538574110279 0.2716959272522482 1.730084518596001 -0.13877246491692874
Ni 2.9416266493555754 8.812138140824809 0.6873947224786385 -0.0632275405010782 -1.1581367068306827 -0.2357112816275231
Ni 8.15988465985079 3.298977262140965 12.676362778925537 -1.8355609404639615 -0.2202710358130529 0.7956229881639136
Ni 6.068810469925617 0.841838499492198 8.330826499420358 1.542536684047582 -0.8679146957497892 -0.9358021036203819
P 8.755996854292146 4.257761431062673 9.503593854036403 -0.3765398577425322 -0.9006646364873004 -0.2778002403777732
P 4.135379318586667 0.4693192439237291 6.256187767795956 -0.270415774988244 -0.22330133799894447 -0.466883537734112
P 6.6238524316312875 3.6119156797421037 1.2922328453187573 -0.5542732773036906 0.45120546487722296 0.3848864299350146
P 9.038139502222613 6.441554364292282 5.505002991836256 -2.308070051914967 -0.8215978149611205 -0.3914985359348935
P 7.7585085252223065 0.46764458009619686 4.022265397837854 0.04507529507208366 1.3326657605219308 0.8139891493759273
P 1.5538376149289443 3.469923704964593 6.286465211059316 0.17181885384893636 0.8052288866847939 0.33540863491986106
P 5.9617571934740266 4.116404705345634 11.569864790428015 2.3837389035031915 -0.9337863587419336 -3.216340011553351
P 1.7212763781577962 8.435877360355246 2.754636945477205 1.4209235045187594 1.0138561676113311 1.8637718556805385
Ni 2.316707290998066 1.5908109515499962 2.2131856310623705 0.043756576260660124 0.31623051932951346 -0.05536716391639497
Ni 4.072268705405065 8.866253995570462 2.7644602896442025 -0.7248785704605 0.08295150129256683 -1.0557849466346334
Ni 0.13391878780465183 -0.012190337405362225 10.891658163055904 2.1967083749108234 -0.6040894294948693 -0.0662375309719956
Ni 7.401139499420671 0.4897825495282141 6.324801110882538 0.11154499665954339 0.4198943134687671 -0.4119724875185292
Ni 0.6908664966917358 1.7382900051686787 5.285473805648762 -0.6367416683122518 -0.9250199254032133 0.3142669678452394
Ni 6.598810729537348 5.302782961570384 9.721613172891763 0.6627913142114521 -3.6363009165939952 1.178041673284726
Ni 1.1242803589366546 1.4413064661443038 9.329177478301302 1.0517066628002014 -0.30433659610540487 -0.6945115281328684
Ni 7.2886543831766435 1.5248463208503356 1.1407885486515967 -0.09899107125393274 0.49100202804887044 0.18121443613122337
Ni 3.811568014892534 1.783558405608348 13.018753736662235 -0.8285279664220505 0.3879074761495255 0.8321429374668184
Ni 7.327045522048603 5.26689599290782 3.8035445430635386 1.0487195551474195 0.5712844671497065 -0.6506929882860213
Ni 3.8170182677012154 0.49271574301612925 8.547283473847283 -0.7476063510753189 -0.4569590795315485 0.5179443609656693
Ni 0.7822088670318168 7.183055735008451 1.452055985028452 -1.1772027223231984 -1.3003459653433025 -2.464917886276368
Ni 5.177454766495091 8.502164218839203 12.347500784875253 0.4781372562710604 0.1308894626244262 0.21691137531220062
Ni 8.551547928409752 6.495053382993709 9.33774781671279 -0.10833548858331019 1.5106766021141917 -0.4855289207494412
Ni 3.0897593650509747 8.912636383492988 10.928591911692028 -0.2055373291473041 -0.5478928276986436 -0.5193661810138605
Ni 6.389427115301147 8.997778170612381 2.509573509011202 -0.14419800680787423 -0.11581688456201991 -0.15163389426062918
Ni 1.8717843729488706 6.0013451784019445 5.770763579213063 0.2372439162219656 -0.9551023466108906 -0.11088370892646066
Ni 1.028698391606037 5.279324778873562 8.355013837560504 1.6040102179720312 -1.9972025966695794 -0.7415125794727552
Ni 4.770886161285363 4.893056524074545 7.681308272009615 0.3023681595251244 -0.05606418998341957 0.4918558914087335
Ni 0.3671417341739578 2.5289449227523266 1.0433238504098725 1.1576677376140643 0.670331074231923 -1.9857529600717414
Ni 5.48764043816752 8.615947452728541 10.055488110614897 0.39219864732571164 -2.3540485755276106 -0.8564586313940475
Ni 1.6095277825635914 4.260551003023873 12.73276737159051 1.4915946457820763 -1.077940656796066 -0.5915437316193747
Ni 7.613588880861754 8.238756814938577 0.3324276746462342 -1.2218170185984634 0.5970932006826942 0.3720103453032948
Ni 5.332483156774446 1.1130115929943818 4.3857171635562056 -0.02177672955545927 -0.6218194997847807 0.7069428119176857
P 1.5497683383386793 7.704825376358423 9.560766269478815 -0.2967729248255341 -0.012541584110436465 -0.011706489803650806
P 0.17581392366813747 4.146832214691394 2.542654333997946 -0.734208075391542 0.48646505941046536 1.6298060959892124
P 6.846272461369333 3.5853641103160294 6.0917972794065545 0.37379983310354975 0.37275210856532576 -1.316410475005333
P 3.928251298840545 5.985804592690707 5.9039200681451485 0.9600967145016884 -0.6265338745413146 1.048656048899336
P 9.479112828287139 0.28396001263390175 6.9903009157436005 0.5397815114454187 0.29703543445830133 0.29415631313829343
P 3.6117683756121393 7.011299119470019 12.537236790126647 -0.14393369740289405 0.4660322454774103 1.3536241079411526
P 8.45608564568473 0.8818987782868152 12.802619910670419 0.6415087506835919 0.8643606598499436 0.1477389300815972
P 3.485105236859044 2.680410394388169 3.891682127926083 0.6262605662752698 -1.207606017205404 0.20150995315546588
