# total energy = -340868.8487358267 ev
CRYSTAL
PRIMVEC
9.28200012497378 0.00000000000000 0.00000000000000

0.00000000000000 9.28200012497378 0.00000000000000

0.00000000000000 0.00000000000000 13.58514542185299

PRIMCOORD
 96 1
Ni 8.636334811154894 0.529997559807294 5.183643363695743 -0.32184966528850373 -1.0848242712897769 0.20314388921446302
Ni 3.4544448172618223 7.215919630991314 -0.10506945556004216 -0.20191567323431678 -0.005552040166480761 0.8091215368709808
Ni 7.117484020841376 5.272333802030837 3.838210964246376 -0.31558054445034034 -0.9000835671728499 -0.5855648883281206
Ni 6.530843055947802 4.540921482916747 6.204444310050631 -0.04788448238610463 1.272466722434531 0.9129421683030728
Ni 5.221357057953189 6.5762598820169815 5.206085383329927 1.1504213404642962 -0.07169032655645073 0.8682761928542658
Ni 0.8651158165177474 7.503865835429915 12.54647941911084 -0.5262161140561582 -0.06417139247158625 0.7133152911029328
Ni 5.458966976315117 8.308865850656094 12.904733060856534 0.6469710593497439 0.9450387917273015 0.008411878212779061
Ni 3.661721159577546 3.6589922515733897 3.069875777276045 -0.6808029202975243 0.8752014592191895 0.12960185416125422
Ni 1.842244952806114 9.16349671995787 8.036374176241033 -0.43083410030972247 -2.4010128600922904 -2.944960844210573
Ni 4.713158275179098 6.446321163819059 11.121220891339881 -0.6162499761168032 0.6775823564776976 1.0159019943967664
Ni 0.9286269734144877 0.4401663636704629 0.7399369079270743 0.33719709427885153 -1.366795355215788 -1.153656302461826
Ni 8.026043310225297 8.973225001668046 13.143764053420625 0.12307253768316868 0.3198097520403395 -0.7837439773381406
Ni 4.437631386759415 5.131405195816174 6.92646788615042 -0.9714098255216624 0.8149540843923578 2.648230085476884
Ni 5.5861118125087845 5.790445760820027 13.497833369559947 0.6042092429021853 0.6581808120226341 0.6516229562994584
Ni 3.0071823645805504 1.7161768286140864 6.4281785665914235 0.4334008325956343 -0.48931101349969275 0.27076055992217235
Ni 8.148073764411173 4.015968690117137 1.211718691845694 -0.35463688702185375 0.6823682079021152 0.12423776163586346
Ni 0.26188606119890573 8.813416807424627 3.044498789237391 0.4968618292637572 1.796056454611436 0.8953357680752194
Ni 9.292117394153784 2.3834319636304517 13.558016001251618 0.4919672201756172 0.46095097429976095 0.1907768830086779
Ni 0.8208054048502537 2.128288347241816 5.5984791493276225 0.9996292253786719 -0.3347005531092429 -0.06264878517947274
Ni 8.903582155561967 6.017641275166092 5.166743626270001 -0.10332749384575754 -1.61301782078728 3.2564821309898755
Ni 1.3546522100634109 6.393200277738145 8.575038339461527 -2.139505700447586 -0.09556996138752574 0.9337303086930178
Ni 2.532974265858235 1.8172670907680675 1.855173850625807 0.6636801445743087 -1.3264066669860963 -1.0886045642678155
Ni 7.034363710714767 2.8089838182786537 12.686732295724473 -0.5085156114526017 1.0737068212203766 -0.11426856623829353
Ni 6.872829064468716 7.554174275506544 11.162289100402438 1.413842686412578 -0.03123838918899136 0.33238656026408564
P 2.4812735257794842 6.446553213819412 11.600450552069846 0.8265788131154796 0.10191441554831479 -0.1562330835955374
P 2.261485047444702 2.0432837911123367 3.8669304004901215 0.43116243018341877 0.4910159120059415 1.9865464025073143
P 0.2962183228512008 3.8635768138850133 6.995181604055085 1.0656466699200615 0.6630157715174324 -1.1514621230239845
P 5.73687005673842 7.551547469502543 1.4147438781549426 -1.5593383289859533 -0.4970178952256472 0.059277554714394685
P 3.48624494931026 5.662446980625059 4.27352005730944 -0.42113744184724894 -0.23613499942850302 -0.37158225662694067
P 2.1179760452261083 3.354691163109877 0.5061929425710348 -0.15920733573251292 1.2909526970538607 -0.756983935635477
P 8.965502377656284 4.034978226146093 3.2851058654038847 -0.3029633699069621 1.8997922396392055 0.5618184366408002
P 8.410002522810146 6.28880562357913 9.887717345461004 -0.11766833594846186 0.3387099313789521 0.13516880672607043
Ni 9.098030773858152 8.001752316188297 6.932458488959544 0.15757468522509638 -1.0328831023357954 0.14383393860023616
Ni 8.452458390874813 0.4248074382470682 9.63137913567055 -0.1903156271015432 2.28180366201927 0.606585970664478
Ni 7.54048332548569 5.261854424014874 11.858676720663178 0.7715808596130453 -0.2949767521570597 -0.06391505348640605
Ni 2.544391125875625 2.0245434330837915 12.451532912766218 -0.8282528583837928 -0.5891757456078305 0.8509492715400441
Ni 7.759956215819992 2.6526749380405636 7.564670361122531 -0.280721013568994 0.9612966483470606 0.9522409659026955
Ni 6.28568687157438 1.954946996977782 1.2785834353475427 0.16186559929096642 -0.3925429180390078 -0.7340746351374713
Ni 1.9360766909490386 5.546041418447749 0.4906845769474124 0.43316737642858943 -2.4600189063128535 -2.5700870613165545
Ni 2.881058548388438 8.17865795445776 9.716910909400832 3.157335250884369 -2.40161526956298 1.3158587162669206
Ni 2.3129815835231415 4.108073976257432 8.136809129194015 -0.7509019911074551 -0.8125547309222458 -3.1625270794979534
Ni 6.7829978683318854 5.168217607872246 9.006312547118446 -0.5026645519884634 0.73498789098036 -0.8325471148837726
Ni 0.05986704369118969 2.5358238398625756 11.247331712731974 -0.7192632811562516 0.2108991076798497 -0.6645679464959006
Ni 4.716963895184895 1.6598258065282525 3.0746448688833095 -0.04099444013449069 -0.0895857187796328 0.6567474220102173
Ni 4.570252602961424 3.6518915215625736 13.461696687104903 -0.2839359209618659 -1.5989839684020333 0.9499573120748415
Ni 7.28548822109728 7.942152594097514 8.773897764164431 -0.7109794438809045 -0.8964675676868173 -1.0957332048927968
Ni 3.5359686233859993 8.342782278707753 5.6257849369692146 -0.1180527158710741 0.24864495897005565 0.16673706845065478
Ni 0.6080990925262586 8.013856044206733 10.014602285654277 -1.1789089063810276 -1.4612797968486189 1.0777336829915825
Ni 7.1101512408302066 3.0949808027142853 10.160384449676332 1.080263905612604 -0.6417362933133657 0.4576090544107216
Ni 7.765246955828051 8.098377936335476 1.6241996340739864 0.34222154407663646 -0.8263129610486027 0.1469082066501857
Ni 0.8976538675673095 7.042188436726685 1.6382730024954228 -2.077005782141152 1.31907979430738 -0.7710185593516722
Ni 0.15754431443997205 2.0896752271830006 2.930546459663818 0.2486403309843653 -1.5156537436138091 0.2054342279105365
Ni 4.0318130641412715 1.100566741676387 10.818136673078223 1.9173762712695561 0.22042221667893652 -1.808725308328356
Ni 4.583813604982081 -0.1993346631036272 7.717136493354768 -1.7652914055144373 -0.30014775483503786 0.22060065123832978
Ni 4.84919526738631 3.3231045170617644 9.992187183820134 -2.1641078152669824 0.08003252787355894 0.38355588404904906
Ni 1.6376139804944192 5.205262069928673 2.7173546987390838 0.1263900320921759 -1.9371879066788444 0.83860411971113
P 8.251438116568618 0.9658663574712109 1.445703989202101 -1.0633157077940396 0.1937616766686147 0.3905533984128048
P 5.3272182681144375 9.55396261455263 4.586915649386805 -0.6635577600638315 -2.2043525217196422 0.8058420947887605
P 2.3830142736298154 8.540748775009298 1.735624475043709 1.9593713847544192 0.1606381546417685 0.42071218138437216
P 3.0617141146636135 1.4436573081989839 8.712194740870444 1.4808011547109983 1.4884093060755594 -0.6397038362643692
P 8.929348987601214 5.782537496807981 0.043549287666334424 -0.0860242266806196 0.07548810303598612 -0.053404126652753195
P 5.007648289627667 1.391418212119413 12.85564984478177 0.2033359506206111 -0.29874753205340165 0.2254808621487665
P 5.43152010227331 4.538758776913453 11.679760601190651 0.9113120888988177 -1.2586035912991935 0.1620851715009402
P 5.916708807012351 3.376169711142593 4.205037461205127 0.5829891571811443 0.30497474391003604 -1.0164259852210367
Ni 3.2111728788912695 5.445229616294193 9.62647452686308 0.23858088986583428 0.031198279979675305 1.6943389855652753
Ni 1.6492443265121346 0.7675118735690767 10.200189378536964 -0.4714978965776718 1.1696544776622952 1.1055535334173283
Ni 5.897838500983608 1.954417922976976 5.940186697848112 -0.003507241822310089 -0.28565470342518545 0.49845565611343834
Ni 1.6269025524781033 7.026492574702777 4.1688868557500625 1.500185729885197 -0.3887135169905886 -0.9248839140459814
Ni 6.571507498009742 8.878622857523949 6.336370304451581 0.20134797365630486 -1.0632635143998657 -0.0008662046550372178
Ni 1.7400594146504644 5.939199093046609 6.400709415749582 -0.05370083195756559 -0.2463728751064273 -1.3055421648322612
Ni 4.2477959224702575 3.632390039532869 5.531843671226124 -0.9041410250716752 -1.767270126507363 -2.0409763993214205
Ni 6.156583533377729 1.080907465646442 8.651441266177905 0.8259321806704162 0.9906460480434552 0.7822028581032657
Ni 4.092767958234118 5.671162778638334 1.9124623547130692 -0.7895742108666723 1.290165682376191 -0.4377609093365429
Ni 9.055955467794062 4.249810116473325 9.038550789567552 0.43679623143042845 -0.4297097568972922 0.3142913933252717
Ni 2.0735709571584704 3.0796283746909006 10.050317565308678 0.45883161396391303 -0.22710888467049273 0.8719847520541046
Ni 6.8447046044258775 7.730690069775413 3.74868514591001 -0.6165412821049769 0.49024149573376213 0.8312751901498845
Ni 5.7062487386917775 4.143419832311271 1.9334109005449782 1.2867376305312483 -0.6595892623343866 0.686878694177959
Ni 4.9874228115968595 6.760618966297797 8.566357813048306 2.821726841248876 0.42770532487275376 0.6126054373856804
Ni 7.034502940714979 0.9306597314175842 3.461467578472519 1.019550132672315 0.7049116404202698 -0.4438143146194744
Ni 4.41409223472356 9.434224814370243 1.2151901598509818 -0.46585921023465576 -0.3432116759040476 -0.12814095334501158
Ni 0.7249520471042494 5.331497270120955 10.90493172701043 0.8973777382059126 -0.11014888764296514 1.0961407247438604
Ni 1.9566456029803692 4.017732270119824 4.837683730968776 -0.42893302663226773 0.7631386423829631 0.32019798861769366
Ni 2.874598276378598 9.067446583811565 12.167412748733444 -0.8843237332354317 -1.7069816140299505 0.7727705090457724
Ni 4.241094318460049 7.634472857628855 3.330425230472915 -0.11824966237322859 1.0790580582299611 -1.0221423188795236
Ni 8.096428716332507 3.192144778862286 5.322619037107431 0.6715258658709726 0.08100054821378308 -2.607209420090148
Ni 6.8223071383917615 0.867095667120763 11.471785324273862 -0.7460410634707281 -0.5052186858688847 -1.0629195007968855
Ni 0.8948674111630651 1.8902421748792233 8.011798224803599 -1.017084958961274 1.786327143138814 0.16954342755119833
Ni 2.8811513683885797 4.166012220345684 11.95479183080958 0.1678758100407883 2.4978580886478143 -0.6290121608784779
P 1.361771504074255 8.526157470987071 5.503967040583661 -0.6304149547632756 1.9256433963743547 1.2229377624664681
P 5.23179002596908 8.267449566593006 10.036881870288212 0.20123973021321473 2.714326462885325 -0.3232131212949337
P 8.824016851440772 6.8368334684138885 3.3777021693449276 -0.9485136376497793 0.82450007620958 -2.53635110251669
P 8.333806584694083 0.6546613173971824 7.470050581178406 -0.5025213415423797 -0.7413284884864071 -0.08909772339962074
P 3.206977414884879 6.707201056216431 7.74501312399723 -1.289181721196367 1.4652120420234895 -1.4064597636849454
P 7.278099749086026 6.661914178147451 6.83844946461635 -1.0582789167010807 -0.11264877124668342 -0.4817650828316348
P 0.21031898192035858 0.38796253919094587 11.717799165448591 -0.29535984652809133 -0.13715806924195734 0.7790676549083938
P 5.7164960667073865 3.435203231232513 8.100482165738683 0.48048724456047576 -0.629010103995949 -1.420769238329082
