# total energy = -381172.93009999837 ev
CRYSTAL
PRIMVEC
9.17545848989039 0.00000000000000 0.00000000000000
0.00000000000000 9.17545848989039 0.00000000000000
0.00000000000000 0.00000000000000 13.42921096950839
PRIMCOORD
 96 1
Ni 4.7469602344492055 3.4473299203357466 5.190618433918528 -0.4482039590467378 0.14286900358380555 0.8102348245398174
Ni 3.3040367825975765 8.649145166444958 2.942071361673302 1.7457109122793482 0.44881742426102067 1.3230148676957278
Ni 6.963512482381632 8.476270350018956 0.1397780195293276 0.775776899972264 -0.33675666430732326 -0.00939095429659673
Ni 0.9579178830674878 8.327159971496641 13.298034428658736 0.13666261766277754 1.3875611270082298 2.275135248860159
Ni 1.6725026027350733 5.227790969547564 2.5795370623127236 -0.9910327419589126 0.8034707663431065 -2.208747822573861
Ni 6.670879579654894 7.009775144895293 2.6232085753036047 -0.5277526053053426 -0.7636844875841041 0.47963055298713525
Ni 3.5779333987608677 0.4844256797974566 5.074576408371072 -2.189082225824133 -3.3228258485224322 2.3825099161920966
Ni 7.489853492384346 1.682173536152249 12.643280122210673 0.9600532628582626 -0.22257885801062313 -3.251362550375123
Ni 3.7551573825870026 8.163579894683162 13.320219770128745 -0.1817980765488353 -2.3577417081084815 0.8854102814313912
Ni 6.749412330240858 2.698502388986093 6.254762436869626 0.5899915566409065 0.5087110152928593 -2.1525879875528413
Ni 2.2309393670957385 3.0146611676916146 1.869950214971832 -0.8822691646992483 -0.7283639579059391 1.070720227788227
Ni 3.268903951426452 4.6438831319743 0.6995828447747183 0.7073379904735753 1.540076652542864 -0.4141352994978029
Ni 8.372917983784548 5.940889264913839 7.642335851960563 -0.5855204082434304 0.003353232742949063 0.876542546628116
Ni 5.947605700645691 5.119768294860269 4.261907870825949 -2.06927550337643 1.221110479449742 -1.1058237563595792
Ni 3.487022954455957 7.822344587486994 8.999370588026466 -0.3411717626558834 -0.4359511098213137 0.38245339501348974
Ni 1.932269012577254 2.014270086532945 8.43535789744415 -1.972454186080306 0.2354983942857686 0.02765684248532011
Ni 2.756261901188295 2.44474590455971 6.199649126942106 -2.008320818069928 0.6363709152363944 -0.8496914878735431
Ni 3.673174659548612 2.001974971941849 3.7018828345729564 -0.9976685021078753 2.1843285131892314 -2.569976760990935
Ni 8.789410402828604 4.06304907304881 12.370438683792141 -0.7705416197152536 -0.6099579724605043 -0.43915778968406943
Ni 1.6408289194750256 4.960941105627528 11.654151916544967 -0.0024721156895763877 -0.2988696594535627 -1.1382088575585043
Ni 8.915857398485242 8.948155012933494 11.204460853013222 -1.2420634275523255 -0.7304959166472774 1.4711003824834665
Ni 2.653184798713389 6.386660572510272 7.37461064928531 -0.37358925975464047 1.4715744939064075 -0.8902231294390024
Ni 3.0172853488655353 0.8178783629666331 12.126255872921242 -1.2699282722833936 0.09297314719462696 -1.9504797386917443
Ni 3.8326257799695584 5.759508798319221 12.03219732875349 0.8218747227715911 0.6142015782282068 -0.30681359689098775
P 1.371694366351122 1.4790931098502118 4.219901703580056 2.286993690860642 0.09150556151016499 2.090540326292477
Ni 5.775886992009598 4.919807524499257 1.6643355269906446 0.2773736943633158 0.3127358759126937 0.23783167040463557
P 6.822127840042677 3.637353668978732 0.3029029935937627 0.4931807808677442 -0.5607385733130601 -0.4642139613217489
Ni 8.41928157634336 3.219539983889066 7.977972294288457 -0.045741725011488966 -0.9034586542926699 0.12308127943391706
P 5.081781896048973 7.1625557068776375 4.477970653571973 -0.7719115034795867 1.224177034190208 -1.4677096116343626
P 5.689307364187521 6.710939632121107 0.1601080832602915 -0.7680455927662774 -0.4011478860991995 0.05657815350536063
P 6.8762446951608 7.58637014192445 7.775795650663451 0.22960131207504328 0.08146000434870486 0.7160707423608829
Ni 0.18076387577333297 3.507117208899614 5.913875797102162 -0.4345855969323548 -1.523947351081169 -0.007151780553432845
Ni 7.251098882850829 4.6699139081645535 9.402731090650537 0.4122797343463029 -0.22976714822894623 1.513356205828884
Ni 3.7414492473637955 4.558670647491084 3.1337604560612755 1.4934610095668537 -0.6066289080872714 0.5061077733420575
Ni 4.666950235020581 2.912877804886369 1.630735914959947 0.1838873549776962 -0.5384339962785888 -1.0398806166995511
Ni 4.657939934626209 1.5676821631166542 6.881557285719191 1.1023663939385981 -0.7168598139210816 0.7407433054068985
Ni 6.428785103172752 3.5537652406765785 11.57502643133021 1.0168903264519649 1.3740558934329432 -0.4338140088736529
Ni 8.906847098090871 7.322401372020537 1.9369622596767657 0.8561305586306674 -0.6541912312472669 -1.0310190525438632
Ni 3.8045672274176394 1.078712796195682 9.072949508487255 0.7767212661634042 -1.25133431133129 0.393459002095374
Ni 0.09315751412831318 0.3550159285427101 9.12580749067859 0.4569467382363744 0.8577213001565551 -1.8381618684219179
Ni 1.3076496649736216 8.36400861343533 5.213985574462666 0.21937320658913187 -0.01903541936489625 -1.4582096425637274
Ni 7.670995397054062 5.004230919538567 5.56635438318483 0.6174247131511947 -0.4719542673888001 0.5158237150782407
Ni 2.657478913361623 5.491530352985225 9.49622534411131 0.9563645011527658 -0.29054057076257706 1.2541183018343305
Ni 5.422796992237538 6.267342908224739 9.132534936960822 -1.2629137886387736 -0.010791177078233028 -0.03160091473473268
Ni 6.346490414540258 5.958937392078529 11.477530760352142 -0.5216025265435469 0.14141555896673064 1.0618254964017584
Ni 6.229815282345947 4.883647041959324 7.290637769265718 -0.5924009374133474 -0.9215458508116839 0.41868100988695633
Ni 4.316943189354944 6.747815800435745 1.991377317201016 0.29567454955503275 -0.540797868525075 -0.2127035078784401
Ni 1.2206112642190412 4.625467986463606 7.866576721001396 0.09618316949149242 -1.4066780503433387 0.4864606885350913
Ni 0.7204570132036316 5.727770886848623 5.897988490449563 0.9037111366231082 2.0797558340824636 -1.6766410540648802
Ni 8.70571186902265 6.804520134893189 12.076513876487473 -0.28082591457797446 -1.0829303967011736 -0.31025193314857535
Ni 2.8507507743667335 2.893251498833866 10.568077649874333 0.13706576663846717 -0.09994109387202789 -0.6620981447991694
Ni 0.7329888546278996 1.7441170574988833 11.5578912623012 0.0374871983121806 0.3354739409401577 0.5107930946328686
Ni 7.394869144438803 7.365571904969125 9.927303072225518 1.8878322390638518 -0.42977300603505986 0.14075529967491243
Ni 0.8641199219253997 7.145663687502855 8.867832130364901 0.7656940618149651 0.015301920464393002 1.266208400229645
Ni 6.119608848499936 1.8302103860125063 3.5048627987092913 1.633916261502844 2.543370728367633 0.21373529157706414
Ni 5.423742064478496 1.7215454292197065 10.683703109599076 -1.2560502287497206 -0.3476015774416272 0.14780089366778415
P 6.620056714192147 0.08802751519705808 11.399815543131899 0.39211482936265374 -0.8834423590717431 0.03175466670377757
Ni 1.871151282509126 7.397731887537626 11.526425861952509 1.149225520383982 -0.13779775970848526 -1.553265383318996
P 0.937089591931825 1.4260864852287474 0.5740708283545223 -0.8439612702579852 0.4392526633907209 -0.2785386612056945
Ni 5.723953896050192 0.43445154425984095 5.108472387716167 1.7387267676520315 -1.546193564073879 1.0031015001979886
P 7.429790940060976 3.939134503979591 3.4475602243478636 0.0532460038083341 -2.566325023170961 -0.642264912123326
P 4.9779248795888105 0.8402169345960978 2.1160672125261657 0.1464271532487091 -1.1676634153741954 -0.7972607808776527
P 2.2198645885051023 7.191706139008915 1.8441800218072402 -1.6846613532661954 -0.04089519555246505 -1.262981408651915
Ni 5.002047160379849 0.953587066584654 13.269040896870376 1.7912389786181346 0.4877369841443535 0.23747917216122327
Ni 6.103276532102808 9.110230314528362 9.188118947917092 -0.7414313326128585 0.9264954815074754 0.06160980239199712
Ni 0.694931804784997 3.3810647579649284 9.854918796480968 -1.2886330477817485 1.2896000396807081 0.6409359088992574
Ni 8.829259419745865 5.413924323722919 3.603325563029076 0.6155629773521075 1.3314216037021844 -0.2436300222539675
Ni 2.2954153150297922 9.138821043681984 7.063201087977066 1.842566682357833 -0.8480015017656298 2.0890141194559377
Ni 7.880296784320848 5.621041951830987 0.6669659243654434 -1.3904417909901343 0.47597624406399963 -0.5156866752797441
Ni 2.721743825746725 6.54759811723253 4.076746197721636 0.9972527547266955 0.6292345613019292 1.598091281384435
Ni 0.549576941488156 1.2843531754610893 6.715881534150036 -0.9426417522500347 0.8622502983751602 -0.6254141591145745
Ni 9.098944500388773 8.196721651327222 7.065322454016962 -1.1687648759684903 -0.07202431285710176 -0.4854751846933703
Ni 6.166449564908551 2.574266678864122 8.40127382119673 -1.2278807082940402 0.5447691944679973 1.5421620743169828
Ni 1.7268763706953985 3.8330570265261117 4.317786414004885 0.3705196196903813 -1.0457051938011281 -0.32003858022169396
Ni 7.722157754486862 1.9631719573106956 10.132326860669641 0.7558495649207176 -0.058786988231221346 0.02374130948099782
Ni 1.0003452038654193 5.729532574909436 0.24270464448237214 1.0391619933659717 1.0710292743882135 0.894117579397402
Ni 4.538649796716627 8.352374131867037 11.033600967306775 0.6609128662418166 -0.09389514478826409 0.4802015949992569
Ni 7.534271887709343 9.104871846676721 2.9124199494997303 -1.0343476026964635 0.42326220149973554 -1.3426894633065198
Ni 2.971591564788178 0.9023164387397832 1.1830689576064077 -0.41104483349793725 0.01493939491865169 -0.9893167877090704
Ni 2.2210849245055617 2.9261179917184226 12.914469978072194 -1.508489621765202 0.4046494714945547 0.740864404365795
Ni 8.752093812498762 1.9287089346210262 3.3861085075848734 -1.1356644938700957 2.751182198261094 -1.2471608966798908
Ni 0.06961695741568917 3.8572160091517507 1.3914546340999165 -0.9959504909755041 -1.2850139629719224 0.5980766476418861
Ni 7.33808223085351 0.8332720299438584 7.353097868934352 0.48451924853800427 -1.2228025224401844 0.09675292595203337
Ni 4.8940887139031055 8.315204348875598 7.216898278278553 -0.013061204059332344 0.17217520874709058 -0.955491097408877
Ni 4.608236475118771 6.088614149179993 6.251539098245856 -0.11752898215712018 -0.720651676863346 -0.6175653524941171
Ni 4.341854559589889 3.1665975874781522 12.292992307510346 0.26026865925191306 0.6580525139748861 1.2878964267260402
Ni 6.975422227709425 7.446591204849257 5.65645096430748 0.26859723372226646 -0.023863436881158905 -0.9515891912513095
Ni 3.7249334217936667 3.4270429812604384 8.186178131792424 0.9633962111885667 1.4710026805633374 0.5961012690830702
P 2.032942144885841 9.012952101920302 9.968208184433404 -0.2396612674142066 0.9348366543833191 0.6440965660154262
Ni 8.221926636238969 0.4913311299775006 5.060986636564451 -0.4105193000117704 -0.10192264307843092 1.3507429297386155
P 4.505581443741769 4.386016042072684 10.325210599773854 0.5586991742855281 0.43150824355861167 -0.0482763185078846
Ni 7.366122432488129 1.7215087273851066 1.289022566368111 -0.14310451663337934 0.3397887662654277 2.7016578662787216
P 8.73264184016061 7.782743307953285 4.066043025206328 0.006207671472608664 -1.562440879170677 0.38001058989995196
P 2.689198473914921 4.663371806147053 6.087971867074488 0.8886275028171082 -0.1436164232727914 -0.09624744707052456
P 9.093888822672584 5.660340441229245 10.193550108512245 0.27506792904827465 -0.626660887037482 0.2537614542610146
Ni 1.0163655546684445 9.069794068257496 2.7469047684569516 -0.04714606155818332 0.9559700939278244 -0.7376021886747556
