# total energy = -381174.94763444865 ev
CRYSTAL
PRIMVEC
9.18570042897337 0.00000000000000 0.00000000000000

0.00000000000000 9.18570042897337 0.00000000000000

0.00000000000000 0.00000000000000 13.44420108263100

PRIMCOORD
 96 1
Ni 4.714992430378698 5.882274487516773 1.7858737569527057 0.13902391880610251 -0.9476296923829294 -0.195745796978179
Ni 8.926819752917579 6.5769430761650405 10.587240725968071 -0.48839930031870077 -0.27128403652581023 -1.427073326170239
Ni 8.802280027629735 8.049548627095906 1.2370410212738985 -1.2723417668208925 0.9809779288260718 -0.5761399954697948
Ni 3.336255551281175 7.008533206910676 10.809070796468056 0.4469595451166754 0.6241190944522348 -0.6230705985830625
Ni 4.911419446572475 7.240233312432182 3.721906157457586 -0.3346339615373656 0.9488622792384498 0.8597164762097129
Ni 0.7194194582299223 8.433226144838047 11.841651906595807 -0.7698934446082933 -0.7657845646462424 1.586992343257796
Ni 3.7308364953337354 8.790219203075749 12.554342839322457 -0.5976202768307579 -0.30735867076118034 -0.17300181841344398
Ni 5.71453441350281 0.7770349265086464 12.443454901888485 1.1636488948981636 -0.025384758621691764 -0.055710149078110505
Ni 4.436224796285506 1.5941874807073748 0.8622047401145535 0.3958269881069183 -0.14097795720867978 0.2703784939924053
Ni 5.844512073395346 7.586451544164305 13.3786740183414 1.616112914772836 0.2945692323059959 -0.6338941715611277
Ni 5.072334545229538 2.9836348864080557 6.404965638581577 -0.27075310372300465 -1.1575615510535033 0.0558423037806006
Ni 8.92388951450728 0.7747789185037272 10.155547715378562 0.5818298467657206 0.8342085617465955 0.03742214940220007
Ni 4.6539718229817995 5.008392885122688 4.582254467532261 -0.4597050177078018 -0.25265305168818425 1.469867281407314
Ni 0.38090159909765176 0.9027935942323728 7.825304554545055 -1.7020109002882364 0.7222743000684335 0.49371248500149817
Ni 7.7825203180445985 8.038590086583412 6.2634112405432765 1.7105222801933573 -0.4235018283143674 0.1793295604036847
Ni 3.6684655899860106 3.664791309847706 2.8293720719413944 -0.7223663455616075 0.17943703251582643 0.1583035929713209
Ni 4.2770825377951756 6.000430151064314 12.902883216101989 -1.0354945718167134 0.6246520841375693 -0.5372312342197393
Ni 3.437757540101847 0.4019249114789977 9.306990170267708 0.5333573530866298 0.5262240844759581 -0.36623564760304667
Ni 1.6567696571630524 5.832093006527875 11.742797236614782 -0.5019610981635356 0.19188451425055986 1.9341401209914564
Ni 6.555567951460452 5.577603178448533 3.2931433852783742 -0.22108144752949024 -0.47971231406766407 0.15074994899377908
Ni 0.1785755261418245 1.200571035191119 1.8461843097128765 -0.4661705708274874 -0.33294834630482656 0.43471620897294805
Ni 7.510366388200357 4.482787111338175 9.680793060138154 -0.49815020905787755 0.24948133882842197 0.3374248940189415
Ni 8.607129823784017 4.942917213058094 4.276251231913885 0.24307440686081366 1.756241636607343 2.0056039333593976
Ni 1.9817689210964646 0.9524377117510446 11.121620680722856 0.7015360390798175 0.054791236808266926 0.1310578698814904
P 1.0350355292601383 4.600446747067043 2.9749461324509996 0.7016936477036043 -0.34115916425039305 -1.0446638970208073
Ni 5.750909786872028 0.9566172054083665 9.987347437777276 -0.23873181362140175 -0.011380473922799755 1.0072306918750138
P 5.674870559409809 3.304849641799014 10.266166511792404 -0.33046517487165666 0.4476347168068291 1.2098025106360906
Ni 7.327433165814503 3.2354516756867806 5.252796814222383 0.28793398637766543 1.4148191913932344 1.6711592050147028
P 9.11496126739948 3.1480772939978903 9.220946796558918 0.9378322466765332 -0.8680710188219953 -0.13090026125770357
P 4.989148842898316 0.42294914243037823 3.1149141600395853 -0.7886905227101385 -0.07521762298341884 -0.46902038157145676
P 2.0071490111518058 3.69527864929529 12.598480129483846 -2.309775721752164 -0.536086836202651 -0.891254141806678
Ni 7.478942107317504 8.978140260749353 8.482873936636857 -0.7349457248885148 0.6612851619795709 0.2322310363884065
Ni 5.701821404224275 4.768434834990342 7.641925825692432 0.9202171046979314 0.32546000834758143 -2.0481767737246015
Ni 6.573131010521548 5.740006360561609 11.566153463255672 0.39059967826970793 0.8730545880795157 0.43185174294095946
Ni 0.20351194687046514 1.7933242785031531 12.557206022120232 0.05261891174729647 -0.17244106081396754 0.18349731862812912
Ni 0.07480191362564527 4.1745517505357785 11.253306880879704 0.39834538365339783 -0.6959693436253175 0.40865062223414783
Ni 3.0487155733577813 2.7744030039322842 5.0646451954701 -0.04261192113325565 -0.08835775990980266 -0.05863529314470547
Ni 5.82727051384635 3.2443801764228613 1.9323085175847081 -0.23939335846480062 2.2829310907554943 -0.9835359193612353
Ni 8.415773314181099 5.838412768365759 1.8991949864082702 1.5902345043441775 0.018691662872232322 0.7645023554997091
Ni 3.1721530146041332 6.869553560679295 5.857248046924744 0.4618709150108691 -0.6105788938739549 -1.7321383158012365
Ni 1.622644780378546 5.597545333899183 0.8035421019964124 -0.01663863699794554 -0.7406000949608148 0.987482562713809
Ni 5.263038870107907 0.9629461529465966 7.779903312016092 -0.5781937926750301 -0.8155932606382533 -1.3106995406634847
Ni 1.069729919466082 0.6854709468920543 5.4627819241265065 2.0951976225588305 -0.9011708866997576 -0.7395914511906424
Ni 1.6832244741588476 3.1220174621169634 1.3989628726888563 -1.252611892492133 0.20204140017890362 0.8052427706418649
Ni 1.6447088326090666 4.7227635328712125 5.26608025549239 0.9030724745978447 -1.033715882649736 -1.5436011207563545
Ni 2.4277254871828733 1.661922835057025 7.229753346907702 1.4150680741792467 1.0484611592797104 0.5522773299195843
Ni 7.355532223172189 2.267903486866957 11.1818375393395 0.1498490344460645 0.899982008597979 0.410854314753686
Ni 5.208549295656845 5.532685103757757 9.551069844145196 -0.304850559627346 -0.10950431208043078 3.0420960932026895
Ni 3.822206656673032 2.230352343853481 11.8881829902673 -0.054566522391970546 -0.5942577881164282 -0.09562498299517726
Ni 1.207285782143871 5.865244199075731 7.035270024907087 -0.6164088702921707 2.9838217829418285 2.2155347635887073
Ni 2.892209610866684 8.6313341441951 3.7270152439898987 -0.21859519077252673 -0.991111674825964 1.7478811804577898
Ni 3.873159736490975 0.516980401159842 5.649118448490465 0.132740656900552 0.9806691393364015 -1.7416724805439165
Ni 6.210782688982267 0.08451671031132338 4.8900856575194425 -0.2347005809748216 0.8353339336002905 -1.2357536832842138
Ni 0.503042938025217 2.797009012483205 6.180406496508866 -0.3311362327967523 0.6076943732373083 0.33408323124021816
Ni 4.176214362298362 8.235540687696899 1.4929647371772135 -0.18385418774691561 0.5847285084697542 0.48005992721507007
Ni 2.135803930194551 1.0079285275397942 0.5224201729046024 0.23544697222254288 -1.0293820311610722 -1.7140436630830544
P 3.5068707495033618 4.498118045215252 6.6725184511226265 -0.3369736654141358 0.5880686285865808 -0.06059395953297306
Ni 5.555300298009023 3.8490748301843865 12.734050962316914 1.1099190094748757 -0.5271298841196793 -0.2642240443552353
P 6.940898895264829 1.4575318166634705 6.599059486887532 0.6229932083779077 -0.9320534352112271 -1.6299688468193219
Ni 3.5681393708095954 3.9010291513400173 0.43706664529178013 1.849776826953027 0.39900949959995796 0.44096887475087926
P 5.285938821069892 7.604666787949951 11.002518890039703 1.5709193489553333 0.36522828938445484 1.6323468601331952
P 6.934441347921759 4.9082411942528426 0.8227769585204384 -1.7075868517141173 -0.37148018383143766 -0.7633746696531692
P 0.5234232513823597 8.82856031631896 3.6225132054363005 0.30964746679535704 0.49793243662011666 -0.8409168270047066
Ni 8.229395454165584 1.210032306547254 4.875001818981667 -0.5144232351862882 -0.7297119872934014 -1.2615228218285177
Ni 7.376806305172974 8.46825122025644 11.104614275102714 -0.5859011886216168 -0.4631883482707119 0.3566341199575407
Ni 1.676757741115431 3.915147572771454 8.019788795115705 0.000536075009128109 -0.5747670263816682 -1.7534972410929865
Ni 8.788235091801065 3.8647456349742573 0.3357961361198211 0.5133564844846707 0.5179749570932887 -0.2173546334972063
Ni 4.180127470645656 2.8751976938263333 8.841618707930497 0.7914822265226628 0.40463250221369024 -0.8843895534763608
Ni 8.677767859442929 6.353170230041926 12.932487809746345 -0.5394387833940193 -0.2835651678860084 0.09059384832917301
Ni 1.9722433498379093 5.728230292718342 9.472192235276138 -1.5380884184682413 -0.6643036370909206 0.09005263111372232
Ni 3.617732966976366 6.321158064336946 8.11912755150495 -0.1640993737174916 -0.09632869393042119 -1.0990188176226041
Ni 3.4863223378298915 4.463285869504122 11.160421078983356 0.9890928446237224 0.21619815129525988 -0.7530167234576128
Ni 8.130750218152443 3.189559916759353 2.9824885110049046 -0.7746888091144077 -0.33288072629168475 -1.6787503870983993
Ni 7.222045625747573 2.1725926600793284 0.29357957590073264 0.03850998314974013 0.22625476420031357 -1.1996178567936049
Ni 1.6627311766874522 8.24446918843298 9.622687075460966 -1.9871493261986357 -0.7266958261748968 -0.7177072495230413
Ni 8.315116409792237 4.7216612488297205 7.018840481268656 -0.43472906448875454 -0.12337232831177464 0.2782285861644434
Ni 7.066513347493127 2.5656579635748384 8.331667204675231 0.5672637760260876 0.15976063713282163 0.8014115698212326
Ni 2.781540293100942 1.3785715364912985 2.7052962245210117 0.9752651947120107 0.8694676420592058 0.06444187252415352
Ni 5.339059726169435 7.821871858325845 8.864406593348262 -0.09925846598270648 0.8744429837866101 0.25667194303959023
Ni 0.8839840356343556 7.023919254989828 5.041682781745765 -0.08141912380844044 1.223883928429821 0.39721692647590945
Ni 2.317046983716785 6.310438352033441 3.41696478879918 1.367877275426057 -0.8694139060031351 -0.6832282419095653
Ni 2.2357810927578265 2.8661405932854116 9.847863496596913 -1.6118533681655338 -0.8758414067960336 1.9962245490270265
Ni 6.894051823501442 1.27446080877243 2.2684537103176683 -0.4220404132774925 -1.7863801078639363 1.7707107767577954
Ni 7.309888478154097 6.479528723998232 8.616308175569502 0.33598276225577617 0.7522741888646335 -0.6572667848487971
Ni 8.100171021701401 7.478988035819233 3.94251177410148 -1.0785898603442907 -0.07572644429903734 -0.6378480140025531
Ni 1.7851398194950792 8.041795896004084 1.8068869650636712 0.0808090010282673 0.33424032564337275 0.2713861093213133
Ni 1.896782821497473 8.566253457245375 7.098699122934644 -0.755800456850337 -2.174390942360546 0.8135561756035666
Ni 6.588599729903812 8.053259650035594 2.202347899209356 -0.45908923850067385 -0.35772298214634524 -0.10417852899214315
P 9.107814792530476 7.6133932032784255 8.100077327557875 1.3540316277922164 -0.2841884032923041 0.34104757837319327
Ni 5.519218867050869 2.677723507793137 4.14391927702273 -1.283037813082158 -1.378806006523419 -1.1862303797431055
P 3.9422453887914526 8.443661100430832 7.22446973206882 -1.3454654833897604 -0.07294142535473244 3.305580174068107
Ni 0.9371343349750049 2.428184772200162 3.8436837426514585 0.7748361333255495 0.9881855023181045 -0.2884073264696581
P 6.688586078167433 5.602762811695577 5.72183888241776 0.09025960491820585 0.30702982666685186 -0.6044218731336236
P 7.840399415923247 0.16276693584676777 13.142728282120082 0.23427917716668684 -0.27145732887888085 0.040955616476755274
P 2.126296730336687 7.408928699282105 13.285425381281394 0.5020677989447289 0.7015434952789853 -1.3962807662694148
Ni 5.516646870954055 7.692619868760624 6.302803197906044 1.2528654032638358 -2.888721047881238 -0.5284925687951608
