# total energy = -381168.9597989534 ev
CRYSTAL
PRIMVEC
9.23344537282253 0.00000000000000 0.00000000000000

0.00000000000000 9.23344537282253 0.00000000000000

0.00000000000000 0.00000000000000 13.51408063408392

PRIMCOORD
 96 1
Ni 7.267986479850934 4.118781438351984 5.192393834102827 -2.349430874249941 0.016052168366856225 1.1647017616427102
Ni 5.168494907479128 4.54917079344368 3.1673893887897244 1.1730863861619798 0.08558405381940744 -0.6090850829372478
Ni 7.509948915493641 7.8687144349325795 5.961777132085409 -1.5405379084499986 0.13694209657640932 -0.1981379513594394
Ni 6.290395452425953 6.830256535698527 3.1499427937831643 -1.2246945972565746 0.7385483546381088 0.14165415734009798
Ni 4.466263687561754 5.1510252288591705 7.998051920804178 0.17588299661598097 -0.6797474824498164 0.2772392256679806
Ni 7.744727730646746 0.19900106107455665 8.642714455594854 -0.04918006126907659 0.49578042327412036 -0.7896683132423755
Ni 0.8098017816987569 7.082532729807668 11.158535615809617 0.5577663780586135 -1.749819278020767 1.1484757867021511
Ni 0.6129253364013949 6.95049446116845 0.33185279624993685 -0.7333889219243562 -0.071476924994064 0.4530394327621681
Ni 3.8436709338690815 6.279675422363705 3.6233683143504214 -0.5235354819002016 -0.547378092845754 1.614727604389535
Ni 5.471924388879268 8.420560530281637 7.183950123601555 0.14311068728096643 -1.4061795134403654 1.5708378449851204
Ni 0.2832146994748357 8.371143130718204 5.261693611558626 1.4383668968061873 -0.4509288141770686 0.3514186371948722
Ni 1.629601538032657 4.487565246005857 3.108238091128426 -0.7780818939563566 0.9968336649114057 -0.6845958116810532
Ni 2.4976377362685245 8.393118730673542 4.462174194612082 -0.5829462197583509 0.2506545332009167 -0.3121882309393398
Ni 8.189927532094897 6.314060772882058 4.396968526828634 0.5640028458866286 -0.31768833482196257 -0.4480196109500736
Ni 5.66931698377222 5.820579285649679 5.685360095084152 0.8397122651736442 -0.2455609207280932 -0.16153624097600566
Ni 7.705467120978637 0.7326877394353097 11.05188285849696 0.3129942717804029 1.871076359761752 -0.7446585813009047
Ni 9.13544157034137 3.981055367371384 1.1836796811574026 0.6935944156352377 -0.89658892375603 -0.041784025915321585
Ni 3.9008628944251176 2.0279877715087204 10.936486028428961 2.4945377660253296 0.7706321225465309 1.0919670529821452
Ni 2.9764657457155583 2.426909544815629 7.202748495008729 -1.599702591735613 1.0945103882292893 -0.4001680386844334
Ni 3.455681559867686 3.0670366112457748 3.449658583459759 0.08640912082386408 -1.0520648174705687 -0.13677420353997735
Ni 4.911057217414091 0.5309581952570546 1.301327625204018 0.43752076830127873 0.2997078390841419 1.2872641924586798
Ni 6.262556614667404 4.970317469730629 0.6286314269577105 -0.6547311629111369 0.31814316297119405 0.7196234927091477
Ni 7.179206902720439 1.1843925031391473 2.4529275471493066 -1.8940676784506025 -0.5570642097852664 -1.5419754122274734
Ni 0.5114608520361753 6.447225521855121 8.897264847296013 0.1328471005714293 1.178588032706499 -0.32752254730356495
P 4.139713658981712 8.208754527182684 13.489741422819746 -0.09573682598269317 -0.04951764711415343 -0.5910580502322078
Ni 5.731439604150168 0.6232113945317509 9.864197708742655 -0.7616510020938431 0.2870603255234605 -0.06659131476698854
P 8.688395079821344 8.937430334609342 1.0856472684322667 -0.27391093262569605 0.3631086719382908 0.20967654812665826
Ni 1.1934135792552674 1.1924163671564536 6.181475884277565 0.8616630584131225 0.23885034147713705 -0.9540217119522021
P 5.510797193842282 9.169162112793849 3.6398149272245597 0.5868558392254022 0.48328203369679346 -1.284915232610529
P 7.8850853335547715 6.521351621200272 12.509930675130368 0.23703771374843044 -0.4443650449166218 -0.1132655788950759
P 6.417059855866008 5.3098220221498895 9.112530622371127 0.5973073735760293 1.2154041730935843 0.6954371252709314
Ni 7.446727515117925 1.5658907650528942 13.337100567550133 3.2681127732502686 -0.9996227976207688 1.1937601124612471
Ni 7.53221998570048 3.9436876140019494 12.625367209013412 -0.6264063478245147 -0.4202146729226634 -0.9421552995319193
Ni 6.456929872927836 8.091351269438093 0.7896599439917926 1.7722421258006575 -1.4045540620218002 0.8763178322118197
Ni 0.7479247709673683 2.1341262259148617 13.198404984806794 -1.5509526760254193 -1.4130204476215988 1.1041142298676405
Ni 3.515569686468663 6.387097325674801 6.2390999700764205 -2.4020724117050567 -0.2143194462153083 0.9138965617965422
Ni 7.194174317648003 7.076660258559099 7.97575315026126 0.2661001783320256 -1.4557452401836348 2.005983171075687
Ni 0.40611185720826193 4.856976927944168 12.58243353478134 -0.28194434445313377 1.7722786354655478 -0.21964908595833785
Ni 3.222767900677177 9.179595906049956 6.822110790202477 -0.33011010552508313 -1.433643266078273 0.3216843433552331
Ni 3.603139682257079 4.200395861883596 5.402766806482004 -0.5285331922251091 0.9754269171008555 0.21812827843843724
Ni 4.552337865201949 6.492414003443956 1.274686365308582 0.15843960432855295 0.5508061446906966 0.44267557302934085
Ni 9.166521347421064 8.882371299931323 12.324571106229769 -1.0967757872246982 0.2577482068229045 1.1115701719250533
Ni 8.006477439694617 5.808501939119602 1.8910114562913027 0.041138679021838834 0.9868485286742359 0.6203889379858413
Ni 2.104348364630842 3.507148784300903 12.161862102140278 1.1333479299217772 0.3034937884891354 -1.7188220583083045
Ni 8.378917691710807 5.356136984072569 10.361664350992143 -2.2459732825842225 0.01971341926852734 1.5535199225319631
Ni 2.7358698599860403 0.3759720448661545 2.126562187476453 -0.33973245910619554 -1.0666288313276728 -0.7776455777498866
Ni 2.644080179668385 5.393430869879129 0.4612521462054426 -2.106340012328895 -1.2362889869623934 1.9116581378388557
Ni 7.4432095724359995 3.1197965180293057 9.70470471367184 -2.4210553805654627 -0.2913676946495627 -0.9828962288947072
Ni 1.8768547378662923 1.2155553812270745 11.177753185636107 -1.786139709718356 -0.4475537270572486 0.5926341364700761
Ni 7.798143212050794 8.727286351675078 3.729494765277595 0.16198875513239197 -0.8057585339360188 0.2224222778281008
Ni 0.8785346256094896 8.897357181749607 8.005376813007778 -0.03579155577731256 -1.2472596270412843 -0.6876762503785898
Ni 8.007548519356307 7.752899329789803 10.289418181122166 -0.9241979437225503 -0.22315529933938344 0.39593625999127297
Ni 9.12599575573872 3.0800280688664308 11.072099487111334 1.759531105991892 -1.2305564553539903 1.192188139988437
Ni 0.3493049313237121 4.0588471445242105 9.017108504649089 0.6261438381917475 -0.3681470056931466 -0.07600026678571427
Ni 3.8032746104217683 8.67793358622916 11.298028044887467 -0.5337111368816227 0.3490660778022956 -0.29250129403337366
Ni 0.7021471955646049 1.76201837793161 9.020216482357059 -0.887613459730297 0.4635351900871694 -0.0525129822970515
P 1.9380078464815051 5.171052571843679 10.585538467175814 -1.3657286045141706 -0.36018789874707 0.45699584630675494
Ni 8.881844993545839 5.789850379493644 6.672698870775038 0.20009276109296506 -0.294553291466396 0.0535769047851916
P 0.8063493964788825 8.869823047687918 10.169602224105166 -0.6382313654839008 1.6938959844905859 -0.9970594077689667
Ni 2.881490526748915 0.9727619355020226 8.941145873021958 0.1203134868807928 -0.3320042372240024 1.2459617341654672
P 6.8836997174386525 2.1092513241166757 7.766852912416907 0.04928187695426352 -1.7428598159837985 -0.3923421148821114
P 2.4358290530327955 6.6632604429286735 2.239242537919718 -1.3460599224406495 -0.11186509900312347 -0.9365718919068708
P 8.559099144453864 4.2082719907751525 3.744724410053366 3.364318054228948 1.0286942610654284 -2.998872249517048
Ni 0.1282507093527982 1.6923520326950434 2.618474912342272 -0.4250120943113068 -1.588384595619632 -0.8402727656628045
Ni 5.649815947173197 2.275554908484575 4.054805665490408 0.784114730413998 0.3906364450449143 -0.9977888297358235
Ni 8.447051285017714 2.1735161038180015 4.586570863871872 -0.12069580992087602 0.4232352049165421 -1.2369343338558763
Ni 6.51807374809769 4.11477412306601 7.340064601015372 0.7589202334262413 1.4232691219328004 0.9760933470402611
Ni 8.16793346524884 0.9605830210729926 6.283196135079239 -0.840341928337843 -1.5540724526013234 2.2465700356279568
Ni 3.737283176438237 1.2995889674428458 5.032454863621153 -1.0634144381554331 -0.42361547107409625 -0.38625168571365737
Ni 2.0008229752614075 4.917659130846051 7.793921680832482 0.911790828307449 -0.03291911932552395 -2.0460707831251925
Ni 1.1571169055475214 3.4267808758928084 5.351224791141375 1.2281797275916977 0.8836434193389555 -1.11561426008744
Ni 4.749471923624838 2.6243852407168147 8.778855144007247 2.183267418914569 -0.07352892242708627 -0.552208681465178
Ni 3.1171557526565215 1.7288333753099772 13.386615841634375 0.8706086976421845 -0.03762243833846424 0.006987487061426675
Ni 4.595670424273547 7.822574908471728 5.089470465370824 2.477173049494637 2.4867879468765817 -0.934160968472533
Ni 0.8246463918030416 7.966967527001805 2.6899916400288597 -1.0064611606988407 0.32039673489206116 -0.1010088730149099
Ni 1.3473258799508707 5.973078869205297 4.775281250093393 0.39938436644087344 1.1960321963248757 1.0488313981349355
Ni 3.2526657967508688 6.606317785397341 9.698461057919822 0.3836643846024554 0.37681162334668006 -0.7344695565830447
Ni 5.24966612563349 6.29720050165582 12.37722205835806 0.6722396041085454 1.011242127027252 0.37855817372414163
Ni 2.806625751775014 6.563797769517368 12.068127858229937 1.056368329941929 0.059094749279627254 0.5185873938663069
Ni 4.991009620781013 2.735408187718071 6.337792574144752 1.7809185705287327 0.05938219861305903 0.3833913334467268
Ni 2.905109679978224 3.612640897531887 9.52211610172359 -1.2674391873129527 0.12403284471390899 0.2668123739077018
Ni 5.593519630817021 7.367606121833348 10.312027195429158 0.41816473237217017 -0.6085605778923455 -1.351783198077672
Ni 5.912609035546678 0.6652420378076754 5.702590627469302 0.9281918953732918 0.1965736921961131 -0.5301352466049064
Ni 7.087528023747096 3.424906486484853 2.327881766680751 0.2288443793043607 0.6159900375871972 -0.12798900114817957
Ni 8.828189442562447 3.22393131479246 6.936736627582965 -0.6543190150743828 -0.5085225534311372 1.1564408071854988
Ni 5.829637295547236 0.17848249879692932 12.540850713605346 -1.3290595312279112 -0.08238328749392264 -1.4421165936566067
Ni 1.8929855669091395 2.6100826338551264 1.8209009823329498 0.5970950004549072 0.16496814947569008 -2.0240927361922045
Ni 5.569512672882618 2.5713575640178616 0.16177180938551272 -1.546409279629111 1.0991815684527135 1.4979357575087557
P 6.132485069889735 2.333947216937332 11.627420127949128 0.020700979992777254 0.13366651114893108 -1.3048232843883656
Ni 4.148596233417441 4.2504688360675456 12.75198082850399 1.2483320341698565 -0.2889775971508313 -0.34179628361375974
P 1.608743184965804 6.951713275955889 7.1378669211573955 -0.3631629222149939 0.6972001307086251 -1.5288054505044186
Ni 1.9840088712619657 8.81610286258701 13.199932196669238 1.6366388026403296 0.20968014767108403 0.5180004110145853
P 1.9280911261655247 1.342302885675365 3.7858483289949993 -0.5297220703268877 0.33347053735688376 1.463413298251854
P 4.251475281611719 8.585626832971379 8.894846607956389 -0.3529705550630244 -0.877075793423767 0.49800725572211
P 3.75166888430816 3.477158553773618 1.2695747299576259 1.1448870409096283 0.5325726524018054 -0.1398870381373462
Ni 5.103159048116114 4.46269957765303 10.55782151089601 0.02474249705200255 -0.33678571777304583 0.09777648212054128
