# total energy = -340889.9390752211 ev
CRYSTAL
PRIMVEC
9.11597462377350 0.00000000000000 0.00000000000000
0.00000000000000 9.11597462377350 0.00000000000000
0.00000000000000 0.00000000000000 13.34215031872852
PRIMCOORD
 96 1
Ni 6.446671218349285 2.24480868842976 11.726602551138802 -0.3231670985483467 -0.7566422360253421 -0.5308510417250084
Ni 4.473117463251163 0.027853859685267535 5.923233793261369 0.9297792944650697 -0.170462596931358 -0.13771856973111768
Ni 2.8346486940182234 1.5218389931526537 5.079556746568607 -1.4298560311216988 -1.0018974525875586 -1.4011872024320966
Ni 3.3910513056202487 4.281782277214808 4.967029158954489 -0.0763728196337846 0.9164254988659829 1.472811451637302
Ni 5.339654638869711 4.764272568630891 2.4704591367843114 -0.013209299601422413 -0.5122059158199953 0.3193675222965984
Ni 7.62967856017099 6.451402409046929 2.5028810112260143 -0.7520427895801177 0.1732789833342306 -0.41845192459528574
Ni 5.087397396123607 4.708254906131802 11.490085861336095 -0.025640583386239712 0.4869628249824903 -0.17944011783962
Ni 5.725369746381753 7.822353794439626 12.488199364610765 -0.6064936680609878 0.29725757777143647 0.8559935188321709
Ni 1.9028684898388957 6.674716433170639 0.245191451012493 -0.3588177578724207 0.2325285130241673 0.14914275240765926
Ni 2.36567739259175 1.665889620135667 0.4975170635663672 2.2797190115760997 -2.197940961766344 1.218628593568153
Ni 0.631393351555852 9.191545796779055 5.077728993707572 0.9280281161019179 1.869863056179941 -0.7693432285317782
Ni 8.826560414982707 2.3451117544147047 1.4892375340158766 0.6131839355969697 0.1773133013046043 0.13164022474752166
Ni 6.7365592032916854 0.8477929091204808 4.676383636542002 0.7556310211520084 -0.7773771545798484 0.7131000897683332
Ni 0.6316276320971419 7.576541545572586 2.3740358294909227 0.4073686701979307 0.13117022708963863 0.3129017120665966
Ni 7.789299271376696 4.36394455420493 3.440300357150165 0.6224903005995602 -2.3279089410177654 -0.1628115081440035
Ni 8.151950963734514 3.9774363569227638 12.451174834710024 -2.7969141530805697 -1.1858567984537707 -0.3108060058798325
Ni 8.157356736535485 8.705554971205178 7.120691777653223 -0.8079552844770215 0.33837414530608817 -0.24651248600808512
Ni 6.874018980805726 1.0052914214930235 0.5033686075139939 0.034343767587192466 -0.30124098789921666 -1.2369654442041278
Ni 1.804625634061403 6.456826413796637 9.214408660497154 0.1434680706203852 0.389551953731484 0.22682914864654485
Ni 0.10363860100665621 4.934413114258721 1.1072873239183394 0.38694742622910133 0.048813421958277224 1.650249194334913
Ni 6.274588970180803 1.842684827053055 6.859613006509987 0.3649336409621715 -0.1623764774891139 0.7967619868643633
Ni 3.43623919056866 4.627943171938639 0.6667569509265142 0.5030455894769659 -0.0012158746849720997 -1.0741187119468145
Ni 6.47865005643664 5.8060005396778385 4.611247264881343 -0.7684099180842314 0.24071824792381122 0.5887810812725731
Ni 5.0860391159425875 2.909290292153707 9.416462409196882 0.654391520183531 -0.8475119637237211 0.48113567677775204
P 0.4163639249389226 5.510469766600867 12.394096984391789 0.3284535437582666 0.9581300776936208 -0.4695898809216816
P 3.6791160956887987 6.31504566443157 12.40758589166598 1.829690083505481 -0.2626896099885798 0.9700407130882777
P 2.4153868008273136 8.518467829224898 1.5415650500902909 -0.11482006786638935 0.727457901151902 -0.6370445442646513
P 6.481439544593634 7.84404981343846 5.836056818770718 0.04021102500124688 0.3369672376562326 -0.7908592482266831
P 4.732248150671688 1.1695430476783124 13.077068518928902 0.15702858291363925 1.141261528341899 -2.028003126990204
P 4.150165839271462 6.2709425804331 8.19321442171696 -0.9472327140548267 -0.7288858918476802 0.19485953771848374
P 4.74967789366571 1.1868816309286412 3.812279514482608 -0.536438820225431 -1.1429412300371673 0.5562391427808098
P 0.39866617229844525 5.752608277797095 3.592227185988217 -0.07774321761874999 -0.1292688963018677 0.3377925617710053
Ni 1.6904754030095555 1.1148654334115036 2.7812382001887412 -0.792976551680002 0.004513828709953517 0.321374268313982
Ni 2.1870134109286647 6.366095120899414 4.881679025727437 -0.37928348192594036 -0.09298831670327856 -0.16727468612167964
Ni 6.05166693295497 5.793721322202448 9.431045233395384 0.15031337567699274 -0.3293549725266134 -1.303810526853135
Ni 8.69876357030008 2.1007215975492692 10.343595289642764 0.1927311785215713 0.6725152263674353 0.8363001541683016
Ni 2.207387613643956 5.161036237078473 7.11596879133251 -0.1391092794310572 -0.24505415629500377 -0.2635972094045138
Ni 0.6458312317618826 -0.10762045861114808 9.416689396958677 0.557641165334659 -0.527481353921827 0.4166377542046825
Ni 1.7248973222278734 1.10385333637344 11.762959791715714 -0.7899750458495169 0.08242751046829676 -2.5819344475734436
Ni 4.027947970902822 6.915505780160219 1.663606068556168 0.8879065654906838 0.8014750760693164 -0.6729867666872151
Ni 5.6687139656768135 8.026661012003434 7.941127647691561 0.0014770987661587463 -0.24485720979284925 0.6116266184121789
Ni 5.350083313548143 2.9551436432310747 4.788444486268415 0.712435973821773 1.08186338888924 0.4882625176305204
Ni 0.6422222175090935 7.1165312469510935 6.498987795254455 -0.11842963959451862 -0.8408980579516293 1.9842329238827894
Ni 5.216534289038514 4.382504678020739 7.4183821250582715 0.08524029732674353 0.5048954982015111 -0.5181109684505206
Ni 8.250740777974162 7.053476052238937 9.177224601044951 -0.14132171370134372 0.20136005784116293 -0.23977773838741284
Ni 4.703368743869879 0.39993602752808294 10.648623084817626 -0.09598725143060244 0.16520906184190257 0.7105459558879117
Ni 8.384727369253515 7.586842596609848 4.6495662631425185 -1.9226316061312245 -1.4201719710647154 -0.8684515420898655
Ni 7.125920700551429 6.110437619713576 7.029124549906338 0.7428901765465722 -0.8254125607215204 0.38820546700591857
Ni 2.3799803563771156 5.366492067412806 2.636662493082058 -1.3134051125201058 -0.36204346389857 -0.12316432606602658
Ni 2.369305550390715 4.935215320003215 11.306538452203398 -0.8322385825044182 1.7086245489500123 -0.12601233703778297
Ni 1.1235985368572527 3.3441040376185707 3.8839529513634607 -0.7523366666714527 -0.007732849867883457 0.17445037793451246
Ni 3.4838154608018175 2.9240672866062742 3.2408218712097523 1.1909501538162781 -0.6904440429317141 -1.8977435846402928
Ni 0.8923253555117425 3.206106417616745 8.369637696880083 0.1961864840600234 -0.331223650304236 -0.547809781066534
Ni 3.8229935191587963 2.533420436960465 6.792675318313964 0.2657973023796261 0.5507074143293031 1.8424409554132462
Ni 4.629584047325106 6.529426033673407 6.011612253173887 -0.8502859269244324 0.20008196245968768 -0.004328709282340932
Ni 0.31812836194092553 7.347685009032367 11.33103398693103 0.8642328760228277 -0.16671418563251933 -0.18400922526754115
P 0.05297383865719462 5.314403389866866 8.092107326792647 0.3158273703538238 1.0340192728227675 -0.8367632098476493
P 8.537784578913355 1.2877498873244797 8.361579175537658 0.30459627752469476 1.4978195436458657 -1.7251287172526224
P 1.844453326080691 3.0076790035211074 10.49540178761914 -0.003877480677535258 -0.23968183623949688 -0.4388505428562959
P 4.126272870449638 6.055504758164427 3.713987432443521 0.8090397757904517 0.6464172437288028 1.2928483714146766
P 6.823279467466436 3.9067328597147997 10.40520924880714 0.4678181337332395 0.8146558364256486 1.4283159403280887
P 6.395056571470546 7.953095098843522 10.323634952163834 -0.3527080454302571 -0.4897085060484276 -0.8137736909310115
P 2.392141066185706 8.281826250573332 6.004701433004553 0.38440949029859606 0.6029537732285293 -0.4400795301673905
P 7.200489370891959 3.965312111011651 1.2920261909010986 0.021755132288904466 0.3585462493785889 0.303701019403935
Ni 5.372061927752423 3.223153289687257 0.3584209686530455 -0.04587953614093389 -0.7288159578416932 0.28647051445826144
Ni 1.4445446464757157 0.9116156688745292 7.316367990684217 -0.5224890429135582 0.9856043718544896 -0.8106117482632619
Ni 6.664533889800179 0.7922583932629615 9.293994763130524 0.18617975055629873 0.22304654167566101 -0.05312130530501174
Ni 2.9015781778373153 1.437169823210986 9.382240129817252 -0.5493840675321893 0.5559151837824878 -0.1389526992485349
Ni 6.457227516668885 2.3471172687759414 2.583600229473482 0.23465455822823458 -0.30442067117877897 0.2993890222921424
Ni 4.240113158372931 7.008452254829172 10.369692501067075 -0.9365886040774193 0.5412452404751389 0.04945362664543741
Ni 8.235972899495964 7.207381047515118 0.23956598322922396 -0.7527403298677746 -0.40013332879175606 -0.03128595459747515
Ni 7.4795475782836816 3.56719016238305 8.475534324738003 0.48448608130722365 -0.15089444499144336 -1.6853231552199106
Ni 3.357805347095565 8.618606807671195 12.583208784279481 -0.2888492991030832 -0.678164968454045 0.8484064505135325
Ni 9.103521948269501 4.702411566561107 10.212388158948595 -0.17305169781477295 0.21822572324824996 0.6123251871411003
Ni 8.522597365614171 2.3261049478548017 5.902940722717964 1.2123340188086928 -0.3998101411243824 0.18315819012115556
Ni 3.581912460989402 3.068436972692212 12.014699247117644 0.3891693735810846 -2.414279238183894 -0.02355953248749491
Ni 1.2446951403784747 3.3254071741872226 12.81588217928811 -0.13355132572730546 0.6486283924475087 -0.1771991443242432
Ni 3.128812070939807 8.518376669481205 8.044555669690288 0.5689288224333363 -1.253971748954137 0.6585718768134659
Ni 5.746518806918431 8.064993684226163 3.480113463610462 -0.8730232206209481 -0.714811158922169 0.814692603200855
Ni 2.9990188278703127 8.321252839720373 3.705928911101097 0.925113256447968 0.3630883602233166 0.12327745460512315
Ni 3.257903383982868 4.216220189551105 9.076811231770138 -0.34702102234780885 0.4596780211246083 0.18833150679197888
Ni 7.2169801685259465 6.288144424067889 11.48034635431998 0.7821213541330531 -1.1921747702519985 0.06215256226934457
Ni 0.5554581966573705 -0.12359255730352486 0.22587470132403548 0.20924074614082028 0.5039164221176934 0.3898250048872125
Ni 4.839050906381913 0.5338597185842877 1.7876480433960973 -0.856085564325345 -1.0714193107377805 -0.2138738740374575
Ni 6.06812126669148 5.509621980984526 0.23328051890162063 0.1973067137073957 1.457175287761942 0.3871955376841654
Ni 7.821724792208147 9.03362065680603 11.561800320101609 0.09267155679380815 0.31914897852788904 0.2669820667163466
Ni 8.954493999280873 4.838996210535698 5.602688786515152 0.5145137380175655 0.1936287506351762 0.7583484200831714
Ni 7.7241200546365025 9.093977523104888 2.4007602199518394 1.0055365920020425 -0.18369426513028364 0.6614679674143383
P 8.558915407501294 1.615806456950964 3.6715863008597918 0.8585242556738246 0.46151456011271486 0.14733423844401078
P 2.059745292759455 3.283437228191159 1.748182255559269 -1.677048573915944 0.8748479325345128 -0.08008549259868142
P 4.712512066162245 1.0544629872408007 8.177897761581734 -0.16504168302610284 -0.44273907927742456 0.40203234558668177
P 8.744379906043847 1.666555086264623 12.56710450395875 -0.5452494765385254 0.11087908094077034 0.5805823475118647
P 6.306567808268158 7.729589639258057 1.3650351180270484 -0.42831030544660426 -0.0539052346588878 -1.0792735166748768
P 1.7682528963280641 3.128638867426791 6.1784692248339095 -0.8473247874135795 0.05357433368203031 -0.14724373561273352
P 6.939863663674876 3.8443157832084904 6.048210155474147 -0.22449844363083918 1.1359694267050244 -0.25017013736533045
P 2.2196850630680847 8.176901385583173 10.703606084225806 0.6950743426148739 0.809177844030213 -0.6572030214903972
