# total energy = -340857.4039295471 ev
CRYSTAL
PRIMVEC
9.40357066871714 0.00000000000000 0.00000000000000

0.00000000000000 9.40357066871714 0.00000000000000

0.00000000000000 0.00000000000000 13.76307620115762

PRIMCOORD
 96 1
Ni 8.068066048424008 3.473039514716019 3.539739040556945 -1.5566875216266673 -2.970733582299303 -0.7469782305730168
Ni 6.951147553953152 0.617964101256123 0.9226350849700761 -0.055995798639329374 1.1461185993238843 -1.958495667017685
Ni 3.7835642210911837 6.809332306637912 0.569744472240601 0.008299521004630866 -0.22195099461863707 -1.2294115431162698
Ni 3.308129098154295 7.54752199760626 6.55244932805169 -1.1960918459182175 -1.3320019016856866 1.1758747475403943
Ni 2.195225928304062 5.291549003613157 2.697948332234212 -1.646100976494494 1.3539781488464617 -2.2704368149432255
Ni 9.211436786824162 4.771578570598356 9.35752877802104 -0.6660553296747045 0.7511264484134355 -0.5728908924048778
Ni 2.133905244812073 4.992609496143394 6.179249824026762 0.3378491260405536 2.449058807756924 0.6903679382781401
Ni 7.042456223897519 7.274959505501478 5.754246049896426 -0.4989307959776439 -0.5604734925771315 0.9305575673919909
Ni 4.563261272423532 4.455975936131537 1.8029766710790005 -1.3730562485238353 0.5790139745834803 -0.4226096555174012
Ni 5.400677439731011 8.140821473692757 8.445725665956104 -0.028985331488756535 0.5511861537379347 -1.076782631932223
Ni 1.565647477073862 9.15347317801499 7.020861864509233 1.792018022876004 0.7349441822266182 0.21371600830335452
Ni 1.590331849741623 6.493635636465692 8.822448687862407 -0.8199908754853168 0.121151666511372 -0.7460171522113281
Ni 6.1167405292185055 2.6934270955185324 11.173691135711367 3.0228629560046905 1.1269219717907755 -0.3787546060056638
Ni 4.09320499183558 2.9776406115224985 10.26556199865645 -1.1837510649646774 0.4423158756970769 -0.4573496301017478
Ni 5.2880884896544 1.8391221155210349 6.685813586522543 1.2385333029118797 1.0884209875020996 -1.0995338095858096
Ni 3.0534239865051607 1.2131546353782334 13.328988563145113 0.681686094233426 -1.0423226504821403 0.2800242446122855
Ni 4.950932871509673 0.13702600883916752 1.9040669350991781 -1.0109446503914912 -0.17814839561138998 0.623107622468585
Ni 5.14727942438695 2.5313283465482974 13.20223031297868 0.0779638182699883 -0.4877729795886116 1.0407069692555884
Ni 3.522699770738284 2.2713760425377876 3.8687596298274314 1.2320950034857039 -1.631758591729893 -1.4427025480670639
Ni 7.491937492143732 7.741639904265535 1.1187108150157983 1.1482209903788676 1.2100279963833354 -1.3673419717478774
Ni 5.424148751799099 7.179475650237308 12.245187563402382 0.5118050808371509 -0.8191580951713764 1.2644523367704867
Ni 6.7915313476055035 5.610198394934967 1.170325132996296 -1.6056066159248734 -0.715367031425639 0.5988096691531687
Ni 5.621388643877686 1.809265779056219 8.887450869220844 1.227838285091879 -1.807705094593958 1.0308352186678311
Ni 7.470187033484482 4.9168355247312725 11.19192653970273 0.20165573470471077 0.2713940797411133 0.03227891463836376
P 2.518182154933238 5.010880633702807 0.22611261506490793 0.4996499335318556 -0.2276223339718015 0.668313529581262
P 5.532712973684547 5.898746956957919 7.299371174623576 0.9636975444790693 1.4427899655745475 -1.7751168762452914
P 9.596907950403919 8.229600583161835 3.053297038302869 -0.7559806911819432 0.0392741150092743 1.0911142180635467
P 8.931699370397283 0.32249827274387355 13.23531677592402 -0.20652463276123786 1.2106404331563536 0.16728651319622156
P 5.274735419487459 0.13014541627497672 12.979324315467945 0.005439425848016439 -0.1987367612857029 2.0804721434231976
P 3.519182835356287 0.8632299087971055 7.031045931404162 -0.9836133095663898 -0.44165484507431035 -1.7109634814958339
P 2.2298592786032483 8.50230412882472 0.35865218039939395 -0.0797381365615917 0.38260123344526364 0.3732120789208798
P 5.198416040984011 3.5291318129877123 4.944591103537429 0.5859873205775198 -0.5111070263288617 -0.17090097002035728
Ni 7.945039135047885 6.942919429730565 9.171383218465662 0.46057353635568415 0.11779200601051973 -0.5055328746751939
Ni 7.221763506956135 8.561518412515728 12.496707685709582 0.6694527853920277 0.8049296102768201 -0.5498491800940659
Ni 3.3110348014511852 2.887206473638362 6.133115906957035 0.6092740590196023 0.44793553587669954 2.32520362627146
Ni 0.41581178392738866 3.658675400748123 6.869715454147053 -0.29387914821750677 -0.8872877009597622 0.17012038310059088
Ni 8.613031171934391 2.5120416233705534 12.068882840417217 0.004960686439385005 -1.7490523179477555 -0.5370314595041075
Ni 1.201155679369066 1.2525555959412502 4.685570693367444 -0.01475736081483265 -0.952419914682721 -1.3779392876477494
Ni 0.5656210065587673 7.203417140832401 1.1974760622167253 0.6468882698279504 0.471400194657543 0.6833470268756167
Ni 8.324012431384435 0.8870030754795311 10.21280796792649 -0.9432189649097432 -1.3097430902874863 0.3392956286790931
Ni 7.3194101834445275 7.559144810793824 3.2809104632259767 -0.26388440162762944 0.8680612486299825 1.560009386911049
Ni 1.8818989579079475 3.3549118615912894 4.620966283042852 -4.227459239849494 2.442604824601464 -2.0786034656455747
Ni 3.2897639248894803 0.9268742145695529 9.029788955058114 -0.6307250298045266 -0.49026514988284603 1.7479909665627766
Ni 7.631495882529348 4.793169168558424 7.220976428101928 -1.5134847609869482 0.49466867826718036 0.9751325257888883
Ni 4.495903496644799 6.874687121891603 4.772470029085557 1.7818858195380085 0.4486731853736724 -1.2143934724408827
Ni 8.565430297860408 5.435837389980443 2.9236490709094634 0.039850556338034596 4.643802859852525 -2.0071630503164015
Ni 5.391527765595494 3.949010641173694 8.243600618981937 -0.8562567997958866 -0.04996733305706233 -0.9390805172613376
Ni 6.958266056852007 9.666024193873652 6.995729881883764 -0.30217147013328605 -0.6883884459542661 0.6524588219371925
Ni 9.138954065101075 8.050669442924823 10.990862215485484 -0.9280255449987566 -0.4506305662103594 1.293344851435121
Ni 1.087598161526825 9.071445832193701 9.615284407953382 1.7646882247127995 -0.47466575278269213 -1.8660308269180446
Ni 2.964146487797456 9.148714971321699 4.237541336412621 0.35892754397740767 0.3856353922858971 1.8387704485401943
Ni 8.541799125093139 0.6078515014973002 2.548330002084797 0.11773621307191981 -0.7618404923968298 1.6668040133698003
Ni 4.738666073708007 4.961765784771868 13.233142670415148 0.6211448423152592 -0.09390800030407052 -0.20257001898886406
Ni 7.651553698491381 2.429873223991164 7.507386618184062 0.38860964442287266 -0.07186490446110204 0.14869666600917616
Ni 4.889847277281187 8.948099197419216 5.8731316308066885 1.5517908556559985 1.2878177509693047 -0.5647379242804403
Ni 2.100889308645784 0.5044329134113941 2.0511660487009 -0.5703100190515791 1.9595503335344444 -0.12077345723634685
P 1.1414241992983545 6.36867158755831 11.011410897829709 0.6751578061966049 -0.36604075798342117 -2.6793756578417534
P 7.502713983982686 6.283023867079084 13.097273300752413 -0.6855574042633741 0.7381117813213224 -1.0360285899433124
P 6.656524285361295 8.398375867215542 10.229227542446559 0.2072923641651978 0.25568335387407576 0.5649217581564722
P -0.06531908168563896 6.032540958602454 7.333861590650552 0.24241877555468574 0.4783149194995053 -0.7260131982855754
P 2.4426714834962393 2.6899571779892355 11.642365091429927 -1.1956156776127473 -3.2230032825061397 -0.6064257909375298
P 6.378385475926232 3.469917529296706 1.0484266480849866 1.6119829517648625 -0.06591434330462197 -1.4747415787804794
P 5.91390551266856 0.6411091094264698 4.09679997685306 0.2703592107186957 -0.9943222113434619 -0.1372578280446152
P 3.186202402531365 4.657456838523708 8.127688447076453 0.09149656264910049 -1.0515652521263308 -2.6895148031582843
Ni 8.879707028881073 8.477253016905896 7.417334265263854 -0.6826055207239018 -1.5271763995414278 0.3500240708401907
Ni 0.6043599557557612 4.383728303671953 11.67528605153376 -0.9034126315460829 -1.3271553722266627 -0.35562624751831656
Ni 8.235308550479676 9.37098716817803 5.1212541025601706 0.1374743149307955 -0.7831058295335094 -1.979136226086172
Ni 3.042111491145421 7.922461162181107 2.409226744513322 -0.36244481310204674 -1.7393916549295396 0.2099889371607545
Ni 8.063505316712059 4.111786447222816 13.49949974632052 -1.9774205289466462 0.39016001962912805 -1.0263327028117872
Ni 1.1787845850541696 0.7527830920895292 11.645186162591955 -0.42451767117339145 1.000393357238206 0.7753837782989034
Ni 1.4495415916152539 2.9722899798851823 13.578830148110907 0.1602074948622531 -0.38981523469519963 -0.49636046414730645
Ni 5.615295130167701 2.518840404871045 2.7540603780040396 1.9358085098328144 -1.1485392929502347 1.7358869842103908
Ni 2.880783834959474 4.649012432178699 11.72256250242411 0.18108793785568814 0.9126606325069121 4.049543786184516
Ni 8.424640039734038 5.0610016646815374 5.0974028862422625 -0.12093286563234658 0.18239225848940846 1.5445349454245334
Ni 5.028521732036034 0.7270069648820625 11.011768233510232 -0.5107038773531721 -1.1453038167320726 -0.8449125784276611
Ni 0.6249857473784153 1.798376444370784 8.747866148837716 -0.2754057720036676 0.09123970944328802 -1.0662141123877573
Ni 3.7418970000280036 4.870372482692641 4.032375174725784 1.757694824114102 -1.2747532044758627 2.1838927112033937
Ni 0.20192945270693408 6.311667142944227 12.827640961227926 -0.7335871539780914 1.2634748033485659 1.0224516225898261
Ni 7.072378385356114 2.191417482235322 5.103981624192116 -0.35864909350504043 0.1099856225922235 0.22831036117776166
Ni 0.3089740575931024 7.026169239722066 5.122823558483313 0.00984861065930562 0.7283433890806489 0.08375522814078479
Ni 6.188480368868924 5.453431470460969 3.427377656887404 -0.5137704320936377 -0.566117064016154 1.539841396603606
Ni 2.2371470457718257 7.872377745484537 12.097496024856632 0.4917545899441789 0.21843963903126898 -0.30583606346906683
Ni 3.442374471184755 5.554670310895679 9.962636317634738 1.3624409349018343 1.8175974140070053 -1.804912619450485
Ni 5.824430538979513 5.974511524799501 9.382467987450438 0.6578720225329637 0.3808845078644731 1.5544763729079616
Ni 0.41671076527102213 4.762870864278223 0.7718488313595809 1.4445601701010926 0.4008892331211741 1.9436984541038527
Ni 1.850359382316454 3.7664027048555027 9.459045964143739 -0.08703646999521784 -1.2512245252263032 0.6202205307287769
Ni 8.772346464024757 2.3643021266150503 1.1635357550663443 0.3657013723661315 0.45726324103552857 -0.3208574765785635
Ni 4.193644528774382 7.613478641374519 10.539612135620677 -0.5207108679672129 1.5840818544792203 -1.1211552445103272
P 2.3791409609273275 6.9848029329161685 4.47721107912519 -0.12489365005230749 -0.7258959559814208 -0.04513263067258034
P 0.5439956153877006 3.960718086496118 2.8413734708259173 1.525273011871128 -2.2016292092512084 -0.03490478229698505
P 5.242067415431153 4.8181450519129285 11.145531203371986 0.04321021683888687 -0.6549358227227753 0.05559110700174297
P 9.46845517682616 1.1460413524335433 6.370143246347836 -1.4249745346596814 1.7500784452194247 2.340402188388769
P 3.1495096702838965 8.007008664907142 8.670503914361372 -0.608835685930603 1.1385328165568265 0.5956073601657871
P 3.8590654889576426 2.2767172706045637 1.5987743753725245 -1.8864340731647447 -0.959545984204541 -0.7901879331912713
P 8.17893414509178 2.911110349951295 9.552318099616876 -0.31758960446056916 0.02101516879908639 0.8617512472515545
P 5.046868098159767 7.197633944950239 2.3064297324401166 2.204298528553255 -0.671394996720063 1.0083324095796247
