# total energy = -340862.6516820691 ev
CRYSTAL
PRIMVEC
9.29226897122252 0.00000000000000 0.00000000000000
0.00000000000000 9.29226897122252 0.00000000000000
0.00000000000000 0.00000000000000 13.60017491632682
PRIMCOORD
 96 1
Ni 1.2366708719242576 0.7000553637986456 0.7418529176285189 -0.8038129801738738 -1.647256687365492 0.8881935006034833
Ni 6.565080757729643 7.2252685719069625 7.074075926377716 -1.64510570246076 -1.5912698875872273 0.016161183140894746
Ni 4.93018041848962 0.4971558891001219 9.718929719717101 -0.5104873904669918 -0.19410183361685282 0.9698892751120781
Ni 3.389317838472005 0.7161886007118815 5.514652968862983 0.7842641115076686 1.494035136902769 -1.3000626297749287
Ni 1.9196340366800475 3.9301278766878336 8.796266908538627 -0.698195661852675 0.0567802422138377 -0.6316897077106413
Ni 9.204884203031737 2.485774799366261 0.5234056189447249 -1.0394597271120485 0.37193141243624334 1.1355634495158573
Ni 1.347787821013345 6.7198899542360975 10.353880661337886 -0.9683885221968355 -0.21213349430758305 -0.06364765875763231
Ni 3.421329704136155 7.5622062348916 11.20829826351862 -0.6579452989730604 0.9744169877791025 -1.1466029951594703
Ni 1.0527582898560843 8.704095966097618 5.830721125579084 1.4323967952656815 0.2355585580997427 -1.2923776024258453
Ni 8.720413189931074 1.4555502611025024 5.748875752115145 2.6959096509410343 1.0922395899172417 2.2845197753988526
Ni 6.385888648159986 3.452626065110569 1.5378258666071518 0.40758515708411086 -0.23649803919487658 -1.5270802402831958
Ni 6.607276949886654 3.2122350738967635 8.139922376694745 0.06773237034996722 -0.2246534811514647 1.5203578339576977
Ni 7.558377820188079 3.4132733071751047 10.989771051324023 0.7508194586959779 0.8546562880779861 -0.7095349981248941
Ni 8.895553870348461 6.4107919282702674 5.669898901998238 2.284451641165078 0.7414485590040393 1.1528253219200983
Ni 6.277206273469739 3.6899227308479854 3.8388396997731236 -0.1838673003730382 -2.4020603275201986 1.4653421398434505
Ni 4.737653903338524 0.20970699074658078 12.302432238205693 -0.02917507890205943 0.07956587264978555 -0.49932134654784327
Ni 4.5839690713445105 7.2171564213337245 8.921197744273963 3.132202974593115 -1.0317901263819327 -0.24720771230289684
Ni 5.926358084244395 0.7021814348767176 7.548545670678867 -0.013202357622886941 -0.8829890735844084 -0.05669899535394106
Ni 3.6583197250065416 8.179027031055977 4.065322952426833 -0.6812896301259557 -0.8925114112525467 2.1221744082579903
Ni 5.7400016355086825 7.316602280938292 4.255739193356642 1.9180807535357483 2.7993222483014306 0.6370288605353674
Ni 3.2645133775909603 5.334152507860667 0.04384835753149232 -0.3516572355682395 -0.5696741852397931 -0.39120337329197785
Ni 0.359190788062289 1.510978643885276 8.562900872460409 -0.4025059427889907 1.2338143001696558 -0.008023641635424891
Ni 5.009805868961637 6.568054283712959 12.309273206421063 2.550404238175646 -1.294758443953196 0.0763954453416039
Ni 2.6140173996655154 7.963455689534173 9.011339255231356 -1.6751860667859084 1.4881018021374692 -2.6045313590373533
P 6.904991946697598 5.833398228190939 11.409961866480327 0.01555208880198612 -0.028857033441008366 0.6094082706046214
P 4.313192361488682 2.0028184260633486 8.14186724853321 -0.2128086659977367 -0.19917539148501825 0.3881509596188993
P 5.676693408870118 0.30729067970409535 5.342406830144982 -1.8992700485871485 -1.9059310055470917 1.1671191128349512
P 7.03960904332359 8.539790070981944 8.64316934792632 1.0639859943881869 -0.593947455964861 1.8619278604932643
P 6.257255772575419 1.6060571372018455 3.0457454956370897 -1.1344825577468525 1.5156239188171383 -1.8313098784970914
P 1.9811767322660174 0.13384026296284998 10.352480316445117 -0.30093322685081075 1.8246576632878964 0.7276797873547209
P 6.194514374327425 7.822622065149308 1.8830940484794272 0.30528970404729355 -0.21981183678844723 0.22158512663878616
P 9.091862338859588 4.319845625876354 8.79925808983247 -0.9691657666824922 -0.5485849686696618 0.02370839936053336
Ni 4.947120224325829 4.180879747499761 11.35968140055617 1.7665255350318543 0.9080200484111071 -0.5195561855374794
Ni 1.5913660603905186 2.0248875642207813 4.498203289716942 -1.889738454947629 -0.8729854254044772 0.6974281875590311
Ni 4.538390493381475 2.6048366381920234 13.085312380589034 0.7225116128902203 -0.05885846489910509 0.8478688328425076
Ni 8.479501831670188 4.51785457955919 13.20566026940258 -0.5455366687616411 -0.4621257113341525 -0.5058820304844964
Ni 1.1412206878597733 8.666285724766 12.336079543160668 0.5315976900830458 -0.3663279502065368 -0.445179313287801
Ni 8.866673499235493 2.205008900660225 3.0826292977795315 -0.25319838266869293 1.220852340692349 1.895947411971819
Ni 7.3612237552254465 1.2054581413681242 9.709110579384065 -0.34195106402406916 0.1362998350067201 -0.18831505173174665
Ni 8.886874891384654 5.358860650328293 10.673580236661111 -0.29678912277545016 -1.030832904674986 -0.07261515236356528
Ni 8.856033851576434 6.790492611802487 12.494752464991697 -0.2891051238676311 1.233908659655675 0.3323423372897115
Ni 8.168526767427387 7.588884338323175 3.8154612809561614 -0.5937042296058034 -0.1940748370336593 -0.6981306129426944
Ni 4.12691954317125 8.263038432353387 6.606950791255359 1.1945877505688653 0.518917523512216 0.7455232432940451
Ni 8.966045020690476 7.806778747019446 1.492428487883725 0.4305448512040779 -0.3790016890194634 -0.6348827607266421
Ni 3.339455524639253 6.236952165470581 2.5107282577275107 -1.499456050808024 0.10771893804523384 -0.655439244721755
Ni 7.939360836800605 0.765697808334114 1.8067692118488916 -1.1496921756077554 -2.2428180247846923 -1.8855802098048817
Ni 3.595048667442769 2.953473267467276 4.39564452009859 1.5234477857369308 1.2096101921196265 -1.6615178252701965
Ni 3.612211487727728 6.15425097405957 6.669688472595874 -0.31478170269812883 -1.8114895013370542 0.007104472255265184
Ni 5.678812046133232 0.7323785204641742 0.971092257178015 -1.6746978142955806 0.7344746987893674 1.4595409597806412
Ni 2.3826027400138488 1.6654440264499102 12.186654287137758 -0.2607188594154542 -0.6723478475516356 -0.8741439644889526
Ni 8.64472766138695 8.495335857531352 10.30241821883536 0.9644629618901841 0.003571776511658365 0.16638379887629412
Ni 0.20017498151630939 5.526502469906502 3.500848293518147 0.19062827324595558 -0.292104058594955 -0.1998719033314106
Ni 3.07370593214897 2.9552202139824746 6.624821682415096 0.32557570798983926 -0.6164312388896739 0.7600808293932458
Ni 1.3716596592981638 7.590529069882697 3.711134192604605 -0.0352703931665199 0.1839441763575606 -1.0565367371989933
Ni 6.391083026362092 5.438421054919426 9.320824768801886 0.6586207277735302 0.17396032567197137 0.13976208252370767
Ni 1.282918493233539 3.5516351880863364 2.6171089374612957 1.7275026168014376 1.0363432929702538 0.29219301876433545
P 3.256475565167306 0.9901934447133494 0.49129153832489836 2.6385388263310494 0.504297716716512 -0.9699756641782971
P 5.863886161788638 2.248589640853219 11.06221915345381 -1.6489163344561022 -1.9749293870936764 0.42361161441935435
P 5.235635875125887 4.759109751761898 0.08995752403717554 0.7295525788974017 -1.1806356592641474 0.5392847743146584
P 8.448986021266393 0.24578979932726608 12.53476404477784 0.9250700619148584 0.3996206508213956 -0.8658508712422249
P 3.0333124401193445 0.8729417398299306 3.3566722400826605 0.2920991734989486 0.7174719935837838 0.7841458407622495
P 5.770396646419404 4.1025737991828395 6.208602382900261 -1.362108234152764 2.382000580655846 0.28159595997477954
P 0.028988161429864254 0.11376245798736988 3.474871756373261 2.9762403710501455 -1.1016554839145027 -0.4932070061199893
P 0.8319182319825896 2.658527366728296 6.746503011786787 1.0304824633141028 0.04187118631248918 0.08847603065522182
Ni 6.869142374061229 8.537838694555393 13.367842881120794 -0.25649299425956473 -1.081885757486743 -0.349264824076663
Ni 8.335694681302005 3.5817142618613302 5.039694451228325 1.1347136999210523 1.5098206818717996 -0.1496312620083036
Ni 1.6745597420425173 4.690384132472477 6.397644297289657 -1.6599818482416444 1.546465072567711 -0.5492616830217121
Ni 8.037979684491061 8.669417219317182 6.22171284480608 -1.0458939127731663 -0.6067160684844389 0.49933317362238516
Ni 4.0162114539048686 3.879754488076699 2.146257602591094 0.0816032147947885 0.17744648444835892 -0.48066233668575925
Ni 4.448813023134043 4.075793480795588 8.868510580757059 0.09945104160948678 0.5621326254471094 -0.6245551535483889
Ni 2.727429539122976 4.265922590622635 11.174964108018761 -2.1960871963870563 1.5790288654363451 1.3884353020830669
Ni 7.10084509404253 2.008904862060451 12.983270261110281 -0.19863108894577403 -0.5357564494464258 -0.12743210020344503
Ni 8.560725552358239 6.463860074803783 8.489133268175525 0.4499291692679606 1.2807680432113748 0.5800377878623043
Ni 4.845035360411069 5.406715834122306 3.9446349665789424 -2.7961168539902554 -1.4060625282465269 1.5998015792073224
Ni 3.7100126157727726 8.63175565428473 1.9229420843364882 0.3971626761992063 1.4963118487520874 -0.35520767192365926
Ni 0.26105513834412114 8.59120419368724 7.924060187162698 0.0815906163892982 0.14114662157606014 1.6968437542650001
Ni 7.8873891779734375 4.845527850652055 7.05219356282111 -1.0893190738363367 -0.9331011597494511 -0.05022675736603608
Ni 6.37241485854808 7.983192468248442 10.875475217113395 -0.359032187876072 -0.2995206627740003 -0.4043710210221874
Ni 6.845493550225159 5.628280688954233 2.816065702551315 1.3758703209338625 1.056531852102987 -1.308020965390057
Ni 1.0947686366391387 5.401502871382802 0.8175449507607297 -0.7688770875286371 0.6216505783070841 0.8810957132164374
Ni 2.2715043754621576 3.054275798301731 0.5830657008925068 0.4826495423191172 0.21327454989056174 -0.4105609518829833
Ni 3.1325538698125586 2.4142893762735738 10.018201171534937 0.6748739564075991 -2.93497262264961 -0.31594538398892685
Ni 6.959528271685377 6.1584232027049115 0.30922811772760056 -0.7322589220849711 0.17383048496232642 0.4614286852671279
Ni 7.507883632083873 0.5283574689338179 4.330349606412422 -2.993091638279529 -0.31795495821978786 -1.9587424929211685
Ni 3.5679988732632792 7.686601835949939 13.513173963555424 -1.619929974526081 1.0350726537879464 0.30605897811315036
Ni 2.4252263765309627 0.7374920559286101 7.56356011844088 -0.02907352032718864 -0.03919929590728088 1.149517340592788
Ni 6.484628295343515 2.2585695374347274 6.0752118657423875 0.618570910940496 -1.2945990355571964 -2.6158015326345336
Ni 0.17201383200055523 1.6951514094769895 10.918614574543243 0.08079434574024795 -0.6119330939090042 0.9209041034626269
P 1.545490129829152 7.027213156880636 7.261745372680436 0.2772312552481806 -0.7326900960851187 -1.330420930351812
P 1.8569298075068448 7.540573833362967 1.2817978456285761 -0.7056780862726492 -0.41291556815808883 0.8674225866047192
P 7.049579647636401 5.710433636512072 5.084996119584163 -0.6876050308210222 -0.04620966578684299 -0.48769198983903106
P 0.8272451500544326 3.2692710191642678 12.380551411921786 0.3648112564516943 0.4652012649356827 -0.8699265839734953
P 8.438838863848323 4.118677300836242 2.1507857251275646 0.45408355775596637 0.8220564997650939 -1.1083850893288525
P 2.486062859695894 5.116267391433094 4.331465607883036 0.0744339507398589 -0.5409871017177457 -0.3430671799063833
P 1.7091827352107676 6.230549792337752 12.355812604967458 0.3628980985893815 0.12795454836581835 0.4635927827979822
P 3.0974476786720193 5.67237250392561 9.428715442199076 0.4233416485874193 0.6433969688452403 0.33136069010273256
