# total energy = -340893.79989520874 ev
CRYSTAL
PRIMVEC
9.05281040475434 0.00000000000000 0.00000000000000

0.00000000000000 9.05281040475434 0.00000000000000

0.00000000000000 0.00000000000000 13.24970309946085

PRIMCOORD
 96 1
Ni 6.450779062806448 1.87383212844631 11.334113831646684 0.5672249523683521 -0.16491081387519343 0.8647306415948528
Ni 4.665972269769948 0.16213039881924324 6.020029153620359 -0.0705929797272139 -0.23132883628911127 -1.097930983875064
Ni 2.806543162336146 1.8198864325232822 4.82482645658138 0.06406546302134128 -1.7066990497925252 1.122890482033879
Ni 3.4191287222823505 4.32831150248802 5.138949917368951 0.2740618563812635 0.15788990247267 -0.8664152283861273
Ni 4.884941642648986 4.492828222073383 2.298876051369556 -0.4006555198438132 0.2314267953195563 0.7056266642094234
Ni 7.351461254243579 6.128299858213381 2.5223989877742334 0.1423882072926451 0.5165623930164781 -0.699127429638325
Ni 5.090865916044037 4.6757311991549155 11.629422837016094 0.1810267456004495 -0.44241666294099935 -2.4644748852016787
Ni 5.535567111014148 7.786819949097468 12.566349764611477 -0.3431718238050477 0.4941788831149554 -0.9970100425882701
Ni 1.4852130926041 6.778653742272837 0.491158406303856 1.1447798259078026 -0.031471588245719995 -1.2480594972347603
Ni 2.795851793501594 1.5986176458559487 0.4908352209800681 -0.747914369234041 -0.004982540816255935 -0.48885592824014523
Ni 0.517025000860135 9.216484998374886 4.562362857143827 0.3440300580402849 -0.3403364112387816 0.8695018377312509
Ni 8.891615851891622 2.1538355476272537 1.1440597511508173 -0.6968419760382579 1.6877505337144802 0.7797556821143539
Ni 7.051342490820151 0.5420433471015982 4.619164714681844 -1.2692114487220272 -0.47481333410414994 0.35560027937638755
Ni 0.6468097088700181 7.456718278324304 2.6182601001586154 0.27687824278413603 -0.3404346273795427 0.8015853763949355
Ni 7.774363282275838 3.9653119194838986 3.653725056111604 0.2691651904105945 -0.8211854100140503 0.6036734250033732
Ni 7.72893628074173 3.7646654344296975 12.690910095860632 -0.2854680413356761 0.24392338512467024 -0.4440824806791965
Ni 8.100445505324581 8.843708380365415 7.025986474758596 -0.653293659133662 0.09789089621121852 -0.3959195478207246
Ni 6.775168410349634 0.8801332175865384 0.3461468715541622 -0.3146130383307485 -0.5268468056616217 -0.5593836019470624
Ni 1.8151427599836503 6.409045607829915 9.303848237833785 0.027847618339887525 1.1503524348995737 -1.2885212047942325
Ni 9.289450648507392 4.869244069779288 1.2957350594814712 -0.8949004803100136 -0.6826163193571793 1.0217967626146467
Ni 6.299859664126671 2.035298050997597 6.988754077008599 0.385043267227853 0.6049700323276097 -0.47511878115971073
Ni 3.5554278325050563 4.0390923225335165 0.21901463692998938 -0.7542832488748622 1.8243360182824193 0.02128616307228592
Ni 6.150424926318077 5.758320558552663 4.594255002162662 -0.3487683440562187 -1.2404150933156248 0.44986566301987685
Ni 5.2901092155187674 2.640623257171311 9.485409588445139 0.04869643676443871 -0.2075304483179329 -1.069450617047184
P 0.07750020275674559 5.590888834086075 12.447354195786199 0.9503769161107632 -0.5314171986411235 -0.11972753247033574
P 3.7764069292463054 6.201736254475773 12.625323391314106 -0.07663378660465511 -0.11685149647412134 0.1741888967430097
P 2.3595335007675513 8.495383402679506 1.6700986351172722 -0.9662619627721359 0.9479485091749288 -1.6504957631280803
P 6.374997988704809 7.581339263401733 5.853122492144799 -0.14551646850898164 0.9500251891982994 -0.00829566434988894
P 4.692261630562107 1.0515653788761476 12.704305539098979 0.09327885136050386 0.2721291581349249 0.4083714004308322
P 3.83940543535947 6.137153506579335 8.177623428038556 1.645019056284225 0.30443892601122413 0.26794700173277725
P 4.786537595882194 1.1235171142673581 3.9100933984481374 0.1520784379972155 -0.5190077692331772 -0.4380355031541681
P 0.3729558636512345 5.511559058389904 3.5925244381022003 -0.8249520761453341 0.6361927377873172 -0.3314097981731131
Ni 1.4298279998608405 1.3089005613409876 2.6559822549398984 0.4088930772622571 -0.15597725883098945 -0.18210429493534444
Ni 1.7908631230537024 6.353144504905819 4.991918700665837 1.184998049997901 0.4145199365307312 -1.2048467092927122
Ni 5.882914385199522 5.535576163824338 9.182057161221794 0.07267634461880386 -0.08922293612357537 0.6567669623942431
Ni 8.613812265586882 2.2760122739533455 10.13379629685028 0.5163171097748914 -0.012302214406120747 1.3890287126926917
Ni 2.308855869323163 5.0921061510400865 7.238458645764172 -0.5250686307152763 0.21137424754405532 -0.5674188135467131
Ni 0.6441101608713191 -0.10788052847382704 9.129654969436183 -0.17466326527626694 0.1927077814828036 -0.3064168756732013
Ni 1.654319586955863 1.0840921258893106 11.639810936709276 -0.6370656273105738 0.5077867037063771 -1.4511573637026363
Ni 4.07036072893025 7.069936962950693 1.4697499875183264 0.3995350330861248 -0.35181278730949733 0.09313461247315573
Ni 5.8445847868544805 7.78962632025641 8.036978063643566 -1.328945631357866 0.18525132520475837 -0.47107289322511126
Ni 5.455105734044207 3.0245800957656006 4.658079124565167 0.16517769438333488 0.38046233272538993 0.37729396229973733
Ni 0.8713420336108961 7.338723950306056 6.906791744109134 -0.43967149609569445 -0.046256202754062274 0.9875694660006604
Ni 5.12735779392048 4.5045606640798015 6.912965760658808 0.20577772729288432 0.4203640540163341 0.21707129792883262
Ni 8.073223705082839 7.238464077450287 9.363048184791168 0.5070979051694686 -0.6812384651730461 -1.083652362468863
Ni 4.585873005207614 0.38038007328816603 10.690827476502669 -0.19212002730013367 -0.6987242806626354 -1.035793591114371
Ni 8.182020377947907 7.146913007997429 4.775550200154425 0.9023008865391428 0.168445052280697 -0.11238934693770967
Ni 7.17599063432815 5.867506502255908 7.120549414161711 0.9075883601903273 1.0615750709538492 -0.32471053177606657
Ni 2.442095129701602 5.411616033890788 2.320155587002492 -0.4004521455837555 -0.46252294677257116 1.1427085452010708
Ni 2.3458909158110144 5.316353312259975 11.208890834691612 -0.31445980058233586 -0.7952576344046949 1.82186210282063
Ni 1.1951429484917235 3.5615022681426383 4.032189554763537 0.08873108408882138 -0.6520728993526835 -0.4307158295643034
Ni 3.3906847926649393 2.8563607768124712 2.9070909145559622 0.7859576971600077 -0.24806106144212764 -0.45054109182034663
Ni 1.001512391334879 3.369799959556293 8.357845868022789 0.5386797937408078 0.11461232273095746 -0.4451116932746592
Ni 3.728626197062761 2.676562913626156 7.138158035262547 -0.23981733337609665 0.04785954268544016 -0.037471514582896756
Ni 4.209873586770454 6.704728494260177 5.854486750640453 -0.4121614636008838 0.4009787075111868 0.4405132752706994
Ni 0.5743066573382282 7.448317270467857 11.296617091839137 1.8609783520958012 -0.9952367527379312 0.21388441556041873
P 0.0870020323323136 5.583139628563318 8.166693065014986 0.36029897040363756 0.09806084613017951 -0.43235130828519736
P 8.775739881457865 1.6127038185118021 8.115124637047888 -1.8133723201820642 -0.5997149545762575 -0.7211070192332097
P 1.8041073843618731 3.2533898733213187 10.391569635328322 0.27344633428445164 -0.31902916512057317 0.5183601083468492
P 4.120757723258745 5.957138375948457 3.6741825965792763 -0.4611018980553285 0.8675606548444801 0.4430380985750822
P 6.89099006392225 3.8530932843669574 10.444462489426236 -0.21020619537788313 0.8635980706523062 0.5350285701414657
P 6.250558059831184 7.681218918229517 10.290686023850451 -0.9491178468926814 0.676207587617358 0.24163227509764837
P 2.3829531207294363 8.45594936149127 5.769092497397907 -0.07407656740044016 0.1703438119653066 0.19038427555594953
P 6.814557187486922 4.095871548046057 1.7020831188000458 1.5404733737606502 -0.13160577196516043 -1.6812047621761625
Ni 5.564047251872319 2.9715034696208265 0.13109283908235783 -0.05360004471364317 0.018228350082568606 0.7973152882646721
Ni 1.5246471337923377 1.1158403312261216 7.019984461602534 0.40246171981461654 -0.03156311951826177 -0.3488159094647025
Ni 6.886545134118893 0.6267405339595029 9.112602190881024 0.03624047038927307 0.17383665560991352 0.5306391828245184
Ni 2.8494082185864453 1.5423906417650066 9.281668852867949 -0.2913725797455691 -0.254891968321032 -0.052551034623838526
Ni 6.328765287063779 2.031070388638803 2.4657700389108492 0.19863237449735469 0.29811555489635755 0.40703211279411833
Ni 4.128959569291008 6.879221410675072 10.30015978971443 -0.05168611552038196 0.5837769431897624 0.47653340211905026
Ni 8.081606607318905 7.232380589002514 0.22633021284463925 -0.39432803496388863 0.14019788450954562 1.2040910620736103
Ni 7.609149496305834 3.8144830489060224 8.386479001373175 -0.22430072579773627 -0.46694061622429256 -0.7995634608689003
Ni 3.0256754857986072 8.348673560738144 12.54602439517258 0.40268206335553874 -0.1476800518192037 0.029666930936813427
Ni 0.05163903988658065 4.797500549022451 10.257827038703311 -0.36122225354885534 0.0016197949916101136 0.7308165332114898
Ni 8.410250775651456 2.064936951560106 5.899231170286225 0.9384788791215967 1.4134163975084366 -0.2828576002960225
Ni 3.6137460357499203 2.790021783739146 11.470492606599063 0.21715331611967764 -0.9566555500306233 -0.13457102524107148
Ni 1.0884465275907667 3.4811585777051706 12.642044837016309 0.44398734986222893 -0.15255897717805983 -1.0621687386737901
Ni 3.1332138180472473 8.402718837573262 7.978745862095509 0.3478373476015171 -0.5255406852556885 0.25945850464579184
Ni 5.606785568779956 7.820279135560215 3.505858265027941 -0.4184357266453697 0.6602184112779532 -0.12140800549655222
Ni 3.0663316563625136 8.423078607690881 3.663436910883583 0.44347210078870725 -0.16375201768040185 1.186259176098512
Ni 3.662748897309133 4.180660168286882 9.31638275882305 -1.1376475857383956 0.9028837556258064 -0.26419679066172563
Ni 7.236961310958724 6.157549487937715 11.569044214171955 -0.7371954401546401 -1.297713669926778 -1.2153110991591456
Ni 0.469580127934645 0.05880343387105522 0.34240987150767355 1.6085872958197522 -1.0790685997529224 -0.044327104052149464
Ni 4.361643949608105 0.4919306110130747 1.7710211736789596 1.3528232093064123 -0.380104692275655 0.3542093125661319
Ni 5.736059698295116 5.562390587607524 0.31569955504167374 1.2813586256075222 0.7325903372824609 1.200081940914217
Ni 7.87998241876417 8.744444316630561 11.560219534798609 -1.6113836276179667 0.753378734782722 -0.7491145601897292
Ni 0.20759089575105524 4.8029050767059625 5.938953996119528 -0.9354128386017633 -0.4501109462614635 0.5261914314658099
Ni 7.9955143824107004 8.968338418253035 2.1426091577104645 -0.1313219221761545 0.3204332445569513 1.6888046860106076
P 8.385934927480747 1.7898311026920266 3.39921163458303 0.8022821453516441 -0.1386595934881483 0.5248310607831735
P 1.9709506761661018 3.3847280435598295 1.445436855190675 -1.595400364815833 -0.2614832483853045 0.5258813564245588
P 4.764186207522746 1.0367097173541324 8.022297121358221 -0.12653812763426595 -1.3287044618813375 1.7281888442351847
P 8.610245458371967 1.537538335503093 12.339766073081515 -0.4188707573002593 1.170673920065745 -0.4812184662995455
P 6.274692851798089 7.96851890242371 1.306875447701454 -0.3184316407458903 -0.8589924535594948 1.448293669001596
P 1.8161476219147554 3.1860822295576483 6.236423002000303 -0.6883740477765629 0.017676334233840522 -1.0051630107127074
P 7.071675102507199 4.109179179025559 5.885637470504714 -0.3635791838168061 -1.4763572600070316 0.028886086906730897
P 2.352083037981068 8.406819760589393 10.253627440056105 1.0635949295973555 0.5043069726878927 0.7793705308607932
