# total energy = -340856.75458987226 ev
CRYSTAL
PRIMVEC
9.43374233743264 0.00000000000000 0.00000000000000

0.00000000000000 9.43374233743264 0.00000000000000

0.00000000000000 0.00000000000000 13.80723548812013

PRIMCOORD
 96 1
Ni 1.7622796281917343 6.787049157011949 0.3924625391691516 1.1136422239627335 0.5465013466677555 0.9360905813950782
Ni 8.890000080200952 2.41183050728295 9.423037640641228 0.0763710198615717 1.1414049958982988 -0.059356230471130034
Ni 0.9000629573899253 2.9742890792348553 1.630413837634542 -0.15008043373058022 -0.42180978532392516 1.4235378022131548
Ni 8.222534524847003 0.07408034665000714 4.648605665890728 0.229786688612972 0.24505698450848118 -0.7985270491845861
Ni 5.799477864455759 6.833302794566546 12.69580749004459 0.5303974991273576 -1.3188111140270256 -0.2013608291721113
Ni 3.3038096910606924 5.65148131826842 12.038611506349204 0.21188846817631246 -1.407386646374589 -0.02127356466679562
Ni 4.529299959575875 5.14855909275891 0.3525653570467974 0.022525691906341853 -0.847425831767818 0.7593583494049245
Ni 2.7656241375521846 6.743153954984304 7.169696830892133 -0.14765948299391343 -0.5092054384307746 -2.9045700990983523
Ni 1.8460984268196348 4.0964704379274 6.117764776179614 -0.16467915748036155 0.22073203460987145 -0.1043983583124331
Ni 7.059608833990823 4.312106915027743 9.378066992013293 -0.5122205711080146 0.8079514278222794 0.29475949393993106
Ni 0.9004148359705465 1.0278911063249745 11.034245322718476 0.6134474736710016 2.2724029375306607 -0.19800631087758158
Ni 1.1433506759824728 6.386850949314392 11.014570310178428 0.9850189316646649 1.618502240940619 -0.43114803200571555
Ni 8.122244412498866 1.1546239978013069 7.336860854294122 -0.1893532631882739 0.020422015299777732 0.2597678083560946
Ni 1.0542678492584139 7.001166801632935 2.9153423416741986 -0.2464998876025948 -1.212546134819499 -1.497862738178975
Ni 4.067376777266911 7.3054710208045925 0.628058927821201 0.298998214611627 1.4212099254109265 0.7299295026208462
Ni 5.8915228862016695 2.3082197177128623 8.899522499484577 -0.15346580526304537 3.162490826943379 -2.1585076954713855
Ni 6.0514059474448505 8.726692570572636 11.14852756136092 -0.2779084838208633 0.5233426491631051 0.557261413397737
Ni 3.9728035126361063 6.6253736847682845 3.0837629395249477 -1.2953138022360335 4.121343641735638 -0.4707558762053248
Ni 5.698725498744338 3.315347157658545 12.036816265226086 1.0637597373099936 1.1192667692383627 -5.069430219150327
Ni 2.9960527222775752 4.670777789966716 2.7353097506629447 -0.6946616805574874 -2.011141061127543 0.13180400401889558
Ni 0.9119702266784041 1.154520226638121 8.050046097399367 0.4444594044026409 -1.0568802365813412 -0.25409724033387854
Ni 7.652293115656155 8.25612808049292 6.4303886125161505 0.3928658485960653 -1.7561246514135045 1.9296980260597023
Ni 5.860938694288147 6.994242434925801 9.29917260676567 -0.3433895962428086 -0.8728445289512387 1.0442985432615886
Ni 7.477221729619399 4.7343423442891455 13.12472955571201 -0.14398306258359073 -0.7485975113439945 -0.07038986257747232
P 6.880801686079374 6.359917615596592 0.7629482327239467 0.023944940851371666 0.08840378265638969 -0.272985078377317
P 0.005384779995138496 4.883970927861136 7.380850393742845 0.5405968082578625 -0.10787988910313033 0.29789418291417086
P 7.014694787815535 6.637486609634714 4.632369252348974 -0.6065535747646457 1.3520395370628522 1.171401285150073
P 3.2643766490500425 8.809313283952845 2.2498333444334095 0.8903018051957378 -2.1198658147294713 2.201530993110447
P 1.630197804940273 6.50269730239831 5.07716924935805 4.390266891338755 -1.1310287948702973 -1.4169349521846564
P 1.7554307314214634 2.451631465235805 9.490941716333252 0.9549609359370199 1.5356173312199295 0.33306841682245864
P 1.8565510130750893 8.706938314598881 10.38937829658379 1.633420038592716 -1.9832363642974749 -0.16864945498201922
P 6.984176632096767 1.8649942122615801 5.604453170486771 1.9721289415304035 1.0828164968311287 -2.435157367184484
Ni 3.3639969657085262 0.8342069471095077 11.433812413069022 0.07291725698501635 0.1648143975066452 0.5264092039035708
Ni 0.40404717447754346 3.3707609587998264 13.255608576844724 -0.3291842512767041 -1.4093085459876502 -0.937706005511314
Ni 4.8499811550466925 1.3441950454577682 0.9507966790715217 1.3397535206066475 -0.6902645799310564 -1.0974900396829033
Ni 8.840133319419063 7.636038778004396 0.6222741571606912 0.5241553748723876 0.1357460193857791 -1.5088143520944726
Ni 7.799440625053791 7.2180957014020475 2.6380242851761446 -0.3321425625740796 0.6627995417415682 1.7821203041463178
Ni 3.603783822604865 7.837873690401011 11.996844556541081 0.10737081067719573 1.2213722177515611 -0.6443940426511869
Ni 5.9975015450408184 8.966441692500545 5.1278001432506715 -1.2624378774436193 -0.8531475647429436 -1.972593796981964
Ni 9.137277328330894 6.04162315687905 4.975727277098549 -3.915832023619946 0.6229397294321529 1.9371367417259344
Ni 8.704947795014132 3.4177315607546173 5.955709124129005 -0.08039145387487445 -0.6766007092907187 -0.24862130482097186
Ni 5.929144649727619 8.536998884268774 2.725879782051977 -0.9121083595478678 -0.3049132945444813 -0.11792030405826788
Ni 8.748022261478399 8.917150389987231 10.31716677424534 1.1705101407943712 -2.848918571172319 2.998905673858145
Ni 7.928381012183349 2.2814184563845714 0.6754455578029461 -0.35022950198277747 0.8883282264091347 -0.5114610672341707
Ni 8.445557622017763 0.6445547692709191 12.331532028919368 -0.0847924111560475 0.10973571136494649 -0.09026320446263164
Ni 7.265585159172768 0.9131966131524196 9.837351556654701 -0.9471782066678075 0.0935102506450196 0.16561195370727605
Ni 2.2984652283733857 1.182066753592929 2.8038902256640985 0.02232206053596801 0.6391983573828603 -0.7378541567845616
Ni 2.2674376505807956 4.585977882159603 8.681879465437902 0.26146653621475613 -0.11415338081666793 0.056414374233986715
Ni 3.768827140781018 3.1983310205532582 10.44850050174765 -0.3016937591659191 -0.6768555056140021 -0.6432571008332664
Ni 8.193667273997102 6.79208677529752 8.994529716252341 -0.3600477736247799 -0.40340608600575684 -3.5569358471011063
Ni 1.017542291232706 7.503730544942347 8.571642415411288 0.8376875214341316 -0.40883188500701845 1.644725436303206
Ni 7.2253408153408465 0.07173040149095142 0.29680156407331615 -1.5626190566197538 -0.9914549170979958 1.272557739486441
Ni 4.580166697021192 0.9086872844248859 3.3174782400006992 0.11535871397867875 0.16019978155276926 -0.03813717319135367
Ni 4.326078287089412 2.8186323344559745 5.582348025979749 0.3257006636034778 -0.009836269364131445 -0.11345841163217235
Ni 1.4915123622133442 8.813633937838222 12.69358490040399 -0.55154507973925 -1.7995181879077913 -2.1159718789917044
Ni 4.201024601708269 5.157238135498097 5.490074707674829 -0.5967381313361207 -0.03598953072073156 -0.3223487164121094
P 9.065128068690354 9.007733181706433 2.3709229713808493 -0.27410839334848275 -1.8379389537778348 0.10642387338289414
P 9.187823318544545 7.641293372358447 12.148268381236186 -1.3455780977082246 -0.17281258522077336 0.6508130588036534
P 5.244066297858389 8.80993591093196 13.302346165369453 -0.21410553043228936 1.1465407744629674 -0.173021873018102
P 2.304455654611846 2.706672683120474 4.320297289925745 -0.247318012628516 0.44234930003817363 0.9363116962669488
P 5.7673182376102305 3.413939196427277 0.12012455512981086 0.6302586316910694 -1.1327833156675589 4.386797958953549
P 8.603761477165753 3.6623390598680476 11.153884983503946 -0.7870704706082122 0.7141879235158732 1.6847562269728467
P 1.974982211496548 1.559746618879141 13.042521096861911 -1.155135972331146 1.853191766171847 -0.15723889915223244
P 4.544931670248517 5.1766527767559705 10.261247324527078 0.050132654990333016 1.6063830890795818 -0.14990174206087087
Ni 7.761724524106762 6.323220358797207 10.945174759859157 -0.371548832285844 -0.45224316211311794 3.7389360123584185
Ni 5.256905620867118 3.1052011184649477 2.2107455773839058 -0.07077989892703938 2.349155766211683 1.2650200363484987
Ni 3.040325273989532 0.1153322141390429 0.3641094272641257 0.5849213412068507 -0.14663952636983132 -0.7529575880849032
Ni 9.673925181875829 5.653915223732235 13.129134169902146 -0.7736503405475643 -0.2797149409019828 -0.7226249985396329
Ni 4.444245340731851 0.7018053200005916 9.218027330651124 -1.4833326628836003 -2.8010942526001887 -0.9858972205045601
Ni 7.317112258565631 5.273716549303239 7.046370463690932 0.5735341824158315 -0.44774424580149985 -0.25915922823781823
Ni 1.482937090637344 3.9691432206982755 11.266344623171163 0.6229512993963787 -0.602459350090614 -0.36951920345032485
Ni 7.525135705784971 4.616571507815235 3.9128464212957033 -1.0598406047612456 0.021398006059801855 -0.024662535743686556
Ni 9.460816947660378 4.915055108106373 9.647156938644914 0.042563841504139596 0.03833669079666946 -1.5095378605240584
Ni 6.715305548282046 1.3639304339473086 2.6884759379687173 2.030148455467981 0.0006690010425665898 0.4386908773499799
Ni 3.3130547583263468 0.6981723859148736 5.165341719968706 -0.5808263452018707 -0.2338811703973198 1.2168686734542529
Ni 4.075480361737521 7.558455682909759 5.331263319535095 -0.7279572093858236 0.8603708219642603 -0.3787216958851994
Ni 5.404647456017546 6.477131861286143 6.99179060535198 -0.3055301021928738 0.158131843280147 0.017276013471628313
Ni 5.730385137258151 0.9513928915727353 6.809521274086966 -3.021484587599925 -0.5877539255596393 2.6055803691271575
Ni 0.7807383835908567 4.630410807487393 3.763120670180003 0.9825781834336562 -2.247258577054549 -1.0065169536374408
Ni 0.03480201800992541 1.3593550690250205 3.193144349142383 -0.01738862779009263 1.8054517797834069 0.6001240170892181
Ni 0.40955930999113743 0.46749852389468 0.5270093992333839 -0.447578666757913 1.745243999945259 1.470080168749068
Ni 3.2568956915585483 2.2330139256293933 7.777008129695626 -0.3473046150264986 0.268824262131408 -0.09669276213805929
Ni 3.647896000700989 3.1789541142638145 12.986919564252684 -2.1245619346535602 -0.6883115699697435 0.5283943526543996
Ni 8.704777987656191 5.4373919748737585 1.6983037627134034 0.9476710871438261 -2.6548311357331698 -0.7366434243059119
Ni 1.566482310744118 8.655392347721802 4.290060259721789 0.632105455091821 1.6707051481964197 -0.2783712823898948
Ni 0.7430553007412057 7.82878899675119 6.266372628855539 -1.4188169996987179 2.5930966348378504 2.1028039741511786
Ni 3.2637445883288194 6.959592300163811 9.205932329894699 1.3839633823546422 0.2516037844880635 3.3052790978879205
Ni 0.6492395656016581 1.3239785361207292 5.681553257985489 1.0122325159649794 0.17737577911142355 -0.6324414982750012
P 2.514337549026424 9.470345027189268 7.085030882222952 0.1613387802532189 -0.33374204585071554 -0.5498967455025496
P 4.947403409794057 8.401445443921638 7.902625952854815 -0.11139098758018234 -0.058757163434550425 -0.209346161370433
P 5.383497006211834 1.5680011432234753 10.865907741798278 0.9082018254046101 -0.8406170363761007 0.8665000747904497
P 5.168398252411636 4.0954704612639725 7.521505601821884 0.13237658869291397 0.04104894752150995 -0.9002483748854883
P 8.313853148450614 3.1750013763206417 2.5833887677587573 0.1386724490039547 0.1537699667670255 0.1747537681075442
P 5.073749517843969 5.045486026488968 3.4530099827409875 2.113037993174361 -2.7352159047398246 0.8156331127372534
P 8.752503288979607 8.697759283527981 8.38048083883545 -1.1458247222325493 1.5965293362139537 -4.524705247656705
P 1.961765538803505 4.600175664031859 0.8713617404011211 0.43113131983516717 1.5092681518024393 -1.7565820506658973
