# total energy = -340893.0707486267 ev
CRYSTAL
PRIMVEC
9.05814194078141 0.00000000000000 0.00000000000000

0.00000000000000 9.05814194078141 0.00000000000000

0.00000000000000 0.00000000000000 13.25750634135616

PRIMCOORD
 96 1
Ni 6.492495493137226 2.2243897288327754 11.419630882295456 -0.5684228293311953 -0.6697569468960078 -0.10923151803501834
Ni 4.566245438589382 0.6689347027486139 6.033014011401717 -0.22430406823184595 -1.324408919829777 0.233475707428785
Ni 2.765840145992092 1.61743083125696 4.745378342055729 -0.7081530301757031 0.19217607734904968 0.26803159102678353
Ni 3.7366736518106 4.322418381640917 5.273968009699651 -1.1250208981133205 -0.45179116217736387 -0.7542143433101398
Ni 5.007612448652199 4.472448381798337 2.4247576337704166 -0.14360870996330752 1.1004408947811113 0.6409665050268768
Ni 7.396235343750395 6.041644608766324 2.3561503630952787 -0.9959486912032911 -0.14776901198858422 0.845414200654428
Ni 4.8579991230107025 4.670857916511138 11.277100117610496 1.3133506051330865 0.2793981809925124 0.28336899271480226
Ni 5.435754571905269 7.8469865885631425 12.376876269824033 0.49977488914549417 0.5628062544753663 0.6499707654080161
Ni 1.9049090728192395 6.44137134166174 0.41105575065771066 -0.47276930709092774 0.4172296221524105 -0.06369059618042579
Ni 2.793231966343239 1.5004358736989551 0.5010130612031041 -0.06886519840282979 0.10043551700994315 -0.5117726849373185
Ni 0.2798911421158109 0.2591615849486157 5.06219318698152 0.6567713332696172 -0.7066383933033894 -1.351107512166886
Ni 8.567607047569574 2.324590891770732 1.3021205436593197 0.7258851573481434 0.3752612481404247 0.8738958530338885
Ni 6.800617239521022 0.4811213821385811 4.67683719581464 -0.34105194924856747 0.5825536123056225 0.19484153999635476
Ni 0.9987054076771308 7.66468242970495 2.6624523288214856 -1.3036040672692837 -1.3698498257713958 0.17986126453743864
Ni 7.7926196223767725 3.8308873831175685 3.568231167120185 -0.2365826284888829 0.1079163987680206 -0.09131478565559757
Ni 7.81241166188314 3.7337569301991347 12.781283344510268 -0.7854619884705119 0.6173259827898013 -1.2294421392438892
Ni 7.893192169122401 8.760047266934688 6.957008772559594 0.18654073344014324 0.19990892721693315 0.3610098804277331
Ni 6.73895846930599 0.8403709032545221 0.4412247972389038 0.1684900465860195 -0.15868720156298477 -0.7958739278324553
Ni 1.8499533274255868 6.569145487783853 9.47625278770066 -0.040018706484782694 -0.2642582400272804 -1.4717300456476652
Ni 9.20597052224771 4.950518981829026 1.3372978367590806 0.008566144402456214 -1.5739630208776636 -0.30949011528188636
Ni 6.517142696568268 1.714624691166947 6.995959687470958 0.1793455012432847 0.8639729374932218 0.48486300503066826
Ni 3.1856578370683426 4.2905065486061655 0.30125929826936726 1.0754374307582382 -0.44765965650749356 1.1197205689463297
Ni 6.099453668779888 5.313062043249093 4.618862371808873 0.1771541500189207 1.0372647763432588 -0.07073850416614269
Ni 5.384530780871628 3.059958005384196 9.277297952860499 -0.6641635119686303 -0.27743925749392867 -0.26202497982138745
P -0.05288777165484071 5.508364635375768 12.459204813471365 1.811012818810952 2.097120036392524 0.7562509141241943
P 3.9165592868481047 6.1512481227375115 12.713404348423829 0.45535188294542867 0.6406656859570063 -0.24130805898901023
P 2.4506258746959473 8.525459514469745 1.408318196369915 0.7719462133722641 0.6196343192080038 -0.16225280742705606
P 6.247472761490894 7.620071082076182 5.7652915767792035 1.1457750999415364 0.6059380526678338 -0.33612108760585335
P 4.610711855951743 1.0703824825576271 12.445801481271102 0.6823826060798183 -0.7562429437043943 0.20278342055125076
P 4.07324702111865 6.159427624647924 8.160776919991827 -1.1501128080849417 0.2545199296935939 0.34885704711528304
P 4.635576454782396 0.9756524371765793 3.680906296925061 0.5157468390937182 -0.12056468365965042 0.23300031045426325
P 0.44737527541960104 5.60740635618246 3.40561487913938 -1.8784456556426297 0.7824723097145686 0.3465122010321903
Ni 1.367561993827604 1.1335539624282935 2.5943613722204266 0.21865586880713314 0.5665389820449211 0.2599673259614103
Ni 2.031958567609312 6.042577597356327 4.764628704691397 0.2782494121000499 1.1409992758194478 0.757957612402656
Ni 5.867039870311067 5.78722858422841 9.228775299667038 1.1655857069095603 -0.19754479786013077 0.00749168039135484
Ni 8.708270929260365 2.202061409664265 10.33691755150899 0.11544921680995601 1.1948263489422326 0.23788617779165483
Ni 2.344500687118556 5.107695855748699 7.145318479332076 -1.0789634416336258 1.020561604655965 -0.37456576473529685
Ni 0.6986879806280486 9.216115640896284 9.27457960455118 -0.580137289554646 -0.8635170809027257 0.042639431937081404
Ni 1.5534169442127963 1.0534528158128214 11.605978595586437 -0.053557878621798075 -0.018365389881065144 -1.2218476147260826
Ni 4.074044137583895 7.121248279524171 1.7170984696517018 -0.054687621350867105 -1.2530258401011 -0.6307669387860557
Ni 5.638955863551191 8.003674322833687 8.01905414154209 -0.4310331036944061 0.4518469551159638 -0.31460403946968396
Ni 5.316821172034055 2.7858314646147706 4.656248039843028 0.8860407159265385 -0.03237893055133778 0.555829823157533
Ni 0.584830763337781 7.11342204513813 6.642328931620829 1.1037388488060926 0.4704810252773833 0.11437269591632561
Ni 5.406025751008291 4.790126467623421 6.892935101780537 -0.08545884109545282 -0.8472484256496892 1.3813038332446084
Ni 8.175833363043306 7.344866622450345 9.25580751179466 0.3594775029436067 -0.4877202719738052 0.11090247797953803
Ni 4.705432843191139 0.27171979253288464 10.247866055128647 -0.3588033596947176 0.4054280015317921 0.4696904110552879
Ni 8.088449470540823 7.22518139682214 4.341514755868525 -0.024237789501442127 -0.14640298487899303 1.2215213417349158
Ni 7.447902983724912 6.271259441465136 7.069657633753684 -0.3419796032691594 -0.6382143962030363 0.09722575182339384
Ni 2.3431600821542804 5.038292374422481 2.5352723967916457 1.2917073158316978 0.6858086010422317 -0.46244067147141005
Ni 2.4294117069504493 5.143049782610645 11.481450887431865 -1.3161075990529334 0.2538576135192467 -0.8269824763118016
Ni 1.158083410017878 3.4954553396574815 3.9517836822844483 0.068523755903011 -0.918489066263231 0.10195503897826312
Ni 3.6548242838565788 2.736238139078221 2.542046980932063 -0.9411731381243081 -1.2492437473508486 0.26060933042078344
Ni 1.106959258542392 3.2223342526112635 8.253314895093451 -1.1624949837993785 0.2654088086919558 0.22595574490265605
Ni 3.609624157020527 2.895679548410522 7.191441630802314 0.35248127413143165 -0.561314243310872 0.18919642589543545
Ni 4.277009917546904 6.73578811972831 6.030149827011825 -0.7856954446375566 0.9804513668986404 -0.48694688414289033
Ni 0.7684420120361415 7.495666564648059 11.342896646931479 -0.12589843716773802 -0.2707811287474627 0.8408466358884035
P 0.2990572640341279 5.598302923823695 8.280094385069022 -0.37786937518723307 -0.10693269469851263 -1.2970382411263082
P 8.501872113611814 1.5632722023285528 8.244100953406551 0.10200106172485013 0.6339566493679469 -2.3137480761363505
P 1.6535637583008498 3.1353760927663537 10.471003410733179 1.145824208011917 0.489481477639286 -0.618030979276626
P 4.029206336413864 5.8903102362112305 3.8494094711645337 0.3335947216395738 1.0806475142042677 -1.140793587566545
P 7.009905602356086 4.14019574605758 10.330686455867601 -0.9754659978689072 -0.4503500588554631 1.4582052716883531
P 6.270498557566494 7.816850151291891 10.249549963661476 0.28694899675657676 -1.582341731859662 0.8946364280153496
P 2.297008850444925 8.470585292350947 5.841256775917051 -0.17557317868504602 -0.45358296397046394 -0.7998665939316161
P 6.799077355440434 3.9596398085379367 1.4226364008768784 1.184963854325856 0.38870914611521445 0.4428797186203469
Ni 5.1838838851711495 2.9319121150125675 0.16476669080863668 0.3474151724624339 0.37501956444326384 1.0538481346232365
Ni 1.5550021190016357 1.0102817127064843 7.057738930969942 -0.23249740267591573 1.1627053000379717 0.03769262945476735
Ni 7.0941100871392395 0.5456570181418144 9.506413681954367 -0.47942152230012275 0.7644866717704253 -0.22730917360675693
Ni 2.8061941670451205 1.630429264525444 9.304064761437761 0.03541386072291966 -0.13718506582515083 -0.09728180187230988
Ni 6.406841705689991 2.12598207794162 2.4873068193096928 -0.5538493023923946 -0.6691522234324734 0.7283655005678359
Ni 4.0048308772323375 6.867384801626939 10.42469547317327 0.3368962752089811 0.5552340985550631 0.024207450484138957
Ni 8.473094397588138 7.226141559837093 0.6083719676732949 -1.042187667566173 -0.5970116967124814 -0.6792990820584881
Ni 7.469579116694586 3.892292525366385 8.271782634290513 1.4185267221518085 0.007128640624981271 -1.0928152599150533
Ni 3.0369684418751985 8.250372810685365 12.425359067194227 0.13329498674212528 0.516148445407511 -0.0366688161759433
Ni 0.0947798651601257 4.875789313212307 10.392558998225585 0.040808806486245845 -0.5709114000810038 -0.4565070795957945
Ni 8.750717381034661 2.381448846910992 6.0218507576316265 0.05309996514877307 0.47618707452322506 0.16569628589096624
Ni 3.5971601541094236 2.786637639221666 11.566617346858305 -0.47190721620094855 -0.8135975703644632 -0.7024135565887645
Ni 1.2517536528258164 3.222950206243498 12.601510936243393 -1.526760395049932 0.5126121501194786 0.3612911591135778
Ni 3.0376749769239386 8.31230332514991 7.906273031479905 0.7757393618661093 -0.3694328143841057 0.44852868937600815
Ni 5.661003380328536 7.689664784377061 3.4169103817775675 -0.7168929811518621 -0.15723709938001953 1.892399032498928
Ni 2.946595362628046 8.394234216378786 3.7023967379908993 1.4854018867078032 -0.14406893742917767 0.7482439846593179
Ni 3.206853888530539 4.333777291270658 9.228271666991272 0.5055218189316003 -0.045184309846122185 0.7687539316872114
Ni 7.148087553234637 6.083610979033144 11.449195750828562 -0.19835366691467132 -0.0624199569981183 0.15669176839951077
Ni 0.6888689550788942 -0.003698439235903791 0.2837634976714045 -0.2577849735981109 0.5761235404095626 0.25276360912411955
Ni 4.731574639994515 0.43803361393542867 1.545294508594783 -0.7716592782594646 -0.3245470096150088 0.23246757787924482
Ni 5.831468548049508 5.671402126943322 0.4700885656082583 0.011710860679024994 0.6583954991366016 -1.056127931796349
Ni 7.778543270251879 -0.4466415659459096 11.944734071218095 0.06660134206931756 0.3267926111160759 -1.245169577281475
Ni -0.2271111623466113 5.071581044988109 5.462131880391558 0.15865172033935904 -0.6625131208494011 0.5927593491940307
Ni 7.943328983157981 8.835773331132962 2.564929658369585 0.6029895115624713 0.8599656161060415 -0.18179576255599014
P 8.551981753222442 1.7850608006413233 3.5130670844685707 -0.6682790767989008 -1.0106476879763626 1.2721656462543445
P 1.643925895584706 3.2154681812401753 1.5286039767895505 0.7988345531226757 -0.9369986950316443 0.617659197759504
P 4.699345772001996 1.2598335151780724 8.238373490440933 0.49604164735530704 -0.7408788025434982 -0.6986332636107259
P 8.506029800629397 1.6176844592231745 12.520269369594121 -0.10769708366836289 -1.0759796764149536 -0.9123801251520158
P 6.375554884429125 7.912440720129737 1.4499466979531699 -0.04037686115514982 -0.9166723247694664 -1.841240507347242
P 1.749734048204329 3.23237973170168 6.059581540862667 0.43288198397768674 -0.1834487247783808 -0.1180113211101774
P 7.033810038171786 3.7368819890685616 5.939508626771818 -0.39543952286051254 0.11426188137007419 -0.5485163202152553
P 2.5252740200378114 8.62349578155323 10.148859661074393 0.0721739510610886 -0.6067356088684648 1.094683937692676
