# total energy = -381175.761142035 ev
CRYSTAL
PRIMVEC
9.13172344432001 0.00000000000000 0.00000000000000

0.00000000000000 9.13172344432001 0.00000000000000

0.00000000000000 0.00000000000000 13.36520030951458

PRIMCOORD
 96 1
Ni 5.846969318957608 7.623372567141473 12.304805262192376 -0.12520269665229403 0.7259085543869112 0.4982705366858257
Ni 1.9398610936814513 1.648613913552957 12.863617411470958 -0.015219388052915724 -0.4765799390862695 -0.7799783396481212
Ni 4.685103647782189 6.85307518730329 7.203601861835813 0.45954175265706015 0.07731435761144749 0.9310149666443837
Ni 3.9511322628819605 0.1849356584925776 12.766345382642756 -0.5417664030859315 -1.3429889968248097 -0.29759336384430035
Ni 8.960713431561677 0.7076464532242255 12.071368282203073 -0.3721435284470494 -1.1095803951885344 -0.15948450065329955
Ni 0.1410759919045937 0.4685962029764131 1.2413007050533207 1.234350118068468 0.9676169341381334 -2.4546782108262306
Ni 3.596200445071892 4.314602241895394 5.339825372785723 -1.4027288358876036 -2.7125891684792447 0.3347810286381912
Ni 5.460697427083422 9.120527719497616 6.286509291845264 -0.22467867796244534 0.48003010241839916 -0.8586931771515212
Ni 2.6065134150616673 9.258745482036804 1.312551888588487 -0.37189001767534663 0.2265437561956421 0.27400657766329584
Ni 3.8316893232669633 1.8315223294924359 10.560619646673317 0.19341534907278946 -1.056719799744077 0.24403060012649583
Ni 5.651769603574569 3.433664903618732 11.171115522988062 0.2791539261921902 -0.14770627707144884 0.006010467860138036
Ni 2.524209193750508 1.726671883570464 4.273148784373814 -1.14178346228364 1.0629069023913953 0.42567595314755075
Ni 8.535622584312618 7.193944151366638 11.707420714065645 -1.244763600092308 0.48573486611266026 0.5391947857040134
Ni 7.500477836152282 1.9282455417555893 0.34575900184345804 -1.8377319799733511 -1.0124806274200435 1.1949998984056194
Ni 0.8932313772371873 3.983668592686871 9.927429611831725 -0.20604255091849677 0.31777395255723334 -0.6847531631945238
Ni 5.305896455190958 5.637423666408272 0.960891967205334 -0.6864799160776435 -1.669434251903796 0.4079787929781038
Ni 0.7296402085807026 8.397806617594762 10.15169834171602 0.5926583048397922 1.8623760037742763 -0.6066816157020778
Ni 3.558897355750236 8.061603964092825 5.141204913887409 0.5556614159004688 -0.6911061019957453 -1.612804162114577
Ni 7.177342678566939 8.69948222563154 10.131743700152818 0.8875895484708972 0.9709984490158567 0.4807901205128752
Ni 3.8801331149074496 2.1448865432407715 6.636890771978715 -0.6420245139777458 -0.4636166940573822 1.5040678385484225
Ni 2.5876655383517777 5.796781368183601 8.878836574896848 -2.8465297592251684 3.558903255240122 -0.14306723563754073
Ni 9.316640607201872 5.142803878621858 13.338683440343186 -0.13921340910908925 -0.8459055384685495 -0.5973490254472422
Ni 5.650609874726625 3.8497427400573954 6.472218407293911 -0.20747568382059753 0.43761435645634955 0.21125571968832002
Ni 9.02333878935064 5.616466361636374 2.581928989829902 -1.1134833297873663 1.4503474662068314 -2.6089212605749323
P 5.689593201119317 3.2585001889631613 0.8963681241605629 -0.8071692982406163 -0.29220098918413545 -0.07081203771655546
Ni 7.12558407140044 2.217565928286319 5.473824279200896 0.38220194112431594 -0.549187635250667 -1.0204708447143718
P 1.881911178177111 6.1309841743020765 1.9603408093293528 0.26303748024630186 -0.9029446907707287 0.17687107156086315
Ni 6.8429115793681605 6.181035149227902 6.074723627591984 0.03176160868231304 0.19874884547056096 -2.026797793828193
P 4.377757239630664 6.080978857992312 5.1821561266323215 1.8007988543924276 2.1047197031166522 -0.5439685529435729
P 1.734114237988371 2.134284612591459 10.659094323448562 -0.9023736487586074 0.00731838803828417 1.4729081251161666
P 1.8064100906590075 1.480900685038505 6.415322292648254 0.8106881100271522 0.06714101662287146 1.219820299883409
Ni 4.252469997159887 5.375224497817645 12.34284254206029 0.18012505972178655 -0.7894520834665113 -0.6346210224248232
Ni 0.5929392252670527 4.6859894249337675 7.398667340887636 -1.985198116009536 3.205507953934853 1.874461988404533
Ni 4.185169197086299 4.4040292073120355 3.1411292373450026 1.731732081501753 -0.3064736970530657 -0.04593070109384347
Ni 1.481950833207903 6.10210966550524 11.531200372206747 0.8809602160798377 0.12766401370859304 -0.9741223393568191
Ni 8.999422806258007 0.0625952231023638 7.708779748000123 1.5470124604307487 0.12363175262074838 0.5934841431751973
Ni 3.0553558743855453 4.4290866558061905 0.9626607819915285 0.07790776822107227 0.9411715954624114 -1.0125675307068946
Ni 8.897430589701438 3.7690730972012116 3.6937135513928965 1.5944469997636281 -1.4914462931296701 1.5447992548295137
Ni 6.802403255199038 4.7064992752682695 12.786673511685335 0.6609506614582875 -0.7104258853702797 -0.5672804881966359
Ni 0.07507098335481094 2.471473492200309 7.508956641154768 -0.04370232598395699 -0.6535494838982099 0.16297605874632576
Ni 5.214679672024735 7.605812263404498 9.758026101350701 0.6118875853830494 -0.8661907710801469 -0.7962881325517384
Ni 1.3511115030241359 3.732473150566892 5.643468867174718 0.451295453487868 -0.8011773423232394 -1.7865881101096845
Ni 7.769087474437842 1.94506617591238 2.863975045649828 -0.6169495732869891 -0.6706694314079481 -0.15011951449863178
Ni 2.157515716443183 7.785223229353721 3.2979035746236134 -1.3533256028641274 0.7251305385703061 -0.8572623582422656
Ni 8.592787171620712 6.921900985153306 9.080289694335573 -0.16181289167616003 -2.2111170941369855 0.22814221103101354
Ni 0.08285121153156762 9.194366833391108 3.3543978934479357 0.660287831063308 -1.0878180638107784 1.9067231624310839
Ni 0.9696794244523914 6.0593732008723515 4.3906421010830154 0.571291409128242 -0.2229606668300741 1.097211074989904
Ni 7.379482503591218 8.586385833648992 2.1948197189371603 -2.095807488228687 -0.7958045080471003 0.6628990434339099
Ni 3.6458313607299586 2.381078564123179 2.007800201207569 -0.8089958099263939 -0.1901420776381564 0.24809628555543728
Ni 3.0565886570191863 6.998570933242567 0.3958848568996232 0.13169498924485706 0.05564947104350415 -0.22943444747987585
Ni 7.555578654014429 4.096417979187358 1.5745145455479193 -0.23758613005273277 -0.15561036240987394 0.33496357696264245
Ni 5.736082803992401 7.620642181901038 4.100309919620378 0.5559200688784942 1.5903751436870999 1.3756296656779663
Ni 6.874023360351974 5.354933808840235 8.184260357106181 -0.7227615241174971 0.3201123708824229 1.023240694150025
Ni 7.097056568085666 7.981637463923978 7.77596731470588 -2.3869718086181924 -0.25759239797133054 0.25728360848166015
Ni 9.271803846230187 6.865640438443216 6.392347790218791 -1.7931009715275374 -0.02417942545968094 1.5750025178857714
Ni 7.476543589613222 6.570841017985193 0.6289319123077644 -0.6018091181011249 0.310243191397827 0.2420431373828219
P 6.305162662850734 0.6738371612035402 3.969624915558897 -0.7102178831245317 0.4468934677654303 0.07051250419826567
Ni 6.750882072836054 1.6611152426303981 7.626490137446103 0.3660947511498082 -0.046142559994333435 0.8826098358681187
P 1.255018379662621 1.8263172472615072 2.502873835637627 0.591322102526872 0.6446233850531737 0.07662298797137772
Ni 2.884848338568174 8.7213892296175 7.03299570340775 -0.7071497857221692 1.0631750684511174 2.4740674139861194
P 3.5240050413565887 7.183807938601145 11.56669811984936 0.08352485729753358 1.6072783472003416 -0.4966288873173447
P 6.247258405962455 1.5496442973796132 9.751049464816615 -0.0978710987168766 0.08683206729389563 0.9902444417296624
P 7.828699363566794 4.045243802306437 6.613769248805537 -0.48397057512338587 0.05731477456106902 0.0676593510201867
Ni 2.621918632120574 3.9153998299527952 7.845693500464615 1.2453909492636617 -2.5348470071673375 -0.7453543218163485
Ni 6.783701486060543 3.925481252379015 3.8652292294528903 -2.6305894895769857 0.6133633985976275 0.5650066045607947
Ni 5.28019065434874 0.9209068907762678 1.3389389159823322 0.9689235687646989 1.0049195272433338 -0.4376290117443689
Ni 4.0880715841714474 6.674741764693101 2.8434597162813993 -1.4485646632747957 -1.806160118704341 1.5315639870861624
Ni 1.126471112005105 8.53813380819596 5.2652201073147324 1.1895936397883837 0.03552621793106785 0.8404959374172041
Ni 3.8617235609117437 0.23731157014821794 3.294200660861084 2.4563247452907184 -0.14383265304865553 -0.6061139161240658
Ni 8.822660040040308 1.6194837165061802 9.835704191682584 0.8111647925532546 -1.3094317296946545 -0.5143245048248949
Ni 2.139297928634932 3.955588543809492 12.159591686500352 -1.150906507630831 -0.9529814436131457 1.0308313620130891
Ni 1.684702483687396 8.46201176349943 12.237578429076805 1.1646675659706651 -0.41888669813985924 0.631769669018957
Ni 6.608902040333458 6.038269788529059 2.799595483831809 0.04929087581532802 -0.8908869882752463 -0.34293399676262876
Ni 5.813693319572513 1.193434038319843 12.018362281645796 1.7407247719186665 -0.5615433286025425 -0.8854879287468621
Ni 3.211964927474016 8.405559450601883 9.666875066591608 -2.3633981350633104 -0.02601082224146488 0.30735507121675454
Ni 2.240915744539801 1.367667317207774 8.7351069042268 -0.43328898960811835 0.07616276050550755 -0.9422321755164417
Ni 7.515444730497004 3.4608500436213196 9.516262816136559 -0.33463241887546885 0.637657752368618 -0.13153558084885733
Ni 4.0825012330120325 2.6113075697480492 12.847525488826498 0.74988023471116 0.9676490729276496 0.8005168259211052
Ni 0.2529907389034893 1.5424576312116467 5.099117714774905 -1.465483293407005 1.317366411160699 -0.5788285980455515
Ni 5.0313877237103455 7.827384395424244 1.4093335438801982 1.7618834082741526 2.069997726254435 -1.5416691938409643
Ni 4.72458921895155 2.273342493666166 4.621953215908526 2.1126438430597356 -0.23557886981471687 -1.9361545803183238
Ni 2.3684585226439796 6.254572916255391 6.319306788934043 0.35858507303632436 -0.36353753194559324 1.0176179486466088
Ni 7.7911040591023495 8.863597555200402 5.759064611800435 -0.5285005392149609 -0.28085316827148404 -1.9773151137170333
Ni 8.314370062605295 2.805868064506239 11.884642805960913 0.236660790024986 3.1038426782828674 -1.4681533840400005
Ni 1.8835731518017236 4.0880076621089625 2.8996873887879264 -0.1389832953761542 -0.7030928420439762 1.020652107487242
Ni 4.68206278395254 0.6421756504823538 8.368165957220427 0.3781781646769035 -0.01739711243052488 1.115875998389259
Ni 6.260864673548567 5.8574616689283765 10.861603983262933 0.7498172426837088 -0.9326455602692713 -1.5814547012690183
Ni 4.832142654944319 3.202869731154709 8.926790906173162 0.9022762039487945 0.23248737537358669 -1.7944664844164966
P 4.58539436202866 5.488311758076981 9.03214907590573 3.5273442494869185 0.28151008512919257 -0.5648186569197047
Ni 0.4314099997118726 2.935246318976061 0.6897409703498305 0.6394775791861761 0.2883556472961163 1.0284471780516287
P 7.932819271631794 7.076720220492195 4.0983584703699405 1.614533486100858 0.433508304707776 1.0277020723554882
Ni 0.5510145708277245 7.309423923107559 0.6461689530430296 0.8674020177794287 0.6884738065792207 0.4611461210297026
P 8.433128122979381 5.187330161004328 10.8592653489483 -0.4938035020534077 -0.46759367642725924 0.32640720275219914
P 7.77263971476737 8.640491293681013 13.423338167209153 -1.45812248216656 -0.13940984139061152 -1.3051544424755392
P 1.4148509310449826 7.578298381366273 8.214720133052646 0.11334733997560478 -0.18789570480614093 -0.40958470401264296
Ni 3.404954765839715 4.384770403057599 10.383289800444144 0.2567812149239449 -1.5320406696122648 0.46436951306300667
