# total energy = -340853.32249135996 ev
CRYSTAL
PRIMVEC
9.39920264060288 0.00000000000000 0.00000000000000
0.00000000000000 9.39920264060288 0.00000000000000
0.00000000000000 0.00000000000000 13.75668315048047
PRIMCOORD
 96 1
Ni 6.886551447388201 5.5829384265302755 0.9129896755334068 0.8560433982334998 0.7147047152512916 0.6988381805326803
Ni 0.060655874857617816 0.1942608417991219 4.961361631861788 -0.20544091277875587 1.9627498143083486 -0.8617288786540513
Ni 3.12752830700931 2.1347845166289474 1.2372123533030859 -0.06290460994402071 -0.1255086579284871 -2.087322076465495
Ni 5.1681046148616785 1.3841735872975203 2.2344846795498112 0.5886281006344766 0.43604649774859744 -0.15583610526743483
Ni 9.293442882512807 5.988795999609465 5.499949106110049 1.5669670491758045 2.2226968285547852 -0.8421877232973303
Ni 1.0588953790633486 2.0343728340628293 8.97729505979251 0.5777906436993404 0.0911692612166688 -1.343375690740267
Ni 8.916976616312231 4.835109661201429 11.338175517804164 -1.3881044011062094 1.0002468043580128 3.9956673478810343
Ni 8.913865480214751 2.5445521580360895 0.5017416596992165 -2.8303454361558225 0.3107304154468907 -3.1946301306800855
Ni 4.414664525514112 7.54799214059637 0.9436028787645074 -0.07046493878978186 -0.5998805336198443 0.16605392634070112
Ni -0.05332731650352229 -0.2473964145673312 2.204673228309995 0.44246551390106376 2.669483595539022 0.5617191920587745
Ni 3.1436949356729555 7.371550307297562 11.125730978439528 0.4719802355307291 -1.0518555296732404 -0.08560693663754289
Ni 4.247509104494188 8.816837510624746 5.749660544305203 1.0801806018701783 -3.7665419470011456 -1.0964333162836148
Ni 4.101210514290909 4.516786862973709 11.249389709071805 0.8629879478721331 0.3960835842024147 -1.0989283147913267
Ni 5.406618782866715 8.612339057232344 11.43637086837093 -0.6174573661613431 -0.8227041606514218 0.020578081261667783
Ni 7.007340601432681 0.4941283055029649 12.904470876599005 -0.2596348823226561 0.823890210539723 1.3256152814330524
Ni 8.290829929285453 8.408442152813471 11.909119747386494 0.3980831311309467 -0.09890031131233934 -0.6571351443669392
Ni 8.330701347187302 3.677720036925092 8.988685953558482 -0.7573220357011861 -1.18654354010815 -0.18182275913918364
Ni 1.1769869619296511 2.781374469553071 12.77845952552806 0.24474922346007524 0.3445429931209615 -1.0264867118911483
Ni 5.564083625891164 8.690784803061868 3.4051920341479613 0.5750706736650161 -0.7935866744601752 0.5618436334517807
Ni 3.4599969053177193 2.6443810900340994 12.740339179091347 0.5329295215205918 1.707012467267886 0.819975191756033
Ni 2.912418153755713 1.0881832947121386 5.9009425917860785 -1.8521442987439394 1.047818383489389 -0.3006468059586435
Ni 2.750028128510479 2.4481539350277477 10.683811484317424 -0.8631800092782812 -0.24825363706890793 -1.3842976257656094
Ni 1.050924855164063 2.847328674979117 1.7351031596514328 1.8033085081881588 0.22213585693593355 3.9623908452160923
Ni 0.6080475822856672 7.085899137694743 11.391221798146615 0.992837142157503 -0.38276218450316013 0.7180150105714473
P 2.9781749759248193 7.606624367110219 2.635202768586396 -0.024869252437853945 0.2024131816960256 0.040156517614227616
P 8.632791722332398 0.9815869367619049 9.17800469457194 -0.41614127418423813 -0.37520879763593445 -0.19787826994014954
P 3.9557672515343696 5.631842478237803 9.335381185090899 0.388184383959996 -1.0056345510324876 -0.3752890160545666
P 7.249783636171093 7.072571068249948 10.663245088864564 -0.48599557597321463 -0.7782788404585111 -0.10550778932652796
P 5.29835876603656 1.6205353378816423 7.432818070251692 0.6876813925849125 1.8396847328243477 0.18571360955315758
P 4.306912065630374 6.231887579334966 12.77133305003226 -0.042744075835745736 1.6780495043766328 -0.773225851415636
P 4.6696836934804065 1.2110778701639777 11.501907749196588 -0.4009360271987095 0.9335374759559213 0.8364145682589789
P 0.6057485373024536 3.490657104562377 10.438515791556098 2.9192737238571147 -1.5687436814602531 -0.461582951456805
Ni 1.5442890054865892 6.171008943373087 1.6904625862938065 -1.4074041298760858 -0.020744174525886852 -0.6265583000213467
Ni 1.948783694172623 4.648789265852916 8.006527545271723 0.5616006642030393 0.3976645555362893 -0.38525641167992364
Ni 4.184205474232764 5.3034625331088625 4.376840253962809 -0.35091572941652466 0.6702287443261038 1.0187597755605358
Ni 6.531374375328996 7.4228041596829435 13.21497259825055 -0.5596324847330749 -0.5140907915475339 -0.4066611026079448
Ni 6.5624857363038025 4.7520771044487295 11.421320864989402 -0.3903101720537472 1.8878589785367295 0.6091151648442348
Ni 4.753975743396437 5.658132048221649 7.22441894773405 0.3695587984390087 -0.2660132750451741 -0.2477764403221733
Ni 4.139173894042342 3.3466989158342417 8.649542041484422 -0.8972568963573321 -0.3283221603867249 0.43664016546853834
Ni 9.126588235979648 4.469762651808467 6.8506352139873155 0.14562265506954275 -3.208817477924061 1.684862670643724
Ni 6.123336187220756 8.311226199169237 9.042749227634308 -0.5915416747368458 -0.22298329253789342 0.32085670524761517
Ni 6.968051934098939 0.7591416457123138 10.546120683957266 1.5317817595239231 -2.6907149941139723 -0.30948960106125406
Ni 3.4103597157987013 0.22765244935171872 3.6754416701878436 0.4293752563760089 -0.6345973682757394 -1.1010751859310004
Ni 1.7982178659383588 9.046826601770523 7.9759462993298404 1.4609638082700966 2.8796933904613304 -2.080597099036836
Ni 5.097695187350418 4.510799570846534 13.577832578606072 -0.6752984455395273 0.4398375893599135 0.9488697354376173
Ni 5.984049402240197 4.593042594571474 9.100045827442864 1.1250185841204754 2.064798698551999 -0.9560400279338116
Ni 7.895377273607806 2.9711255738912525 3.023237573484188 -0.1432083892010953 0.6832490678451717 -0.33393642124970874
Ni 6.8035000922300775 9.269456117193258 5.688773449060884 1.2983232784863188 -1.1281082787893928 -0.973690394025723
Ni 1.857150866938973 9.31342558747729 12.458740005777422 1.6926466854645172 -0.5994007657699484 -1.417186148963514
Ni 2.3957345815061486 9.242320618965383 1.0165049748348365 -1.9854860795635998 -1.237507946971159 2.0888179442847314
Ni 7.5367130973426635 4.939281024852115 4.498944356466618 -0.45783196905480505 0.3452276778928119 -1.5044493902575573
Ni 1.6221144039371613 5.204169355665403 3.946063514655098 1.551740204923721 0.3206731284818993 0.2680868697447512
Ni 9.369040669920771 8.278075211206051 8.848037224105038 -0.8394464131067672 0.9580760845272338 2.8502141500552916
Ni 8.075118227058322 1.0976576910452518 7.076933238228318 0.30059409834383716 0.3541632898195449 1.4076414426978725
Ni 8.424928354369305 2.40843290436928 5.177946520020807 0.17879399961518885 0.19085041655909066 0.0033892281872070665
Ni 5.733964815697401 2.44320995440154 13.288198966814424 1.3341834827180377 -1.2571018099426867 -0.3149272271370576
P 0.27844010128261487 0.4348240359952495 13.5522864855567 -1.6337573673274766 1.429948333725189 1.9251790551434262
P 2.2557052595113882 6.278197451094141 5.982327468303466 -0.12775914452556061 -0.7004155523221293 -0.13945714968877918
P 7.458765509256843 5.690653289603168 7.471475111163228 -0.9970138992430119 0.009896690288421665 0.15679924051165253
P 2.1785848012641726 4.186254500423853 0.5300943546782201 0.16684659744532554 0.10491309316532255 -0.38598917608089006
P 5.438444483247589 3.33326745515962 4.640968189276742 -0.3609980533531912 1.430008240428847 -1.1051079612394774
P 6.314393780735825 6.366596952595062 3.12433539784824 -0.4891284651752415 0.16027202955160139 0.7106192323280085
P 9.215749072900195 6.053970071210465 3.2428903614082154 -1.4991853136451405 -2.111082669220203 -0.49743569948935623
P 5.9043253648419185 9.075879537351529 0.9251936003339168 -2.1040974961516214 2.7328299210061515 -1.7036453505678661
Ni 4.023253527002377 3.618674245491941 6.2871069553442975 -0.4179389895146093 -0.683293547929862 -0.67394810215922
Ni 3.63552701595352 5.018130936398232 1.895464836951541 -1.280490621180272 0.7499663666670632 -0.5446655790105974
Ni -0.008927362735308354 5.710880373838148 9.429683385894593 0.14605125796652912 1.2017529008587367 -2.255246480356032
Ni 1.4570268075137498 3.1746747078098014 4.919238164990281 -0.5735763485076767 -1.3635076856034518 0.12335407347932949
Ni 7.82625553686801 8.0169183638692 7.548911382621546 -2.073088706474933 -1.480310845338141 -2.9665102882465746
Ni 2.3688716601569055 7.058519260196372 13.41006996909099 -0.2688067786299112 1.4439086525600229 0.21509540514938438
Ni 7.594255016341988 1.216322625276951 1.5333332948061562 -2.045363729755839 -1.668638495475378 -1.3069889245811168
Ni 8.21486557297174 7.697195084437478 4.316888379388277 -3.1791477187737702 0.28216417377342373 0.02931160447992371
Ni 7.248495945399628 7.9836263878653435 1.82566353785571 1.4593255013357254 -2.0241693550664106 1.9481004398262902
Ni 3.1071602347336595 7.251052528537135 7.992110108232673 0.8271028039397497 -2.0794627283220763 -0.8437553248947662
Ni 3.3049382581873954 2.8828858588364255 3.141999319503815 0.47747648275861 1.071900364139257 3.8170196440357227
Ni 2.1233644853345703 5.13969082506505 12.269641206107414 -1.1952032726656772 -1.3363648066400726 -0.1216219212795712
Ni 6.733852000138443 3.6777012385196697 6.2991990296325415 -0.47419806911765433 -0.06743617926578709 1.8011804061015624
Ni 0.8643713595883068 7.737151095163732 3.5628298225023003 4.594780921427867 0.6178988245741358 0.7980205418618127
Ni 2.3486069791110804 9.290641920104804 10.04182808064217 0.19544189258451503 1.023644871566979 1.7770256632322299
Ni 5.50793278889313 4.271994027557442 2.7240430926944827 2.344188394904079 -0.6781960788022965 -0.004835730825746511
Ni 5.293433583815775 1.344189378963132 5.309584233834811 -0.8851117763543659 1.7008379630260577 -1.1605427451690142
Ni 4.623317426504963 1.0557936421685794 9.427744330375226 -0.31674859661651256 -0.8507800929520315 -0.35810710495864134
Ni 9.30965650719001 1.1838107830981432 11.516545127579086 -0.677211346291524 0.6502615571755574 -1.3621352307359573
Ni 0.7728691812723453 8.023037244834335 6.326478335661901 0.05947707231971047 -1.2250080147319353 -0.5951826139235427
Ni 3.9757781541069863 0.6510000588363223 13.5771313980838 3.076002259031832 -2.076280216829037 -1.132954036917468
Ni 6.3052483564976125 2.7137942020579486 10.322974212385402 -2.0219844315999502 1.5037652197063394 -0.9533601671088032
Ni 9.0333105482715 7.871945061248232 0.43244509778898865 0.8551874779911078 -1.435636899469534 -1.729970875836272
Ni 6.198727192169071 6.977263152756131 5.755754987343289 0.33146764799424205 -0.8440841689890947 -0.1960054783974689
P 6.85580665531914 3.4673752794461854 1.1556094152827936 0.10984472613898502 -0.8344291623978338 -0.31323389859503475
P 4.3451668206658605 8.971332205592384 7.750514881578831 -0.10803904038881393 0.10510232635799319 1.9995852379691434
P 2.058058824895612 2.6773816907539008 6.933753303484688 -0.5993370024115485 1.0218366147136466 1.630439101587521
P 1.6446724904445733 1.2324986531433078 3.5983494095487627 -1.835100198777459 1.1406287798539065 -0.15392860383207685
P 9.299166996964063 5.820305891804519 13.5219533785664 0.215596513155519 0.2009887905446732 -0.5919813333774255
P 7.413799723485402 0.7960278768330172 3.5114349820762456 0.3347581458200557 -0.8371010528030421 2.768317829500116
P 1.5847713715646827 7.17083033339515 9.414042172662517 0.6294610754904385 -0.5340590071393447 1.337565254706077
P 7.62415388016702 2.929440109866097 11.894001129825174 0.9469300952127434 -0.6347819734827197 1.4163263720663801
