# total energy = -381172.7146968606 ev
CRYSTAL
PRIMVEC
9.21999733727392 0.00000000000000 0.00000000000000

0.00000000000000 9.21999733727392 0.00000000000000

0.00000000000000 0.00000000000000 13.49439807471096

PRIMCOORD
 96 1
Ni 5.077738376528544 5.809151548606442 4.430494560523446 -1.7390455844440307 -0.20595693318322597 -2.362274048761196
Ni 2.8232646174179084 5.443606312521625 0.09159329796236251 1.1619889906972374 0.5838646178075622 0.5598458862954616
Ni 7.376090103165794 6.195072978898827 11.876797709729463 -0.3755250433247726 0.027145707176856472 1.7836411116662185
Ni 5.775802818086635 8.159633140424502 1.4783251597498785 0.47931147908481964 -1.679939265200178 -0.7995380069476037
Ni 5.902494802071337 5.933492433259501 6.462156940973672 -0.501927930932755 0.546672067917665 0.2315923743631431
Ni 4.626677664753595 5.208026159491052 11.832806336235087 0.01205024629631473 0.8885326291104568 -0.8684654260469364
Ni 5.734617089794687 1.0510151612232077 12.126646730703762 1.8108786072259329 -1.036285186038809 1.1543924092969022
Ni 8.737579456129112 4.965595548407889 3.221288216269955 -0.6634592868127542 -0.44856545615121457 -0.8435570928410311
Ni 1.5024999928775902 3.7104404252164636 2.7549084788498144 -0.6341615662899013 -0.43560246823264337 -1.111787430142182
Ni 0.8985044185781202 8.484776347994584 2.7358544322663936 1.9946551476573777 -0.5527601830932739 -1.5269812528114863
Ni 2.6139430169226983 6.927140770790634 11.803455396578812 -1.2375130891774815 0.03895195578316517 -0.4757898390848063
Ni 4.04459157022582 8.00546556425041 10.20287122758405 1.7202855302277085 0.0848651733755119 -0.7548470917981323
Ni 5.234874791858671 2.0475677979287212 3.142912706550113 0.35533237042698157 -1.380393662725513 0.32836484069920224
Ni 1.1277900793980573 5.247838108173531 9.671138304742152 0.05593614904598753 -0.4380182767629876 1.0297121608069815
Ni 7.902551953506124 4.479434306611125 10.3278298520615 -0.14396120820671982 -0.2987750428572274 -1.0570226756964762
Ni 6.8940225402053015 0.8565921544927075 1.3542166190307696 -1.730848907565851 -0.9186384473569018 -0.47928345406036166
Ni 3.431572384491532 9.356914340068007 12.002268966061186 -0.884847981170018 1.3242009175840292 0.27769482514816046
Ni 1.9766567980869092 3.6931713701256155 7.09943025181313 -0.308257785536682 1.5320663806438775 0.9156600814548682
Ni 2.8753207226196857 1.6371949345872552 2.968498016131759 0.7862330623085814 -0.2161657553954277 0.9473175604591492
Ni 0.6079776911674558 1.5689300739932133 3.3718858094589024 -2.0860846045139687 0.3007313952526498 -0.049482680111159943
Ni 4.143568242089277 3.4798667307626814 5.077065316719878 -0.1463479632713415 -0.6904458427039271 -0.7963740073973252
Ni 5.939448551566329 6.253813582200372 10.008322828889195 0.17009030119360383 -1.1144762898282548 -1.3927796950946916
Ni 4.365041799129997 8.628562207119934 3.0073888870760768 -3.510973521438379 0.4481409670192863 1.3437749830612147
Ni 5.001230838277686 7.995388107115174 5.561864764903766 0.5291294310482113 -0.7312001418031536 -0.7045198042984899
P 6.277638055427683 6.1308464771567825 2.160696243769191 1.5794063033804218 0.5825088751106162 0.15743867386786434
Ni 8.024338898885201 5.377637231274953 6.224480160539116 2.1489259653202217 0.6332393115859482 0.09316906525551696
P 3.126381251249584 4.856845679322702 3.462891793588223 0.7721904681725863 0.2152923516515389 1.292969213263257
Ni 1.1879321223012094 4.827544527652272 4.862800875629792 0.059305065518220436 0.15960200006777028 0.5969805863642299
P 7.622291693176964 1.8057088266830554 3.9580692708219014 -0.08674413556577963 0.37088574478054837 0.026290044044780532
P 1.8047776069477774 7.469525556604478 9.711554163252954 -0.22053791632119438 -0.8147221708872097 -0.39878118563923576
P 4.324353950696513 9.209698641917672 7.156942751463794 0.30218612542130535 1.0132522154787453 -0.06780796078290903
Ni 8.551685868973914 6.710802752290012 8.477167084157703 -0.889914597059648 0.3323996728902082 0.05488431074270548
Ni 7.307438002681835 6.393828462397715 4.2075799178923905 -0.19447978578156183 1.1942535071578981 -0.11746907545346222
Ni 2.3877396012265573 0.32342552205837666 9.690448667252706 -1.01567727998047 0.9141670418491095 -0.663451059282638
Ni 1.0224423893457177 8.852958503329791 12.32616101998694 -0.8842859380189609 0.39199193063154425 -0.754864575299629
Ni 6.736047105113687 0.866144993777079 5.720923549687411 -0.29922550013108473 -0.22226544053526234 0.007128126404349015
Ni 6.953076623417732 4.76922804423016 8.31155103723812 -1.647540280044182 0.2900392056461263 -0.6848349242750528
Ni 5.481380641783348 3.701718307695939 9.970160337737818 1.1511237658479594 0.5054251454527361 -0.2243806871060523
Ni 3.7562269322005277 3.46126077605188 1.6349812132165598 -0.331359661661468 -0.5196333186323179 0.1696825242322239
Ni 3.1988688706432034 5.380098970575142 5.972566782151661 1.0826640304136645 1.086158416720168 1.2790549171750099
Ni 3.651930321849393 2.05515585577163 7.144271709065848 0.595954973313193 0.21643829233052403 0.9041564516906427
Ni -0.1807414526198169 7.124374954721987 10.745427505349143 1.393054546022633 0.3411727910971479 0.10872372516066438
Ni 6.483566696887425 3.8661477409528464 4.900707050854033 1.3404608310863173 0.2647863446166085 -1.5179715931137083
Ni 8.978922107521553 0.28509246095548785 10.213949976434643 1.3843971274579512 -0.3655013405401834 -1.636543928933678
Ni 2.188181977955698 2.4697238179205367 13.203688100528382 0.08792350058586149 0.3616045765889385 -0.4269571338528195
Ni 4.082402779477057 0.8683199911587828 5.058442766013794 0.6324078168235883 0.8039919289538993 -0.19115894893844498
Ni 2.2262421271361688 7.9698948143622665 0.6414425936542378 0.14043185489722265 0.3277459761682807 0.5569868195801118
Ni 8.577317461687507 3.199919950344408 5.984036458891126 0.42528694523924826 0.9155760063814942 -0.1693516232553664
Ni 2.3333969366747906 4.202530125327918 11.58202609552551 1.0051504123072172 0.9260817910088244 -0.4872641582729931
Ni 1.7437135643067267 6.128578357801551 2.265857689874475 -1.6785069036290257 -0.17991474348319336 -0.34295302292602226
Ni 1.3676298712177244 5.979371140217356 7.452389269475888 0.10746131350847297 1.484525911860753 -1.5695448372053098
Ni 6.14082251432085 7.630783310763014 8.110106080503781 -0.6715181525614886 0.03882854283142345 -0.34094884801179987
Ni 4.345937964560728 0.7751509956443509 0.6606072802062065 0.1679082059406205 0.4102876436169386 0.6515193408420586
Ni 0.2295078627567708 2.611942277491458 10.687536063806203 0.8263780099585832 -0.17977358991963877 -0.19474563784843882
Ni 3.278446668021266 3.4370859429241682 9.589726649885408 -0.2937261675794102 0.045476387165244256 -2.5216317940286443
Ni -0.09295416957550143 1.129071659033737 5.978234314540527 0.7357371104415588 -2.4191417084825177 -0.4816776653241511
P 4.7715699235644236 4.500520440616875 7.46672083340179 -1.2339253718262233 -1.4654498690659084 0.93619805350722
Ni 0.15325387443383395 0.6647802510199373 0.8888040593356848 -0.2566403184707064 -1.033580899733768 0.0744645468674782
P 5.6987328599956575 2.599458401040305 0.4890627749719321 0.21982520652488594 0.6562486279969278 0.1441005619980615
Ni 6.392104322887843 9.11104466996248 3.6140425866199095 1.586138737008249 -0.11881093419333733 0.4314642776945537
P 0.8223223462347395 7.6796953968585555 5.760772378359405 1.4868584166486716 -1.067562913106168 0.9054710567370083
P 8.049574031711499 0.8204331687717845 12.034303846954487 0.6823815776385538 0.8447362007507967 0.7985617590772635
P 9.08430667756341 4.462174471517655 8.123222448775133 0.2792184608815385 -0.4393735052393013 -0.8138819343741015
Ni 6.8254534196977525 3.907545529184512 12.332328276233746 -0.8203328322057679 -1.247480999023471 0.32603105035970303
Ni 8.068954466202134 5.037446987982358 0.6287835372528846 -0.6407505323613287 -0.2318345722809362 1.004925697890921
Ni 7.054598014557791 1.7809807937126043 10.241749190532037 -0.34112085481328996 0.8367734942602943 1.0173199577902157
Ni 3.5733298441935033 7.3867392001385275 7.735258789063301 -0.26460533895405397 -1.5430611890924844 0.4732102512830882
Ni 4.102456273776361 6.2967787699864655 2.0717675250493564 -0.0964114834522146 0.656062994348683 0.3462460918549973
Ni 6.8390990158186575 8.59198647751748 10.14330727851656 -0.5823623222304228 -0.2075888123596941 0.49814738084440013
Ni 7.679806036827103 7.828745874487308 6.346361149891461 0.12023969622006389 -0.10653314526724877 0.6071480138155351
Ni 7.531806638899557 8.382793956985577 13.379533734539955 0.16509387642027695 -0.2395604801702842 -2.2646065814146934
Ni 0.23729046254437625 4.674529451150553 11.942299337109022 -1.6938419913241989 1.117975561230765 0.20413170704902908
Ni 5.170537650148079 4.899561927179563 0.5242287669751379 1.6988998654630805 0.10288397855043573 -0.7129016006042819
Ni 7.9553733184903574 2.5414277375369423 8.353855151212139 0.6059737910017757 -0.029341943497226887 -0.15394171645819937
Ni 4.38381371379362 7.585835823540438 13.289647980092182 0.2573656266725051 -0.8886940943889855 0.11759171707425554
Ni 5.975489521320801 4.075875021332733 2.621569798754599 1.075928511462044 0.6560385688686509 -0.4922837229747716
Ni 0.9564456481069071 1.8899335027401292 7.961195746835189 -0.030433633899508882 -0.3041576473253794 1.2647030193287123
Ni 1.940910868248565 2.278574832259316 5.395937082072771 0.006288147001556913 0.3280015438225125 -0.878951413179925
Ni 8.094152719038915 7.728303223040592 1.994768560938197 -0.2546292015779486 -1.0960124266961124 0.8154117407550667
Ni 6.0653844957659535 0.8641212043523907 8.05813940927658 0.7061619678876032 0.0003923503424122275 0.47087491828169226
Ni 6.235309047460739 2.8905890382792934 6.817262374026258 -1.4874433426178642 0.43341728765586646 1.277293454399213
Ni 2.704234451255147 7.08163104687299 4.311648794308264 -0.21062631363443723 -0.06768840448590924 0.06461645042880484
Ni 4.318655992316297 2.856143128071387 11.964525062790814 0.3986580297978102 -0.16551733711094074 0.5018345998880002
Ni 2.080132828671314 0.013704604104130743 7.28794692822265 -0.24172971990746112 -0.6094103274871505 -1.2256693024650183
Ni 7.983521970488414 2.553109474216122 1.7806940517941177 0.9293450351411285 3.0228027921907166 2.7309869542601417
Ni 8.690704989454327 8.51931445817628 4.421331727128206 -0.9723495637271123 0.5598129761749971 -0.9370303196005282
Ni 1.9282333718524536 9.34474394352774 4.6394685671174685 -0.13125635904554167 -1.0589340337865762 0.8935097706100741
Ni 4.790599998154659 0.9832758404797681 9.999254961466958 -0.9066871885322966 1.2455642416167323 -0.322421992852206
P 1.0603365785733665 4.474667567966187 0.3381249638797004 -1.0326594163607636 -0.5977470322166093 1.9518917885479223
Ni 8.987662665036837 2.6590380241033387 13.333005017766883 -0.32677821293837267 0.6140527113551683 -2.115777503592711
P 8.30033030042789 0.2274647113375866 7.8184111794251985 -0.4918237526192175 0.2921634510779807 0.7649229879768955
Ni 3.5031656641393893 5.895856403958465 9.729717558089565 -0.2710809193760686 -1.954644668702711 -0.6172838166979563
P 5.656514491997263 7.496134469040244 11.624937807326805 0.11053249623462899 0.6183577664884253 1.3150349348140449
P 2.531995680218235 2.0732362706318295 10.936561739014557 -0.9726431837081313 -1.0381435794037863 1.1534575561874587
P 2.258005018106789 0.9708841640024055 1.1076987831095002 -0.670059308627775 -1.7115383801626975 0.7274255052520697
Ni 0.19856186355392874 6.742242943352368 13.297204689944001 0.7635070814659753 0.4846550027849202 0.2618347181874523
