# total energy = -340866.82080798835 ev
CRYSTAL
PRIMVEC
9.34363800300193 0.00000000000000 0.00000000000000
0.00000000000000 9.34363800300193 0.00000000000000
0.00000000000000 0.00000000000000 13.67535868679620
PRIMCOORD
 96 1
Ni 2.9783687199655375 1.7097923260723422 10.652940555235311 -1.033508137514304 -0.1316258265698185 0.9209074458967366
Ni 7.96435822872573 2.972837286242193 5.137476978039269 -1.8479585427973657 -0.28227241721651386 0.44739714687472626
Ni 5.3373383302110815 2.905002474026852 4.406405509482624 1.3660625908148216 0.19431112141418147 -0.549617266588918
Ni 7.611841452519067 9.239989069343798 5.282490240516141 2.4210576945583075 -0.29809138652664147 -0.6564671717656372
Ni 3.8268458036639763 6.396421015470647 13.09619351811271 0.4063571982142808 1.0206104556160294 -0.07305866765888709
Ni 0.5181757413103969 0.4047327630639926 9.445269731582401 -1.0183537983713689 0.38188389566326486 0.3012831539910618
Ni 3.259948596125525 1.79153981533846 5.061209532487242 -0.06747320315130961 0.3232609438137336 0.45374314369741214
Ni 5.053983162822318 3.0773645650649226 11.373973219075129 0.24200199973224126 1.33219627708468 -0.8352524296300776
Ni 4.38316601293414 8.417440581223538 3.212916459656222 1.1822186874805511 -0.699175252157125 0.9822601379726051
Ni 0.7347827615885916 3.10074234745649 0.2053432646135125 0.2940717238442871 0.14118570234411168 -0.018062771038981795
Ni -0.03673731607001057 7.371709954731978 8.946898765474709 1.2758888607422025 0.7009117752322575 -0.561814065765426
Ni 0.16390142678724517 4.1666085139375895 3.601159570296298 -0.9735320140709879 -0.023508881755217575 -0.26980025289143217
Ni 8.818787209859591 8.847182525881964 2.8654387074478693 -0.18190503444034478 -0.32985659475338025 0.18130879561724259
Ni 5.297842772189835 5.094450459200368 9.455019817883601 0.8318205211303932 -0.007312217390697083 0.00812057222460537
Ni 0.5949262529494123 1.8819488570733964 2.224037198856707 -0.8834153624885495 -0.06377184304032243 -0.3332643348833486
Ni 6.551226410619925 1.1588166777645992 11.517496171283634 -0.31641306765396476 -1.0406069533426143 0.3860061453617546
Ni 1.4492916973445598 5.707224929545612 4.932168284886528 -0.330875780046514 -0.17873897800753732 0.7520638726260402
Ni 1.983570264463761 2.087303334052564 8.46733093657117 2.033521999925904 1.4070266919320091 0.6905522863748043
Ni 1.307268399042469 5.944581366832982 10.861462525512136 0.554248337603026 1.4262958245742663 0.7047494038107927
Ni 4.590398561160592 1.1562191463877585 7.207720697747099 -0.327372651989262 0.047226279976815444 0.576948093193387
Ni 0.6477598542815947 5.109241438227487 8.98119645765086 -0.5422016908511371 -1.4503040145634056 -2.2057522302806465
Ni 0.1389903533922975 1.4719780505207096 4.472129593863331 0.5655825316689227 -2.048251335716279 -0.24232801561309236
Ni 3.708153569563222 8.797735993341526 5.382512017072997 -1.5040161593748809 -1.5391322863517236 1.9398651964006912
Ni 2.5891968517036705 0.7629388804769811 3.069105723395895 -0.477112671661288 -1.049106506173193 -0.2298525088539009
P 7.241085894846239 3.577538853315529 3.0953762961265636 0.6411084299213797 -1.8189678119919703 0.7793453340498127
P 1.7382623911990838 8.09679495439243 10.324458419174864 -0.24054444135010827 -1.4814161625871778 -0.2851546238603153
P 7.639928428485914 5.3017671001692355 9.608922617597617 0.2681352064841834 0.06849778776108204 0.4396033618619204
P 4.67631331299531 2.6306732609907084 8.988184564545605 1.3785735787976388 -0.19575093918450157 -0.8191357265738731
P -0.07698316822636556 7.816943651270987 6.048433100624972 0.7993428602176621 0.4523043543683566 -0.4165277109893794
P 1.9559785013133613 3.0084739217503627 3.460262180378773 1.4029399234571451 0.11836227669169291 0.11664940776564425
P 4.967414356324366 5.666879100462164 1.3742090250967893 -3.2028414628462842 1.0055353064504617 0.8860371163821128
P 3.802739217504805 5.214067713467695 11.262711045948706 0.5526827928881192 0.278773660034636 0.25304745891312547
Ni 7.9808964680674865 1.560677206493193 0.7711482008643639 1.762785865483764 1.3501850003526166 1.1690171011886126
Ni 6.549273590268271 5.413965505827888 0.20834724424536263 1.727819119600592 -0.6375623644413342 1.3873266423999204
Ni 1.3688616610429547 0.13645262129895225 0.5928388842098934 -0.48804294542054666 1.111544975114073 -0.8169891125445157
Ni 3.5450603674669723 4.193116415074631 5.186571255425366 -1.4747138108663376 0.5137514059302442 0.6470067976836856
Ni 5.2580855923032965 7.563955307532341 10.76297217123105 -0.7750150821055749 -0.5379542284286929 -0.5005675602501186
Ni 6.808858542467528 7.881797842949593 12.592872292568144 -0.8718680239705823 0.04054064042652373 0.3671337339372838
Ni 5.343663973168352 5.635363009332363 4.597969711069419 0.2058252927013681 0.0795833561512823 0.013562826286099222
Ni 1.2640727603549315 0.08608293731955019 11.897439328247277 -0.27040394791370204 0.9174840220374844 -0.6176010908280589
Ni 2.7612319154101237 9.16864104922309 8.737843273465446 0.8100625606280114 -1.4601189437712982 -0.3577836601809516
Ni 0.4374962298729585 6.375939760873398 2.4200732656124093 0.4911483238187476 -0.1658549229560176 2.564053710638281
Ni 8.734713154719973 1.7147351105987767 12.352637080398745 0.7089055920710113 0.1761154243417612 -1.4523729812772923
Ni 4.124356582692718 6.005763508759435 7.379182996441321 0.4173658906199586 -0.030174466700851256 -1.8147805133835002
Ni 8.5740025803255 5.3662662336020865 12.496761762897423 0.5461028256777563 -1.221338536300148 0.1285052786629658
Ni 3.2057648390956683 3.8520642827506437 9.664567719617898 -1.5293826631641274 2.0939843189770193 0.04629194108800414
Ni 3.2012051437291276 6.526671329834538 9.378437491729418 -0.07171809447059262 0.7922962377835259 1.4818992728711833
Ni 5.276492559254291 3.8203893497740586 6.991787353772034 -0.03776847699802528 -1.1411532848988089 0.28908995435897955
Ni 7.77166438129915 9.0944245322222 7.724498630805785 1.0906005116519217 -1.2202615011858857 -1.6153361845078118
Ni 4.013410224532255 4.33563492619317 2.7669763840809214 -0.22236957021329445 -0.02020732818581036 0.3377545094442183
Ni 6.0771302161562355 0.6609007468297565 0.5812723946725146 -1.8271832579232272 -1.6151577499484182 0.38695385398700455
Ni 8.054804645012851 6.23672889762321 4.7575207399823585 0.5646417650222082 0.678936813623063 -0.5586338682652314
Ni 6.923626448588881 7.240553307477606 8.931294889937572 -1.7532738122282707 0.17732281438630107 1.5578170072454203
Ni 6.851045068246076 1.3040541875545795 8.974631617559606 -1.0761748231448949 3.5642120690475454 -0.32343706438028164
Ni 0.28524912282072634 1.6377435330981696 7.105278918936278 -2.0329854106961442 -0.6448036193847798 -0.7306686947797159
Ni 4.706838978492214 0.6313430822344386 9.753224829219175 1.614099483887233 -1.4682770541020584 0.3985173904548879
P 4.83445438692708 8.991831386475033 12.266455100515904 0.10147758512121233 0.5503680287120134 0.45689428773188406
P 7.7434279071235625 9.206669656071085 10.092824960190784 1.0295470959840267 -1.95510232506542 0.30403783391806344
P 8.413189225912522 9.035438145236602 13.286172104323066 1.585479249047379 0.36057047889746935 0.5738745964743859
P 6.752422968668539 3.0834659607090846 13.1563515973093 -0.17813991097095774 -0.038898733947726555 -0.890468155570273
P 3.4581645336374036 6.52244800543766 5.166509530176391 -0.8208059151874444 1.0914055240517204 -0.08614198320540647
P 1.5459236020182585 8.28144392946124 2.235470074370025 0.5697600600853799 -0.9233214546548678 0.16730708202151184
P 1.8418272753030556 4.522012474300526 7.06999640731006 0.2489360078479132 1.1030937590229262 0.6998349972283109
P 2.3574839717961997 0.7540801772453882 6.8140760299525205 -0.4640951763556975 -0.16342085959322825 -1.3546898302015058
Ni 8.79537205291584 4.286459359156072 6.85242138613028 0.8842067480415933 -0.23275322744046367 0.7461343945154827
Ni 1.2040305422701136 3.1597287344420892 5.551430043127241 0.7113095735268136 0.5545944080885351 0.26977017098444506
Ni 0.980857747536861 7.389836612541587 12.73078812758513 -0.5422831948213499 -1.049737969109605 1.1294311113658744
Ni 4.021539189632441 4.040319902105283 13.580178084720682 0.9113632538517272 -0.01804168799305925 0.18832585036502403
Ni 7.5648522967847756 3.3698391231867677 10.80904471607301 0.2978720714269838 0.6375793337221987 -0.06304807750042045
Ni 1.0531401314621884 3.4965295114550607 10.774349919279896 -0.1313381201260706 -0.7742357807373892 0.997255840050489
Ni 1.8916942715555727 7.0690601747778326 7.41209876455044 -0.63998537206053 -0.1877910609074766 -1.3268347556624502
Ni 6.053490811899374 7.617513040813104 6.051838856692808 -0.6709134290979543 -0.222810514405455 -0.18783039878584426
Ni 6.244568209943964 7.813869594353791 1.4181624328298725 -1.6993104706379378 -0.766445338158693 0.6985520167508291
Ni 1.9609586603919806 4.70665210573129 12.660934155188007 0.18999038255164052 0.3586267249075372 0.8281579846771414
Ni 8.004339655925378 6.49210921270168 7.081019097113151 -0.013914296088247007 -0.3245920039203313 0.845832262028453
Ni 2.9197467348637405 6.4203407288688945 2.7527946102544143 0.05378953501662995 0.33304013468768445 0.716948516980146
Ni 3.0387005908297877 2.4758304912892446 1.5247752116645117 -0.09104996202998514 -0.1804042815251022 -0.5490089435809578
Ni 8.32760150140942 7.227416152384663 0.95271751283315 0.4179366755217641 0.39178135728263497 -1.890084011212506
Ni 8.429690090702094 4.457223688088243 1.3959666206511478 -0.5533679918806019 -1.452052878933712 -0.2332373661657338
Ni 8.413114476808152 7.030713884236268 10.988779871893328 -0.7491009333429745 0.7189331515103424 -0.045832484953082356
Ni 5.606930318757806 2.982909728055986 1.615620601296205 1.0045485170571604 -0.5505078967239874 -0.5599854971971194
Ni 6.1880672306786515 5.559436606569022 11.848809429672077 -0.7188817294471168 -0.4271329973090514 -3.3857510272917435
Ni 3.611035795711121 8.128563323749475 1.2187710656517832 -0.7187454609795686 0.32066670072399617 -2.651731156651607
Ni 6.923121892134387 5.590336017587773 2.8115305877403745 -0.5179921834844692 1.0397831718897383 -1.780550645666353
Ni 4.413859863915874 1.6620837102084949 13.101814650761296 -1.7247114272095458 -0.40050742430172315 -0.3174096272392791
Ni 1.5520904031287444 8.043368032044313 4.3396013005437775 -0.3698884138642856 0.1453570601129819 1.0579518723789652
Ni 5.547934588134162 0.5186933788581558 4.6999200145190105 -0.14654979486950245 0.8769423531696962 0.4714192208209365
Ni 7.230415460197491 1.297392173627646 3.1249563854531925 -0.20605952019936125 1.0447585136171427 -0.2925804840107413
P 9.348496737974205 2.676671991092103 9.169560463206835 -1.6772015545540406 -0.11569064339680075 -0.8512734876486824
P 6.459929723270601 7.562226734493796 3.569227687273443 0.4933576727652407 1.5340445874161708 1.2541499264032143
P 5.07852889996966 8.034958757802743 7.973992453915156 -0.921646123834974 0.1657011709869727 0.8757053954388017
P 6.624106787380209 1.505998236646888 6.489860199023963 1.0495464219240893 -0.11360085074730757 -0.4024516925122876
P 1.9357495249433594 1.9984733671474342 12.490156745162572 0.5826217465393966 1.1480574682178097 1.0103476402374405
P 4.768273398645914 1.1839510641088509 2.7039470049127363 0.41106411677164695 0.4872194210779867 -0.4895740373530923
P 6.8274523821794455 4.908035536540827 6.0146007216235216 0.6146078125276899 -0.11928324584406555 0.41297830307522426
P 0.5703412725222767 5.619525542844071 0.5095412853919125 1.6220182245136776 -0.43977871109752 -1.6569852275071657
