# total energy = -340888.3125558397 ev
CRYSTAL
PRIMVEC
9.08060313658769 0.00000000000000 0.00000000000000
0.00000000000000 9.08060313658769 0.00000000000000
0.00000000000000 0.00000000000000 13.29038057182717
PRIMCOORD
 96 1
Ni 6.5816937762690175 1.847448701976153 11.525710770980762 0.17271565463159286 0.9520974983462959 -0.2025561350317931
Ni 4.866603945170252 0.5059884582287786 6.128473610751242 -0.33409120166001816 -0.9741732471994127 -0.9214067541306582
Ni 2.658437365399551 1.2660267656830535 4.899844400901163 0.10310740741515147 1.4852864441758613 -0.027714178085816787
Ni 3.326342965677024 4.1067299966322 4.643618839171397 0.2963558918927735 0.07650394589501018 -0.46112478087346387
Ni 4.941764097081073 4.492909885536806 2.7262295159499224 -0.2027767356830314 0.3967333019712716 -0.16084564266688428
Ni 7.10405546995876 6.026405815715841 2.7406758474317305 0.43112772029074137 -1.6114008540091473 -1.1290703855923456
Ni 4.687371001058159 4.5788033103192705 11.697448585288917 1.0873015291856758 0.28637589786192613 -0.11815658843879008
Ni 5.8520854778842555 7.682952998588309 12.450468494602337 -0.6750264228250633 2.4739823104714813 0.21970616444851837
Ni 1.7738776556089337 6.490161296957543 0.28950324793341226 0.30540591791018373 0.8214234941667853 -0.26881140661560154
Ni 2.642809647453613 1.4582177304278325 0.5134209318712828 0.16070551754459422 0.16866796692478048 0.10442921155036854
Ni 0.4798108955939452 8.826545992589159 4.854497685108936 0.18882875814337158 1.850680055493587 -0.4664392511078419
Ni 8.838405260245983 2.3960805804524137 1.7544896599166786 -0.13503485225136744 0.7733983724377583 -2.1881188334695993
Ni 6.9659394967119805 0.74618766353624 4.788683289915116 -0.5926711603555987 -0.43146247792234077 -0.24036394990818605
Ni 1.0876019952474212 7.286085239827592 2.682264867950474 -0.7013846011036179 1.0348728790723143 -1.0013701193291786
Ni 7.6785489060817556 3.7705660696370806 3.675813608464112 0.30530898732100326 -0.05358821763910126 0.6673244261951152
Ni 7.471819895763795 3.859219997763859 12.971716906351247 1.5176908286484958 -0.38665406335839864 -2.621870621646749
Ni 7.974522083728404 8.848212311600784 6.930269071589824 -0.9997307839535429 1.4745703433099377 -0.06283390460708534
Ni 6.873281022615325 0.883382863628041 0.41776585874954875 0.12077551411887587 -1.0218803234673886 -0.40185236836539173
Ni 2.0039982995287158 6.544327094486605 9.046828711103577 -0.24051435944312125 -0.5269895018870729 -0.5727577092611233
Ni 0.07147161092904354 5.034849359523725 1.4314671817369917 -0.007948308312799215 -1.277891235884212 0.8537697717079747
Ni 6.332204205923503 2.1207930166819096 7.117038916280144 1.177711800749133 -0.0024942271767634462 -0.3792477435919985
Ni 3.225003435010748 4.490530767522955 0.27495975399836675 -0.11927296143142041 0.17415418685033232 0.7313474660142953
Ni 5.762432683415783 5.5056877111883376 4.906888224730717 0.3396242156631054 1.2155682094752742 -0.1553339688200357
Ni 5.612066976578609 2.6632864074583136 9.344453650455263 -0.8485344914509645 0.7406715716286986 0.49644531055162894
P 8.958668767785783 5.711944530144771 12.676949632797115 1.3722648629707914 -1.2074496941331978 -2.770957066895176
P 4.061127207832376 6.565548463946021 12.623828104625275 -1.4936643838269115 -1.5824304349187264 0.1975489116251888
P 2.589170524904716 8.458945017640039 1.4454222525907494 -1.2525964658731654 0.2933196761696109 -1.0393388852634682
P 6.293266579803702 7.741922435160602 5.9046240313366685 1.13748457779797 0.3806196842388606 -1.0784340514927169
P 4.665577553603046 1.1547530552184884 12.871694063135385 1.1877280473345544 -0.8502615014444003 -0.3593422629173231
P 4.213663178811956 6.106605702350658 7.972553408974959 -1.2331998065141083 0.8973299156871127 0.9134705300027172
P 4.925555220536332 1.1188120281237643 3.726622307024776 -0.19167496934291506 0.3944198233467465 1.068400835626431
P 0.08066208933292687 5.505905645662889 3.70179593813216 -0.0037550961670580487 -0.1673541332093634 -0.5108167487819525
Ni 1.516606008401323 1.025472508794136 2.6076395635626137 -0.3988084393327454 -0.8196162657547174 0.4388680263577926
Ni 1.7706449609030919 6.617843657235187 4.814892634660821 0.3330877000961682 0.6811489907830334 -1.0892103161726143
Ni 5.903881238002573 5.37661601863543 9.243472803611684 0.47066434493278303 1.1174896227332818 -0.2678356729658936
Ni 8.888720882057974 2.582296508353249 10.390392930590682 -0.958604189116562 -0.4634058635981568 0.15315418755989754
Ni 2.5444213127968838 5.295880376417342 6.400221555430911 1.3205514937569 -0.5564749129406997 3.9663991950445374
Ni 0.42653862941054244 0.1517604874743016 9.22307232067308 0.4930285715605961 0.23524051263869164 0.7373142251206916
Ni 1.5504675773847052 1.2009642444264346 11.359115302211704 -1.680631920391828 -0.3910084836723524 0.08247636142836119
Ni 3.9072654687992774 6.678247829098275 1.6744686611630564 1.271636770334068 1.1594310001620742 -0.29452192400782823
Ni 5.828312458951969 8.095811699419215 8.092738823328045 -1.3011121540853656 -0.37319870918444115 0.2684769060943183
Ni 5.428992937352553 3.142161092871999 4.783992250350402 0.2725279362352403 -2.1400476889939855 -0.14010815300921678
Ni 0.648849954658909 7.483951581513808 6.94798532825021 0.9320207822010786 -1.4071763301359959 0.31522547510376675
Ni 5.170913116468482 4.456932536029656 7.048951646128818 -0.6418190828351591 -0.31095255876002575 0.6516417253525358
Ni 8.11250184792859 7.416519022846445 8.980403191320704 0.6098098769184143 -1.4891235585337645 0.2926756148277088
Ni 4.654735313494126 0.5827685897337636 10.765035005188427 0.017009132963486835 -0.860136337355951 -1.1404372326683907
Ni 8.103212390950848 7.2730545743700565 4.382091113287865 -1.0622813529922543 -0.44071844930296994 1.617116416336686
Ni 7.279601689209696 6.1273003968299085 7.064900817424718 0.4081772821421551 -0.8704778284912751 -0.44064645841445405
Ni 2.2981190341416804 5.33657055893666 2.53560495524098 -0.1712475547264986 -2.0244076963294617 0.8153942572535698
Ni 2.36192843216963 5.394068937805733 11.338143649337711 0.3927321512316785 1.3025293461478664 1.1078891235290405
Ni 1.1946804670768767 3.419183051835806 3.898321074739575 -1.1235088323441682 -0.42254614926931744 -0.2522200779158237
Ni 3.3289854211809566 2.57162679970335 2.7284615281934506 1.3746508467044647 0.015442302696999213 0.23705262614676595
Ni 1.051324985837764 3.4223612629230105 8.38475467414097 0.45314073422672285 0.7741298512871442 -1.345611264939005
Ni 3.771655742009836 2.5871727922213306 6.781988271225856 -0.13252751244848143 -0.18077863414538545 0.6072994517917347
Ni 4.165753916823132 7.144536798606633 6.030085276094513 0.17578632313711662 0.00197769255166111 -0.8760897753614139
Ni 0.8420007391520236 7.355624498415616 11.165182677791137 -0.4330177382246026 -0.6103135560277102 0.33452520387364326
P 0.28664285795492866 5.541292755968129 8.041464289828028 -0.8071955234928614 0.6762569527980546 0.23910359513852367
P 8.625065570866637 1.7903680308499694 8.021940993149487 -1.1977327239557503 -0.3031628875122779 0.502012006006129
P 1.9036848770134513 3.529003865803364 10.477139024004828 -0.15712319950997455 -1.1372531785134543 -1.0475959830659378
P 3.8184662510227976 6.231355027824968 3.9764024566696916 0.24065217057256616 -0.786784049716045 -0.6583008825402663
P 6.626179650886767 4.131765219396262 10.817439165714866 0.7319251928946363 -2.227214771029797 -0.5504094234729102
P 6.4685767033738735 7.800801065701833 10.271989130567052 -1.2518050803201215 1.1142001533487327 -0.4530121790686585
P 2.3339147715867035 8.455076680716756 5.782445424601752 0.7115785109174843 0.40361511669276945 0.7766040238592496
P 6.663001496482802 3.9113063371815797 1.5040720519337012 1.0198712634571596 0.23939335846480062 3.650082286648804
Ni 4.982508763219029 2.967958802880795 0.7139551547501276 -0.4696857830695975 -0.6732950419562533 -0.5742162960845207
Ni 1.3704991044210022 0.9147527151190549 7.1847529736438025 0.5083289493630923 1.0007630818727988 -1.1051496131106902
Ni 7.128627581964401 0.7238784378246891 9.286772751463753 -0.6951694734318414 0.24187473012575764 0.10915464205049587
Ni 2.610337410745495 1.8294237048101534 9.193381472696418 1.1860239201592544 -1.1328123691332812 0.13980759104966242
Ni 6.615419136205805 1.8819277519707633 2.46454197145172 -0.7131705379949524 -0.047624800966814755 1.3719815274024179
Ni 4.058557397153294 6.70638861812469 10.322279326690346 1.1137746357755398 2.1184756192501646 0.26104744639946653
Ni 8.07971179011175 7.065036118411001 0.606172028119623 0.4937471948941754 1.756473807222807 -0.1838403037898447
Ni 7.699488776844877 3.845590012501307 8.401819851558633 -0.20036504091774524 0.1950055763780448 -0.16735850408473757
Ni 2.8442991497792405 8.583167668134182 12.234101332147352 1.697416853159651 -1.3602297861831283 0.27327895546865194
Ni 0.23027047387103602 4.978567781470895 10.292575765869339 -1.071304125316155 0.9756488033036745 -0.1854475003759645
Ni 8.771581101986742 2.2031994898715563 5.769353919103402 -0.00995608277144737 1.0623181197674607 0.4441938094460801
Ni 3.361975252266134 2.50379469449931 11.750623689019083 1.1304158438766467 1.1585138876644434 -0.22487151069954173
Ni 1.1341945697858318 3.679651071336833 12.489023827331362 -1.4634107271486927 -0.778404310292782 1.455425652060687
Ni 3.1272961455869908 8.37916283874811 7.8498299660536635 0.43104261677610284 -0.04208638764708881 1.1125438486922323
Ni 5.688407606893248 7.597749699641923 3.5741026811307886 -0.990311547522172 1.3578250333963777 0.9487794897166564
Ni 3.331691440906633 8.579381056638857 3.460774938243579 -0.06205408901826732 -0.9636103840819018 1.2807325619877492
Ni 3.568949438867965 4.5299587462104975 9.430189072743678 0.0964644481773371 -1.3158057515417985 -1.0707227988913883
Ni 7.125385806655452 6.1389326494090755 11.379821801474993 1.4128142451480636 -1.410663517353648 0.5906489877192473
Ni 0.7545263813687526 8.822623172047237 0.04354239995500542 -0.7926729043966543 0.6766796421577701 0.7987844166110308
Ni 4.801368892454613 0.19634170842466736 1.6997862906837236 -0.386896775496824 0.5060931180540381 -0.9794450371213133
Ni 5.95033760349439 5.731867373359988 0.5749165922277483 -0.9223922579723791 -0.35092087162284724 -0.8970116131157455
Ni 8.112111381995017 8.75746076415645 11.4246373019855 -0.48541476376908016 0.7294535914256921 0.4940415862061427
Ni 0.36800142954610854 4.9227674753827 5.849588312030023 -2.1150437107504803 -0.9615558155457182 0.3219705071370842
Ni 8.379834803377976 8.71231200551194 2.355148853890469 -1.1873984319092776 1.1860293194758929 0.14426896925512575
P 8.721692268520746 1.5096775082312186 3.6846917141211386 -0.5320054670444258 -0.24500633377620384 -0.11720348049690138
P 1.7232169708789018 3.373171635896199 1.537564040370657 0.26554610560076847 -0.17049859237561604 -0.35309988155203703
P 4.551270921700977 1.0293590069236311 8.251478662349845 0.5693602535438 0.5775193923158248 0.4356862861957012
P 8.648520768690203 1.61907153385278 12.53672332738843 -0.0648301091015077 -0.08077377691495767 -0.11614598576666449
P 6.294819362934879 7.740197120570407 1.4412088527494273 0.033168516332168684 0.6297999468870961 0.7008611244999801
P 1.8367335903107225 3.148072565494199 6.15243641428845 -0.3705859541519424 -0.2626482152276831 -0.8047555465928012
P 6.985272100725288 4.04473671922551 6.056466244238927 1.61365339748875 -0.38264417086805713 -0.4363743134016614
P 2.296729701866417 8.541569425304235 10.053269183847226 1.197214646668751 0.30340251432690973 -0.018556422845948686
