# total energy = -340886.61110555904 ev
CRYSTAL
PRIMVEC
9.09920250558943 0.00000000000000 0.00000000000000
0.00000000000000 9.09920250558943 0.00000000000000
0.00000000000000 0.00000000000000 13.31760262841277
PRIMCOORD
 96 1
Ni 9.075499203973495 8.107735310193188 11.702990414014561 0.3256279013840134 -1.1941612045544079 -0.33466198656182367
Ni 4.954270151830579 5.697056260662852 11.618409685917252 0.660759628493404 -0.3440861080892009 -0.2871294881984991
Ni 1.9902048961451528 2.7715716241151265 8.436528627671358 -0.3058509758674023 0.4150938067563303 -0.4709014006442535
Ni 2.1678031330153544 2.6178223973298107 12.891958653413562 -0.19045626644446553 0.6482823219619996 -0.0632283118320266
Ni 2.78108029086015 7.244148187287302 8.501718045050659 0.24411081854512795 -0.21661698400023338 -1.0274513897972628
Ni 8.348427418077735 5.334689615252518 6.560863584272307 -0.6825289018496955 1.3531551387245342 -0.7433203221054553
Ni 4.670402327481789 5.995919570940635 7.37825860504316 0.13861691317567093 -1.0818237939005562 -0.8314767646377293
Ni 3.157241327452738 6.862045371379403 12.735250365934004 -0.5418049696333508 -0.3785700007986835 -0.4994221337917657
Ni 1.7108229786913836 6.423381911943213 10.454824582166019 -0.6497460509917198 0.6331614071601612 1.251000582140955
Ni 5.438429624400851 0.5572515474309616 1.2176953320121222 0.6394935200257761 1.1852554174243457 1.5003363965304481
Ni 2.6386413729399667 1.6977292261113948 6.333332563067188 -0.8981097312759307 0.0756984192745793 -1.4014116597380766
Ni 3.321773109350831 4.606198353746974 0.6873810640375877 0.32586084333042586 -0.25470453490057426 0.28624605715228124
Ni 0.2862481757559649 1.1837698649383 7.172328180953841 -0.2770412507245616 -0.27752024724350915 -0.49199138854533336
Ni 8.234332516340084 4.889729507598571 1.5471856484115065 -1.1368340886981647 0.6817850817051355 2.0001069148005683
Ni 5.684235484161668 8.158927424171658 3.7528742214838737 -0.12075803061737911 -0.23948823217145207 1.3857893798197876
Ni 1.3511314988533334 8.649738413862131 0.3407578590121709 0.6644051956657911 0.5537318029779237 -0.0941784803566378
Ni 6.1379217271347315 1.5987935959500208 3.840809825589689 0.39803839393594026 0.7981676089626383 -0.9569041757063198
Ni 4.487217180198723 3.341099815730189 6.921344874898366 -0.6067973153443356 -0.7103837192784346 1.382704827357193
Ni 3.851483190270945 0.400314869965472 3.7693747155273423 -1.1601498806059698 0.44926890997614244 -0.2492129156583837
Ni 7.06549444291239 5.7943449351487715 13.156499771382993 0.32009257338808095 0.23422158445587402 -1.8960091184476895
Ni 5.9231623467366115 3.880500547447862 0.9056490969686075 -0.4676898356854913 0.8224095122291384 -0.7200515813855018
Ni 0.9776274294277756 5.279266372052579 -0.343864326788966 0.7859214446054337 -0.8323946484663084 -0.7528413742220131
Ni 4.063403619449498 7.8059238582643165 1.4814238911869795 -0.43528210877874707 -0.11540525094589803 1.3642165387450182
Ni 6.299914831499942 2.0812879144395846 12.824878421728407 0.7661938842695192 -1.2980705390455645 -1.6697978058908016
P 5.0197571131357765 6.386994200638576 9.481706717560092 -0.5677666838044351 0.8227848932906862 1.0141808979406017
P 2.7623632310567885 4.8062352242949045 11.64716225629773 0.44755012751282275 0.25134050352434784 0.47328969837077206
P 0.6166374933748786 1.6360639299094604 0.8626462653542736 -0.4806255699105529 1.3868029086859663 -1.3513599944973242
P 6.464364720574394 4.438882215845075 7.15337727164297 0.5471577493048319 -0.8069199012339716 0.842229118058227
P 4.284450548862748 2.322389486442338 0.2427958435318661 0.10414639020262709 0.403282415943699 -0.009858895071950763
P 2.2378669932418402 8.470456824505968 11.360328091892598 -1.6198669824986296 0.6332287700629868 0.9350487703941253
P 2.6865213771622742 4.7794016757484235 2.9615547856806876 -0.5150624114321839 0.2937729616569457 -0.10085486393554888
P 6.795475604961614 0.07757889167597352 11.651330601021073 1.1169185807211603 -0.3156476502428499 0.6622920059775304
Ni 8.514733544488058 3.4882248230031827 13.01229651807347 -0.042121097539766165 -1.3071635024857682 -0.5519726541949719
Ni 1.8690763107769737 6.6173769119469386 1.561568758003715 0.9726596387683636 -1.4944184883841165 0.6805216416116797
Ni 4.475897772130963 3.091881754984316 2.6782502019744983 -1.2876881673699758 -0.6564131785992501 0.180845739937895
Ni 0.8356753188481272 3.5985708532585843 6.384351792195748 1.2000847691276944 0.19107641652696772 -0.19150219121047665
Ni 0.8859993688959977 3.6859140992733948 1.9634677991465157 2.1114714200181894 -1.3351664154565972 0.2503819962658204
Ni 7.490945860134442 2.0157372587159994 1.7584700433264446 0.6154315939805659 1.094499846706328 0.31173237434884377
Ni 1.5057542490908233 8.657099668787225 4.709024802951574 0.20319428283642427 0.778804373944678 0.2212177159970384
Ni 2.9030096060594888 1.521295687177426 1.6314333456926737 -1.1756937418778397 -0.9336156374920245 0.6018839372031183
Ni 1.4096939669595234 9.315945633387116 9.320750922294339 0.33208085609820875 -0.7593377805796342 -0.0714545563965608
Ni 2.982017982468135 1.558302144260688 10.843112126099365 -1.054602496290758 -1.4730960727572566 -0.6041711905753981
Ni 6.62926047057756 7.484230648595852 6.290023998244593 0.7268233528916966 0.21281355109374317 -0.8507680087671735
Ni 6.264227758797569 1.927329405993852 8.2883299144884 -2.4483039318687707 0.3420212551403723 -1.5462678689552403
Ni 1.3769368375029842 3.4671692681247297 10.624823165002303 -0.7069225002027116 0.5642964658676476 0.49756348331647215
Ni 3.4826743094008243 4.857673016744298 5.19939175155386 -0.5266683711022284 -0.1012371869756321 -0.06627301219562136
Ni 5.994709376991268 4.376306999380459 9.353778298068894 -0.653845417872074 -0.6407487325891158 0.39417299744326306
Ni 8.167726353111789 0.17780569869009297 4.7042568207751225 -0.6801786564499641 -0.6139418968089168 1.0203433179975716
Ni 0.503532584883026 1.2633787887203163 11.596022917694496 -0.007317616707335784 0.8237588271681812 -0.01024404632551139
Ni 6.628268657491238 7.091854832922277 1.991327737749302 0.9727755955209376 0.28536031211321816 -2.2164187088555574
Ni 7.337642494277841 5.9595045620281155 3.7550580301143093 -0.13783555492495617 -0.08665928916145721 1.6774411813686723
Ni 8.063567780642622 0.1250212242519313 0.43617664735828054 -0.7445642218148854 -0.7243270688324042 -0.4669619563805313
Ni 5.273988834529026 0.6242689946179895 5.7965533116263 0.40941732519684326 0.17707264604870793 0.9394034478183949
Ni 3.8557052202897877 7.815341532983072 6.0777541596851705 0.21778529327672172 0.22393768603136271 -0.5956335854180322
Ni 2.2027349718997025 2.8772770610308522 4.168063557983402 -0.7678800137226905 0.3372035220367547 -0.864003276510525
Ni 7.28110914835743 2.455692804925197 10.120912053290002 0.6653768155504411 0.5170102791871741 3.418640578930912
P 6.546202948999981 3.7575521215543195 2.938116149634272 2.1559558755838095 -0.2469634575025747 1.0198473521977596
P 3.926387826294897 2.1531898135966876 9.014551834858816 1.4737797290878425 0.9209483264370011 0.012223281539069271
P 8.90922947437368 7.112191550793211 5.179268864944655 -1.3180271846731495 0.3194382276335337 0.30853855000189445
P 5.093069388700036 5.971952271221601 0.8451657871878966 -0.3496044668042689 0.34674951385397706 -0.9059500532559559
P 9.00008501260244 6.7642198439385 0.683252755805801 -1.1942763899760336 1.5535757154705632 -0.5049669748693949
P 1.9122520272412173 8.616535423476877 7.033904741152871 0.9630791941687802 0.9234379256280741 -0.4200910028606055
P 2.231843321102888 8.613942150728235 2.5036556118914084 0.2128503178689496 -0.1557340324719318 0.647817209400123
P 5.315717777775606 6.335456316960287 4.946277412243185 -0.8183386845938744 1.0273310621693146 1.0950248659718624
Ni 6.9173230273373125 6.3968395378807905 8.441695154922865 2.0880335007102233 -1.0453534668886642 -0.36244249910920157
Ni 5.676892427641827 8.307935966388401 8.520175777579155 -1.1580852847674572 0.770362413824912 0.05556719574234301
Ni 9.197928975317309 7.776406044942925 2.6999572597610313 -1.3432949581010027 1.595560544542781 -0.6209697501899757
Ni 0.6966313134280092 5.885691830319382 3.72191054486508 1.0158266610741409 -2.639011909312726 -0.36707228457172913
Ni 3.228433488804949 6.894174655854692 3.7949307360250186 -0.3475907788083498 0.4492228872295554 -0.4646374220124127
Ni 1.8510507903732505 6.5667034525181975 5.759676973140602 -0.776656731474056 -0.609283572101299 1.9824768604236307
Ni 4.988474054504783 5.3922238734618775 3.0991793154910225 -0.19426664132949123 0.14212801165272296 -1.8031997505244366
Ni 7.887252531342801 8.986872970388303 9.168317440208861 -0.2214059207484445 1.26755360140363 2.1231704536226728
Ni 5.738776104706805 4.154359248907154 5.1058091822978415 1.3039809909927285 -0.4687175056190573 -1.2014819065855373
Ni 4.421029580291261 3.288224349265759 11.347942257276975 0.6189144103228438 0.12735445288797423 0.3807492678381894
Ni 4.083312674796972 8.19984653838445 10.457793651983149 0.7420034030662447 -1.0724927463076175 -0.13635331395247488
Ni 3.851528686284079 0.44894555840449196 7.740270381551048 0.03888510710097174 -0.4976940953570655 1.5792255548281835
Ni 8.29516978510298 4.01323971536786 4.606012730013386 0.34980989794685563 -0.6951851571611254 -1.401421944150722
Ni 9.041886749470034 7.883594651886821 7.549376389802543 0.0313052378711848 -1.5446313617930816 -1.732401853875268
Ni 7.2033928587217915 2.375729012240735 5.9758085132948455 0.30285384091229134 -0.8425160531710264 0.7406831415929244
Ni 3.823748820664409 0.18166194076333772 12.748062043232562 -0.2469727134739553 0.9049378099413578 -0.02363306603790769
Ni 0.6850416590422332 1.2391385129224775 3.005583097431064 -0.11611024743272262 -0.2765231734375625 -0.15931043696928046
Ni 5.41568161783381 1.0530052239883223 10.342783370461241 -0.3252617762938463 0.06960413345138335 0.49474118337632866
Ni 5.751314805926557 7.85535982613581 13.135058410313162 0.16042989528570437 -0.08987831031938714 -1.8477266292922179
Ni 8.338154418312058 3.2222733286265943 8.107609741196939 -0.7445079146556532 1.7668698057451504 -0.851984654783094
Ni 7.131281677904273 7.119125143194846 10.88357082065924 -2.071371209563194 -0.014163435984575605 -0.23706342478004336
Ni 3.210990317369342 4.911503899484543 9.289787245675546 0.8813769919022821 -0.8323224004674763 0.47654548630390836
Ni 0.597292588590267 5.244607509247036 8.428231064795964 1.111171393824738 0.020232267886474836 0.6885961910896979
Ni 8.575989376571785 5.159329782228513 10.991563797115349 -0.1981145543206717 -0.5237483692419561 -0.2009653935059055
P 7.077905755295367 0.36787621260087167 7.193462898895147 0.7485535454799366 -0.49409069427652325 -1.5190619979644098
P 2.5253199034255958 5.009083748454521 7.2352273290319715 -0.23281879057107643 -0.4515829028212997 -0.22296503770544823
P 7.35181905197042 -0.016274833818323727 2.6729490065241146 -0.47895229597318806 0.9282368896786143 -0.6160674277923519
P 0.1434525690928105 2.0566199761182853 5.012159278942384 0.6923543725805495 0.23145944832970458 -0.008400565358869403
P 8.837191087177175 6.944984603322834 9.52311172919316 0.060678548826979366 -0.17404002986997125 0.9790496014551072
P 0.08205569936836718 1.919640579774192 9.453074256654292 1.4485687770398534 -0.7186511014935495 0.8709851071449967
P 4.166215509929896 2.3220073199320113 4.777517230884409 0.662559400706304 0.24678476583286532 1.2680202566274035
P 6.69125333807406 3.984549929485507 11.724524586951185 0.050683899508112716 0.7834151332438122 -0.41894891883636237
