# total energy = -340890.274875671 ev
CRYSTAL
PRIMVEC
9.08344110831873 0.00000000000000 0.00000000000000

0.00000000000000 9.08344110831873 0.00000000000000

0.00000000000000 0.00000000000000 13.29453423032056

PRIMCOORD
 96 1
Ni 6.603434581797757 2.1899994783895944 11.57677390194717 -0.023078993306650572 -0.27838516634696575 -1.1030785895142743
Ni 4.897573429726451 0.49869363231075536 5.72567714459223 0.00995428299923447 -1.6515316605917623 1.1030845030515455
Ni 2.795728747053831 1.3596003779619745 4.697211794647066 -0.02006874572541705 1.0684021211780117 -0.005287216540868314
Ni 3.58042905538953 3.9674018124358494 4.366044974586463 -0.20054244703587398 0.5094725760492322 0.7452856733619423
Ni 3.6057173553664548 2.4528742633508753 2.435438598190779 0.42635986658845276 0.3442573435597426 0.33016846956684426
Ni 5.174836385364259 4.73857687699797 2.68624058160776 0.5149927345365131 -0.4550541491993518 -1.0924087685052541
Ni 5.1583862735617405 4.804822412821143 11.312824545905693 0.05770995311695867 -0.326494877369999 0.16291460938077104
Ni 5.552616700033909 7.9116953507548535 12.4728253894952 0.2600755694045005 1.1773973548325078 0.20295619868368917
Ni 1.8734143063005995 6.567673074251365 0.1722238596345154 0.5407659868458752 0.5093134247635487 0.0314607896124426
Ni 2.7271851006364907 1.7309132825800544 -0.05659619635999488 0.32461720073131195 -0.19273863472073902 0.3889767979543043
Ni 8.145103452840724 9.230047822755903 6.8201355106984405 0.3383764592989334 -0.6492290021459851 0.4116084193108911
Ni 8.900764000031943 2.328994293851845 1.2269149206764385 -0.027230296470862777 0.9206593344416724 -0.19191459615754689
Ni 7.078080712183615 0.7301542446282872 4.596359256639236 -0.7033607509933822 -0.4642638407230778 -0.0900469746867675
Ni 0.6935189100496473 7.340428657562044 2.483299249260613 0.7726206137314693 0.1566100073189819 -0.2653573866287301
Ni 7.847620757350677 3.90926778950039 3.693580572624643 0.00014526732861265307 0.15442354119062437 -0.3477234477314721
Ni 7.586417325548791 4.0137364454036275 12.657473579843952 1.25784871541104 0.34585219885068824 -0.2689996113670077
Ni 8.136183513696563 7.505629200550668 8.98114882024595 0.5152917538341707 -0.40720206271307935 -0.31605825541770727
Ni 6.98541144624806 0.8725053915709517 0.36846161246191733 -0.33011241951792825 -0.5018829366274324 -0.9573260937350867
Ni 2.1219100040264376 6.702880094781727 8.883567229372348 -0.1399176342649655 -0.6847179390812143 -0.7600080671737814
Ni 0.3660953760596225 4.81009080864967 1.285621200400169 -0.23626304036593504 -0.5035487543656296 0.15437211912739865
Ni 6.63880550137755 2.108085006697099 7.006113516821842 -0.5187048932807776 -0.7565581609519679 0.259174911967102
Ni 3.8094861891963236 4.779443278433382 0.3678212298655189 -1.228504457920968 -0.8847605636625342 1.066129265983435
Ni 6.183334515119309 5.808442734714265 4.765080541391889 -0.46543986330905 -0.7848220408936677 0.5132400135114645
Ni 5.436793742776089 3.152153891735783 9.175954114414457 0.19305282352704817 -0.3901901015361151 0.11912589433059485
P 0.061394978284495395 5.793990979950152 12.600665739306708 -0.4077713049529881 0.30804669796714046 -1.3735689264941957
P 3.921784771313681 6.369472389805783 12.409237668533109 0.33558629814830593 1.3109188557631424 0.06372222074930961
P 2.413215959579592 8.293172625945555 1.499384544454395 0.13433834040497508 0.6478655461395552 -0.8457407307559112
P 6.718521780327799 7.9123311916307095 5.78862629964614 -1.542369048121466 0.4060797761831781 -0.6967134208801937
P 4.908291890205176 1.1500726424850616 12.568200612529582 -0.4611594907661413 -1.048804658662058 -0.09226403694274433
P 4.229468171140684 6.383742475748222 7.989336971761594 1.3551785969124661 1.7440790331028801 -0.3805098981338737
P 5.091541230627046 1.161926533099245 3.5982453167310315 -1.1520917861881834 -0.7892625931635247 -0.286079706777746
P 0.4051160222668329 5.386471479172583 3.5443496274052104 0.17526438919537557 0.7100757011197126 0.12172965050202905
Ni 0.44915890304920203 0.10775686157552432 4.537583942763269 -0.22720941480409904 -0.7066651327762669 0.7547159655369067
Ni 1.8184594877444231 6.861604144277698 4.631097968719605 0.04466006191153599 -2.001424090950095 0.12060530708959874
Ni 6.151887642087659 5.810495592399174 9.298051004428764 -0.09989687089765377 0.6892587643743614 -1.3878200370965712
Ni 8.72612576175739 2.5518020201930764 10.16430971356648 0.4724504902989282 -1.136884739430442 0.44742054391349395
Ni 2.8971726170762078 5.467386772345875 6.650058976536104 -1.6104935117035297 -1.399746613330828 -0.7118636462580709
Ni 0.5918597624735876 9.343227498658376 8.98828840493771 -0.6207347513610342 -0.9439972378366647 -0.5033368954651396
Ni 1.5950976714970875 0.7989467773313198 11.05480395185952 -1.1582480355975666 1.778605349014524 2.810018808783328
Ni 4.372550535090584 7.145143757704318 1.4149902933460585 -0.615492014904856 -1.177865552718178 -0.1224467311737117
Ni 5.9055628867808165 8.21133082178173 7.950224582799438 -0.7593922879666535 -0.6489124993468308 -0.336024414126989
Ni 5.370302954043658 2.602414953911261 5.208014562266455 -0.2222728967344301 2.0465891175225073 -2.0443797685760146
Ni 0.7485255042200007 7.384683182521663 6.804408440806182 -0.08586378984335535 0.38385824578081634 0.5831161696773118
Ni 5.09759988582985 4.369207828771795 7.045212280622372 2.393597798575142 2.2895719931107794 -0.258277082743181
Ni 0.7755632749496396 7.152910099830852 10.79743554888316 -0.3388487709496616 0.08770264282430702 0.8234510661197754
Ni 4.757833772095341 0.5902883271661136 10.310137093411862 -0.6469373778983311 -1.1781308905644228 -0.012526671712101006
Ni 8.330896156766018 6.9119627416455405 4.737041775454831 0.6823764354322313 0.7503142369247852 -1.0039713043974516
Ni 7.520780380278223 6.289392773212187 6.94715199240366 -1.075620750413638 -0.8250289521298566 0.40743346199759506
Ni 2.4120441956797984 5.635403182070436 2.550077983075397 0.867766343097383 -0.9640166183813849 -0.39548246028330597
Ni 2.3486962775623152 5.438864767343166 11.12885488860589 0.7048262797953152 0.22269584320446165 0.5534266130326791
Ni 1.415908629239617 3.324012597038735 3.4350549392542216 -1.110769273290313 0.0772045715064606 0.005038333754855838
Ni 1.4590004737405264 0.9808663019785397 2.545278292806788 1.0662387949781058 0.04189226935841172 -0.362901183913175
Ni 1.42528274043796 3.663960379594918 8.018212322622457 -0.27011675569058646 0.2067102664094827 0.051581985842349874
Ni 3.75842816686504 2.713596272775327 7.019061962086607 -1.7588317659320225 -1.5321005763159228 0.37170566957868245
Ni 4.304597312343682 7.255943572042871 5.881794246497189 0.5145255650921075 -0.27916883859052566 -0.723313025745593
Ni 0.7007693127226291 0.22464893984889103 0.3708641826285469 0.5597520410300747 -0.8447200028008808 -1.0126770597015657
P 0.22606323162561778 5.660891317751202 8.126496932124944 0.39621419624300797 0.6881850716942084 -0.07427505656449143
P 8.678010774337213 1.91799583513923 8.018079704382636 0.21852371410464302 -0.5772890214725735 -0.27523067987838407
P 2.2420112620346635 3.4966343113927154 10.276754539085283 -1.1080251348862724 -0.700473145032942 -0.5861814388661969
P 4.033783599875277 6.091246589413108 3.9591921983844323 -0.11979978046916787 0.45819732281402376 0.25582784987174007
P 7.099363214642644 4.179781748413033 10.31695694097748 -0.6329444060533487 -0.7297636664669431 0.4759358777443674
P 6.48402366531189 8.195988889791417 10.147279169878717 -0.6767930278071829 -0.3846606870774537 0.9604142457421072
P 2.1712875897572435 8.577348080248031 5.680807670671247 1.2873174142941184 1.5159946718929955 0.5304417221017317
P 7.094657992161306 4.237616017792732 1.4801467245833 -0.6202372428993254 -0.30032001874684405 0.3679055791063019
Ni 5.1860544351025855 2.9538078722328622 0.37253008572329116 0.745049131871104 0.14458110117890585 0.17627380429649642
Ni 1.5122566888140576 1.289676048499917 6.941688302591836 -0.13292243389405495 0.150995746455998 -0.703262277742305
Ni 6.844536358481491 1.1774410504701456 9.268736923363559 0.8508965639252379 -0.9247684715140397 -0.28331577087936366
Ni 2.5480868927898572 1.6622333845464592 9.142291790102503 1.7142753194778866 0.43152392728789557 -0.8219497989839005
Ni 6.5528398149617395 2.1521578628350437 2.296205796572137 0.2256212443813727 0.5750233653668484 0.9323452554200331
Ni 4.249324573349576 7.0533010849073765 10.393959087731929 0.16419656141698816 0.6341384263614499 -1.1441473345301263
Ni 8.052179850554825 7.662581979035326 0.24303473294633848 0.744483489175621 -0.5319633009525806 -1.168440402749536
Ni 7.876533350319984 3.8916731641213294 7.838763493949995 0.13015926932662097 1.3807646729116865 0.9257974269991861
Ni 3.1761705099609947 8.52746182181654 12.261561808427198 0.03682591057909787 -0.15258288843745982 0.3901937010805409
Ni 0.12871145181143234 4.762384576078257 10.091841112256887 0.5610136813513177 1.6766359118585576 0.585925614101649
Ni 8.763703957520514 2.3132254401306014 5.61145014793281 0.3468806401152026 1.4505657528652243 -0.1479703293661129
Ni 4.00561584907483 2.6659263739682504 11.197427602034697 -0.3147318232967999 0.5052086585665557 0.3837124642315714
Ni 1.2123668814368398 3.5212686036116163 12.300129190924334 -0.1575687716878254 0.5658054463130062 0.2594939858694176
Ni 3.238501082677108 8.649997442035188 7.568750940985169 0.17328309709928866 -0.1968264316368675 1.2387001675070473
Ni 5.556150158615454 7.739073636400874 3.571788886230747 1.1641710859502208 0.9916456929525632 0.16458582643560685
Ni 3.2662964123931246 8.381163919723024 3.5324902867263765 0.030424635038444378 0.29054879829269314 -0.2964363674217217
Ni 3.6557852826196195 4.742573591074783 9.066713018565862 -0.23242592600803197 -1.3322700677454087 0.8446094453649453
Ni 7.269278063553692 6.625861597833326 11.497312867691374 0.7391692760515594 -1.5841618157875363 -0.6822476231638509
Ni 8.255539929535928 8.996775972286288 2.3332834947315515 -1.2527903270515262 0.3301705264493733 0.12092078144748852
Ni 4.413589521906585 0.42572271670923656 1.419590147910827 0.6525452110034117 0.17257938616404472 -0.02622628068638064
Ni 5.959282357349615 5.673471883652079 0.21350264929512508 0.9523180989975342 0.6550445803864976 0.5286085255477347
Ni 8.347518853949126 8.868372449127593 11.131766131473203 -0.6147191412945736 1.594182690358648 0.8229219330891827
Ni 0.2833034439584446 5.038048846085339 5.989307671851671 0.7664887898021187 -1.3706756641068008 -0.8761771928688976
Ni 7.648012139537126 6.343693584010341 2.1706254069022446 -1.0007898213456763 -1.244693923196637 1.3093391699808483
P 8.581154042062087 1.758790363265824 3.415471948621947 0.691849407919673 0.8424204081334266 -0.12007745961058673
P 2.2591426319184564 3.4868241950223564 1.1389245352430786 -1.2256291932557022 0.41286697430834063 0.38474501926114385
P 4.819692005875104 1.0899402625111956 8.057418271027775 0.39876575902026806 1.1182175020382419 0.13695752319537702
P 9.012744661711372 1.7904007382369802 12.32076313568999 -1.5524693697802618 -1.0535755976881402 0.031181310698810815
P 6.405978739521035 8.068012288363654 1.5248699551028357 -0.9884307855596912 0.010744383000697624 -0.4383754029920902
P 2.004869865663407 3.2189081002596414 5.750989061515972 -0.6221655702702898 0.38688263442943693 0.20201028983065208
P 6.947860500808187 4.044402142502082 5.744701503597859 0.6620096988504212 0.02652864241814786 0.8382138262512467
P 2.513415398173506 8.536172841815775 9.855517225583162 1.1389313375468255 -0.4051744907600893 0.12289410312377544
