# total energy = -340875.5444443162 ev
CRYSTAL
PRIMVEC
9.18517164130244 0.00000000000000 0.00000000000000
0.00000000000000 9.18517164130244 0.00000000000000
0.00000000000000 0.00000000000000 13.44342714842215
PRIMCOORD
 96 1
Ni 8.453627883036958 0.7746681958149391 3.5507182528120804 0.9182376123740573 -0.3228364546818053 0.44519551123771717
Ni 4.960709160167189 1.7202999924397462 10.104483384856008 -0.9255068923419609 -1.3883496843477958 0.16903614889747662
Ni 0.4635131564169415 0.9218146464125905 13.236626933782297 2.547074402471465 -0.7728733531722238 -0.6732857859848728
Ni 4.695579179112183 8.197076852347633 8.140304224601126 -0.3186419569844835 0.7293921420601374 2.104132977375247
Ni 3.8564310779791726 2.430736282572452 3.5524386354710655 -0.173361772856024 0.5663348364539149 -0.08141758114654365
Ni 5.892792828537844 4.96508130189531 12.988528098089223 0.2635933527497718 0.7717459244359999 0.049778614085023945
Ni 4.03921599476402 2.565188825883839 6.924992112862257 -0.5293397472868044 -1.2443987605537212 1.1301301943154278
Ni 9.219340536446609 7.6998743231777524 3.5129157601728984 -0.2487244060577394 1.8392792698558131 -0.38141415511569793
Ni 4.6665081106888655 2.7157889010398377 1.4023506815369369 0.6454764770820883 -0.32585775800663236 -1.1903372028226273
Ni 0.3705573818015637 4.136716592335436 4.91265877146485 0.4684740221496835 -0.25358559080478266 1.0688939732127656
Ni 7.808038905090234 6.711816218481126 12.34438670320206 -0.773569865018616 -0.19581264566037243 0.7918244403534298
Ni 7.827630876321495 8.922356379943873 13.622090012214938 -0.6713309762513471 -0.9467943409658274 -1.7151921748652008
Ni 1.745917436304718 1.8336817518765383 9.082191226724769 0.5499677079498012 1.4184609019108796 0.6041411086684112
Ni 8.24089012134581 7.895904257550729 10.11390737101788 -0.5854473889136498 -0.2478669431534505 -0.03169373155885509
Ni 5.244815705949709 4.802310874239818 3.0068375995915013 -0.023921286702287835 -0.29511302062460787 -0.1446302092492864
Ni 6.621039166592451 7.609143197147566 6.849856489857647 -1.0458319491869796 -0.130043312574047 -0.9971221426861019
Ni 3.5629923977517586 3.94598650203205 12.618269234367835 -0.3267473597004373 0.006679211792388497 0.8794558636201693
Ni 1.3919576597609544 8.294715227494514 10.810961784504164 0.624461308283002 0.3463633341591519 0.7575812028998438
Ni 4.971262922447883 8.677314369391803 0.41532774569064446 2.0985315720280697 0.4058859150048171 -0.9064308495471164
Ni 2.698135001036798 0.3223701340409271 6.9922762510996455 0.58119298451267 -0.35116384087158875 0.9598869124837274
Ni 8.161273053069877 0.10837308531001935 6.63455973933151 1.213322093753575 0.8582951703821541 -0.0860648501105679
Ni 8.206372246105737 2.3975686275719448 12.393428171930587 -0.9411615681600825 -0.3675983322785282 0.04506938153481271
Ni 8.70784588011506 6.366462947818136 1.151361272310587 0.6462151550203258 1.3924639636264857 -0.12854255965880443
Ni 0.6447944605948709 5.601714737436747 3.1085238799055728 0.8914670291484325 -1.8347160759651626 -0.2536511539353954
P 6.6829931496936466 3.2591101773040245 0.6653784303694862 1.0172201989875578 -0.17864487563183426 1.6091267132629903
P 2.3299933193917375 2.6499404051388034 5.097747329311489 -0.4933689856191504 -0.5424690855799109 0.3051295243203455
P 6.486118179524478 7.170698211328071 8.880862366799372 0.8933351927054227 -0.5075748448058871 1.4469165861484115
P 5.613150276200423 3.2668165363584207 8.70695859252906 -0.07591310638854669 0.014550901230981392 -1.508429200840912
P 5.021818107472194 0.7841619892817139 2.813077321145035 0.24922422851229337 0.18875753858580396 -0.8507500110450446
P 9.025303784332042 4.5101030070199 7.116345876323918 -0.27023399799474107 0.17496177035329222 0.13414190812345286
P 6.548136458827559 7.155845788692841 0.9406056706718087 0.13087480733640686 -1.3955084068797643 -0.6428657789321186
P 1.4201010258428022 0.1289304180867112 2.5212478829990634 -2.2042633044399453 0.5406096637736689 1.7142578359763896
Ni 2.7164318630586783 8.317099490921883 12.93053384250692 -0.49351553849934354 -0.12045489755466353 -0.1368968451607707
Ni 4.870942477165265 5.383475057898657 8.339106243792477 0.5945228688523568 0.8711864245225254 1.4158406906792134
Ni 6.685959960152013 4.515669221068725 6.970699364264505 0.7501681982652241 -0.0535239400600691 -1.9631740463299607
Ni 7.385456710792721 6.204932518341838 3.0813137272682143 -1.0990139325265975 2.4607262167925232 0.0944762141027147
Ni 0.7924286438096718 8.838459021656796 8.457945832252062 -0.083331767450121 -0.8361656854729664 -0.4690255237777793
Ni 7.314703333205099 4.8675623339805 9.0472113373483 -0.36859129231941684 0.6673910177669925 0.6027802237651425
Ni 2.8404500513214432 6.811962145501488 7.921337997981746 -1.1229925548293822 0.3193484961332048 0.8110287811960226
Ni 8.533548061978916 6.268199980995809 5.380731447112545 -0.11190263710927824 0.11323883942219852 0.4283488719940236
Ni 5.9047427369165915 5.968790939164871 5.161496094962421 0.49304554084146046 -0.4925570312408163 -0.6949095349022354
Ni 3.1317577717149834 4.705251164909894 1.7001771182843568 -0.666168458213801 -1.9418570300197395 -0.7783899121150788
Ni 6.951365496357952 8.8032247030243 2.2289876603004686 -0.760137136552478 0.5021531595696835 1.3239823738153198
Ni 2.2923984116329246 1.4893755907870896 11.487085947242825 0.9768829328210917 -0.19932014459299865 0.24967185757267324
Ni 5.780696993138734 2.658326466898832 12.322110824800724 -1.2207147866732202 -1.7586453609528294 -0.1337955805276276
Ni 6.592969281884184 2.312734381771701 3.3192895852332187 -0.007151266332800588 2.19435093042224 -2.4534325113445874
Ni 8.110175942915399 2.3749914755389225 5.217394294363302 -0.12092360966096595 0.28577400261186914 0.12239428066922146
Ni 4.000491310886386 8.65080596387215 10.904622980305927 -0.5206275642247873 -0.4654262364622952 0.2837988811633693
Ni 2.2533706170892653 2.1858136792524534 0.7806734610709155 -0.3927000124421624 0.6229052766497918 0.12939590879803523
Ni 3.246508121734738 9.184262365732975 1.6226487580524882 0.3838818999299002 1.3631389894101233 1.4776371551607197
Ni 3.316196019405423 0.20767948763720837 4.324199724443672 1.1071417038400546 0.6091861272914864 0.027519545576507442
Ni 3.0409164236244233 5.782249287155651 10.312264827899062 -0.20115642647078905 0.20041774853255162 0.14868663870684715
Ni 2.8092939489227393 4.131196304145099 8.232902696037463 1.0825437027857163 1.5382871647426088 1.9940756210048238
Ni 6.026189077103992 0.8871341936334673 4.831621675644448 -0.21866409633724923 -2.069637771811855 1.936657488096671
Ni 6.752699417707727 0.46590221957552136 8.95134661885625 0.5005593327200024 -0.8905296049358277 0.07017131880876303
Ni 4.2640414424093835 6.389288099486999 0.6640006546148264 0.5323952462836766 0.7011107786169409 0.23129181240358876
P 7.170762507529956 0.808499020212022 11.36488550445904 -0.53360572165201 -0.9017280447548083 -0.1434223049841143
P 3.9313453383458667 1.2916372144783357 13.015011703645293 -0.21987945680158905 0.17755807032555873 -0.006344968381421331
P 4.0989930921728535 5.299697106843653 6.39341132306211 -0.32360238631355237 -1.502927297186076 -0.9154649347249265
P 0.5373656109353783 7.584563677684438 12.902665113058834 0.4823569507793629 0.897920240972944 0.1387200144124385
P 3.6292358560357947 6.325919599944352 3.0394918034941054 0.5665358967211276 0.6626573597367491 -0.06777659332434133
P 1.1334226319849185 6.629021080797779 9.448404022313307 -0.39078428347668825 0.39485536822226835 -1.920158204890067
P 2.720638671696239 3.5963988672164064 10.583230148533637 -1.0712174791396198 -0.7830914313558062 -0.9721302486274548
P 7.222089246976877 4.435197931824903 4.232756747606911 -0.3934988541943739 -1.2766879596047302 1.7292175426100154
Ni 8.569223268852904 6.5834167033185444 7.826468033584561 1.2246125790657298 0.4029373738994545 0.6122074306163133
Ni 4.216581660247207 7.344224475041607 5.890022580753808 -1.1525923799736861 1.7438255223311774 -0.3406143474905166
Ni 5.236576606936844 3.3856726581270604 5.274044759326229 1.0209632109697577 1.4965818145840224 -1.3115801434962249
Ni 7.995618481501298 4.1261169041962535 2.28436138639741 0.36937984965898324 -0.4921291996747782 -1.0959111252315579
Ni 8.218028228990157 1.8695406621844801 1.441861616111897 -0.06088243730766935 -0.31658353179355797 -0.4512460883071712
Ni 5.119520778820959 7.9400849334168155 3.5187905959907675 0.09633512168832442 -1.527410112818789 0.7134109361405326
Ni 1.4595421531128592 2.8774203674048104 7.144536086781424 -2.5454162980427513 -0.6717986599163849 -3.0827958849148973
Ni 1.9750507294763167 5.791948828468455 13.350559803520953 -0.678336975255535 -0.11853865436855712 -1.0025908791101572
Ni 6.04927141358039 6.08635195172413 10.785688784577856 0.5173864315796702 -0.11338076431670151 -1.3175998673277436
Ni 2.2303801323298447 7.372239248719686 4.325879692347187 -0.15927212753217732 -1.0406570898542593 -0.44011758249417754
Ni 0.5630868472405346 5.9275035923835695 11.329824785571631 0.010444849482407818 -0.781131736526274 -0.19091469413812281
Ni 9.22035090533336 1.1445091342240798 10.450382254717843 -1.2332275744282504 -0.2578525936112527 0.5258314770232299
Ni 6.047581341988007 8.165856453747045 11.702046520484823 1.1067210713628683 1.3070318620039103 0.32695150529144335
Ni 1.9015234300359798 7.191658773142294 1.7869806648965945 0.16405232252964003 0.39841660321096545 0.04673031417700339
Ni 1.8715154740994924 5.474105147040169 6.305840814613112 -0.534557544042318 0.3316180575291773 -0.8519622861855909
Ni 2.8042329193172897 4.501285242190079 3.9501225848475383 -0.45499527093695835 0.5131595379825162 1.7669302266694409
Ni 0.1965305262305024 3.859829591507333 9.599938229430963 1.009736746126319 -0.2874717020292662 -0.4794084096740001
Ni 0.6401642155420447 2.711159574504181 3.1321031341708183 1.2973724845372752 -0.5326109618389085 -0.4976604139056526
Ni 4.844608589907869 4.013708772959421 10.607535949880173 -0.011054458041948705 0.8653515630083031 -0.8150762117925189
Ni 6.654601783975959 2.1339266443319707 7.0466276675866295 -0.6609020676085392 -0.878181624893436 0.7442688020616537
Ni 8.433190876009506 4.490997849888619 13.271432304896509 -0.30909930760137083 0.38394643461924843 0.05952720883135555
Ni 1.231694783978943 0.6306465406288557 5.224505454291687 -1.6220745316729097 0.967489921641966 -1.0524270859059939
Ni 1.040404398201996 3.5778448203869893 12.017549820164527 1.0359599414889062 -0.22047003919773642 0.24173537633441597
Ni 7.235664930746124 2.640718492754281 10.132983135599728 0.08881464494156319 0.16559806975020513 -0.4381437465972583
P 1.0204817607896175 4.17973075139591 1.135548999232943 -0.130775048533749 -0.473413625543146 0.45069278690686243
P 1.2387489958428004 7.852605358167625 6.120361886969319 -0.8221894257985324 -0.48971416247538246 2.213387378228401
P 7.714239931713005 4.584558008801708 11.134478227972966 0.9091485055885956 0.21989205520707933 1.108412600132678
P 8.716369719450556 1.6021419437201339 8.287389134548404 0.11596369455252932 0.12113032635513332 -0.11547364228998822
P 4.793456368723206 0.34244708233782767 6.512776303342804 0.3086874168749329 1.0539934019518493 -0.7547789575643581
P 3.0884129464733907 9.50757122432141 9.28852049412241 0.2945489205910217 -0.8892252843021073 -0.7027061481285188
P 4.314256776080879 6.526624786711473 11.93988735642587 -0.5670873983492233 0.2562883344479263 0.717458623847345
P 7.363752150070983 8.173351553852394 4.827736348016308 0.09117517475393976 -0.37891838527703775 -1.7701831863890998
