# total energy = -381164.584866263 ev
CRYSTAL
PRIMVEC
9.28280423163499 0.00000000000000 0.00000000000000

0.00000000000000 9.28280423163499 0.00000000000000

0.00000000000000 0.00000000000000 13.58632231323394

PRIMCOORD
 96 1
Ni 2.1371429173900163 5.661740188969824 1.0230950001182457 -0.09649041631926608 -0.6831256548934299 2.258240787097666
Ni 1.7738882170377273 9.012795432974091 6.813880093947195 -0.5278122548986846 -0.013285918475628733 0.5512481173241216
Ni 1.3419778956130284 8.61583486997795 11.429330339535708 -0.7762679806760696 0.08307954222999886 1.0523720642983423
Ni 7.937883818898815 9.26941855960291 12.15255826889779 1.1739142813799137 -0.8429904217042837 0.47073376471813766
Ni 8.59091982306633 5.454742934468246 1.020003826265202 2.5852149180969284 -1.8876131810745103 1.9470144058509633
Ni 7.553018749988309 4.774675403994234 12.323147436405304 0.8509037630140894 -0.5306695218418216 0.029685699989890808
Ni 2.0156495738805926 2.4852109498036277 8.998479492084707 -0.3707538471883744 -0.5246366853841803 -2.5515182971754315
Ni 7.8056317051321 7.71859613141997 1.4879472093876795 0.1245213543145533 1.2517883681495732 -0.4129703326554243
Ni 8.819889475496298 3.359242677452869 9.087185042301831 1.0225799206375743 -0.42236102984170487 -0.7279479534144431
Ni 2.902593682399456 6.93704898364423 3.425248057879501 -0.724410629685146 -0.07655871039234556 1.0355542214100553
Ni 5.802616027990225 2.458597149693487 9.376654443890441 0.8821254400325323 -0.8487229533126868 0.6172498781362273
Ni 8.448354513651772 7.845751985591127 7.44842939322481 -0.18244830853832447 0.8140238592686044 -1.1952942897175864
Ni 7.0038016298221235 4.876331394578869 10.078823403273502 -1.0234610376909472 -0.5189167521812675 0.8992327891367804
Ni 6.671282294717366 9.087048585077687 2.9633125057410776 -1.010413974699002 -0.37294776951589964 -1.1457187927823043
Ni 5.363038110161279 6.477596581673041 8.959812898789005 -2.1793156333556727 -2.4694923930209276 1.209850847375523
Ni 7.5905305624211925 0.321826472758447 9.885218450627137 -2.4633397431559705 -0.3029985940202717 0.9966354328576705
Ni 4.444272548284355 0.10741225757043782 3.390317793340105 -1.1969395386304933 -0.1103779729346357 0.7931261898839889
Ni 7.885770155202153 1.0615722242049328 7.894387382492786 1.2639669124936361 0.7053086187483724 1.012604040371785
Ni 8.688964802753564 1.0020137514087484 5.7755046695662005 1.6667266231646456 -1.8991780030939744 -1.526804618024306
Ni 2.056568175514879 6.574314120336297 10.138589810887426 -0.4304764598599876 -0.24018011603215414 -2.1500207410462973
Ni 4.532635563020464 4.912664290857588 6.052122028513554 -0.18421851306486983 0.38181344743664564 -0.1427147373941284
Ni 7.604111305204986 6.318721384991824 3.725274792870716 0.8444667491394939 2.6753629371379346 -0.5003256194426415
Ni 6.13313956015683 0.111133733839763 6.862709501460053 -1.5605359488384802 -0.24047065068937937 0.9121096450994485
Ni 4.130049620580046 8.235769010923372 7.744326208554706 1.0363265807997055 2.027077272741825 1.2015441272820402
P 0.8258391205157208 4.539337747770907 13.096508079012878 -0.31741039857022757 -0.10544582574034099 0.6753010166426887
Ni 0.6336173057195195 2.088649547395118 3.191807806868072 1.9508849445499625 -2.0153949513078904 1.3404065808096142
P 0.5503412677746051 1.9074677718284212 7.236183641136114 1.4145674803937442 0.5258623302611652 1.6675516901691023
Ni 9.018662165331818 6.168581307216654 5.872172081085893 0.4423441578318511 0.4041923293524781 0.054249762482500116
P 4.226432978286216 5.938952575676876 0.25082508702338224 0.41501898765433687 0.2996211929076066 2.176661226451961
P 8.606756287310452 0.1183752495237255 3.5719804181728314 1.586364736976126 0.1381764832041427 0.6212731403630075
P 8.22695034677805 6.893744701288525 11.660176046727539 -0.401132973700864 0.05115029762156997 0.30916281384945465
Ni 5.512528391631004 6.5121471795139705 4.540182482967985 -0.680700590391705 0.0303690992101606 -0.7460498052214765
Ni 2.9410709064861433 6.487566313559435 7.478591081162678 -1.5388450941286078 -0.893807761466467 -0.6845683008772274
Ni 4.513810035771296 0.3490919257349047 9.585191715635924 -0.4047258332584449 -0.0625557112450342 0.3117539716153986
Ni 6.747308462454391 6.192781578192286 0.31775967616679973 -3.89406172182239 1.369990465114318 -1.1065076698004814
Ni 5.773885748485208 7.8544963873015385 10.800420343908918 2.4842983476855083 2.338593931535437 -0.1580688512526955
Ni 3.496776706902412 7.819787981786431 11.165905702149754 0.9741434224027418 1.2648439157819507 0.22176818918386967
Ni 0.017030232885268056 4.020549660308258 6.7371038756176 0.3916384039468675 -0.9028099649650774 0.5669583289705267
Ni 7.882168427109117 2.5007503643081184 10.92976137022724 0.06647330113188551 -0.13443475677352332 1.4730497929003534
Ni 6.744959912950427 3.9372736223633438 0.8716005611864425 0.3596654505846967 -0.19706605845149933 0.6917380791527893
Ni 0.7133157508627427 7.794798672439901 4.487725355509875 -0.0024523181952344863 1.3994797328226865 0.08261751499191577
Ni 8.395386831953669 2.5021613505713693 13.710501536307968 0.07404314305934345 -0.7271871639890185 -1.9358357635263241
Ni 7.916793287384953 5.336582117725317 8.16664367995017 0.606692157225039 1.3369037098626781 -1.8061374929965215
Ni 0.5329610731648333 6.966150575323787 13.318304908511173 -0.7252490664260413 0.7059220839626552 -1.1546932283667726
Ni 0.3448998112843503 5.139229696957413 10.969678357270706 -1.8020697506850514 1.4295012188854412 1.0868369308444314
Ni 5.035819256348078 6.233236039608397 11.951534499004122 0.24101495322862362 -3.1037043529327906 -0.03853209463692719
Ni 5.861515421676601 1.0051606220879734 11.521065797097075 0.356560843517444 0.21518462242908099 -0.3574751278015973
Ni 6.082455448332147 3.5037666585881238 4.242981433625018 -0.4427444785940633 0.03447335118652128 -0.8089896392788066
Ni 7.810876489597476 2.0785034422258177 2.4083521145151976 -1.2577936938033887 0.030208919483212488 -0.1700494206533394
Ni 2.6106680507762636 5.760434964962503 12.376636811708634 -0.5488914441664869 0.2911586639625502 -1.7585409741644813
Ni 2.1444948984459042 1.0041487964123523 4.788485432045806 0.2881579294630134 -0.2724721432966404 0.10843576160660034
Ni 4.0205682259169855 7.860585906963991 5.573095905261499 -0.9491723542797007 0.0855665703179107 -1.1213761022718816
Ni 5.78876608387989 5.149264408474351 2.4929407409971094 -0.36542009368028683 1.0384012039405472 0.7913816963890564
Ni 0.5162743040410146 0.5917936306597924 9.633544915284933 1.4172632820583526 1.1417328115513627 -1.0256788712778724
Ni 8.867352454206848 7.630808650554398 9.62115422802054 0.5281045893281228 -1.6041986798337533 1.84733530739107
Ni 2.6327054283352007 8.006567288384314 0.44098519097045147 0.31842418454672256 -0.3600596006993218 -0.798986762429824
P 3.7680945128386463 4.31390484380343 10.718792932018959 0.03446023856039872 1.370294626618298 -1.1072039245365577
Ni 0.3341261885400779 0.4632063680557859 1.0095059028105253 -0.6847122826542594 0.07339265395953812 -0.5677137190793127
P 7.193031596771971 0.46129411035690593 0.5329425075561063 -0.30569619545709287 0.29171427935570404 1.0323853367637703
Ni 8.536058449278073 3.0341031718170908 4.675284417674293 -0.9155320405174362 1.3854831614332783 0.3187951947328961
P 0.6614239461903689 5.40019717602835 8.907627757498746 0.34485975303043187 -0.4354404887334823 -1.3788546003731674
P 1.9729672394172424 6.232781182194586 5.562906170911691 0.1819988797057317 -0.15324597594275544 -1.2716200581635198
P 7.936101520461024 4.44327928821746 3.1152757262932376 0.2176755071717348 -1.9541613013083892 -1.263860983043391
Ni 3.206113536672655 4.541806973731597 8.569002193683682 1.1244966501787343 -0.005068672772159013 2.2668460122681737
Ni 5.842392844687801 4.0730903330056405 7.831604991741159 -0.39783836210999224 1.7211697326048743 0.20600681258455486
Ni 1.5559001221697724 3.9596266152706403 4.87651148098352 -1.1136429952936822 0.17224360009118078 -1.363062370535917
Ni 0.700265056208105 7.595812478104021 2.1379440234065856 -0.39815332224724975 -1.3854350818041623 -0.5153645160536351
Ni 3.704126707969802 0.737777796921425 1.0049898184876849 0.7307738528990124 0.9459816152565449 1.7199973095633283
Ni 1.0810753961726358 3.120210465092871 1.3362327679924613 -0.12852636170888831 1.9158492931020683 -1.9611912115719772
Ni 0.6774330705956525 5.575948511042402 3.3855482884581414 -0.034396989422631086 -0.5622264707124962 -0.3063209735252853
Ni 7.290788809523937 8.277161035580196 5.321871657650487 0.9324900085280134 -1.0954861218789973 -1.4843814158630888
Ni 3.9796496242826986 2.6924031431968376 4.98501168322536 -0.08528297763922087 0.03159680096967462 0.16095697143376797
Ni 4.658064815580009 7.3715213590732525 2.0113330698515677 0.7631918642184018 -0.3651061619842938 -0.7869673693714446
Ni 6.798484562910339 2.4765222449193964 6.593374502535862 -0.11936989202060086 2.0311905235792502 0.8025683091334952
Ni 6.64507693799922 1.3205160519246277 4.829638888630488 -1.6250246154401693 -1.2530183839019322 -2.790746076596645
Ni 5.716527300323171 2.1580106615991532 13.66226994139612 -0.22888063185893484 -1.9406578675053159 -1.1402443999312943
Ni 1.427472523800818 3.2035421998639664 11.023072119689092 -0.33143113832935184 0.18348729132580013 1.301742588580513
Ni 4.211366986804263 2.15420471181012 7.649113412478774 0.2850782620964252 -0.5872055092553371 -0.559874682650868
Ni 3.8767590207177194 0.4684446545581062 12.428821952998895 -0.8550008159015984 0.17611491012112895 -1.3127273697267907
Ni 3.463683509346552 2.167571950093553 10.751060888266906 1.397515152897148 -0.8928068310057784 -0.25945696198389506
Ni 4.338346467692512 3.7367093512856693 1.2481547353503109 -0.9649897809279315 2.184039521193903 -0.4197084227102062
Ni 2.585251732429014 3.6213705070692432 6.679498504859496 -0.3330097956703813 -1.1137514958470884 1.0680447378385929
Ni 2.171962716557486 1.8653145572137901 13.138639943177472 -0.8987429939845554 -0.4756453430871422 0.32032731510670637
Ni 5.299859343663331 2.1299858752257617 2.365990036802388 0.3405762951637296 -1.069928585124867 1.7932940613749502
Ni 3.4012102359802303 4.451800902623148 3.6101308875459233 0.6936661494134376 0.5779269121668885 -1.3071239074970842
Ni 5.326231790860021 8.251735434428584 13.303088535598533 0.7513452492924608 0.15180127307642888 0.4527702382611815
Ni 5.563815885739314 3.3802310981187316 11.569297392008924 1.5201202640255949 0.7576927887770434 -0.3059149963361183
Ni 3.5980613853125067 3.6006791361430124 12.691663630270822 -0.5035248431062297 0.06653629315933703 0.821848754629662
P 6.577423859798067 8.077460065308326 8.743369462567136 0.855118058205753 1.3449854584295482 -0.9654209549280793
Ni 7.0500207127479655 4.970598272890161 5.574414063481116 0.4188774421684786 -0.778082408176989 1.1778074457867327
P 2.26822539780693 8.56189249382168 8.94921564932764 0.45938208715074436 -0.2142662243798697 0.8271277436404142
Ni 6.39639989190555 6.613320464271704 6.993532063354789 -0.7961050700066548 0.9768744481806595 -1.401064560811303
P 0.5007645945104869 1.4992378843349985 11.870995031785567 -1.238127839943345 -1.4767910051103406 -0.15805316752341167
P 4.440772931039317 0.7378483462345875 5.514864873489295 0.04212084042945004 -0.7900645202395297 0.7146090702136918
P 2.8735756359591704 2.61889261544232 2.3199463988790154 0.41535631638909754 -0.9935462524093857 1.2094690385560718
Ni 2.1131468681103813 -0.1071532673286963 2.4506733478888076 1.1400330552514366 1.4774363520038232 1.4434008596856691
