# total energy = -381174.0503405623 ev
CRYSTAL
PRIMVEC
9.13075967098603 0.00000000000000 0.00000000000000
0.00000000000000 9.13075967098603 0.00000000000000
0.00000000000000 0.00000000000000 13.36378972982112
PRIMCOORD
 96 1
Ni 8.497577926592776 8.954271128528609 11.801188094234297 -0.24346598587227747 -0.21007018402065109 -0.9767446074710145
Ni 0.42287469460172794 5.010111697115084 8.899629010895307 -0.8564491183123508 -1.5484821029977398 -1.508841348677666
Ni 7.788811844919202 1.9844975487361867 11.533471484107356 -0.38025638736217093 -0.873416856514941 0.9748432766832437
Ni 3.3750300560039146 3.5861514790232953 5.765178947545209 -0.4098227881653781 -1.041631795062703 0.2783625406391464
Ni 6.080885003875128 0.7175562639216814 5.854302465658156 -0.426784098610065 -0.27519005644843575 -1.06657123861686
Ni 6.133049033358293 7.587615557563782 10.28133755210448 0.3403544089609106 -0.20440835774918345 -0.7360680114184162
Ni 1.364884203606218 2.590204747025116 6.550515579060514 0.4031181224516929 -0.4493892376040906 -0.5357626200940128
Ni 4.514119705944955 4.693712616133009 10.375606253241015 0.7779991044345633 1.921659729136258 0.8430536708420513
Ni 7.036218117259424 2.9067225278817377 9.701590016378756 -0.6687246489767515 1.9146892113556961 -1.573882031128083
Ni 5.721324822356221 1.6628482809953467 2.0776687325711514 -0.5637647617338936 -0.2545888352583164 0.3458267449293915
Ni 8.537187161652808 1.7114878372804534 2.006238800373218 -0.37799741612466514 2.564835068888996 -0.530646639023686
Ni 0.3718547492939955 8.687470333587589 4.494763408710339 1.0914379199515525 -0.28961034563882376 0.25957548983963036
Ni 0.8632557945470705 5.1035558906615055 12.981037454942506 0.5438315131450763 0.4098790953246102 -0.3913380990976293
Ni 4.959299020049829 8.387378789216212 4.0518211307026775 0.5323955033939928 0.18696856500618123 -0.5998409386311604
Ni 2.3764171422082416 7.24466422772173 5.919116249464089 -0.6362433885195945 -0.16953031492507578 -0.597464467979184
Ni 2.669048856002382 5.400460799939301 4.334210871475417 0.6681708333558106 -0.03121499215022366 0.21287011536329145
Ni 4.535412637286586 1.6856477876677536 4.4729135010343 -0.960460011378378 0.8438039187445145 -1.0308100218568503
Ni 7.5860450669159425 5.163563242624284 4.336375774571944 1.2354793465769045 -0.048230552871613715 0.2956760922169295
Ni 8.369719900187604 6.949439378206739 9.082927183321113 -0.5479468208650305 0.7895271596788209 -0.2415723683939904
Ni 1.8284802597848784 7.087231671035451 8.203722691014853 0.12932288946825468 -0.29835466749035716 0.6813194549226266
Ni 2.1060553510308413 0.3180800538208385 7.939213716728528 0.5136285071991348 1.3067019894683174 0.03422549684177332
Ni 7.413601541479388 0.2569313569105025 3.874937316882146 -1.0536892404478693 0.10054504600461393 -0.6498324400579388
Ni 7.292317661972147 7.393623439517343 5.367646676159046 -0.9170965567910786 0.660738031226849 -0.1455097836407623
Ni 1.5164182896035208 6.11392009203723 10.436691947910248 -1.1540854195794445 0.49236728382751327 1.8134990755679155
P 5.20941791723735 7.4781012271557525 6.346637587616312 1.086325795535968 -0.40302556273788653 0.05897493587231134
Ni 0.5709226565912112 4.011014853061647 2.9147895539710733 -4.230573617108759 2.543585672591916 2.0972653037211364
P 3.98285559051551 5.631222486816249 2.6423021219633425 1.2637486258352428 0.7729908525866945 -0.18979497871138282
Ni 6.215079777429139 8.385853952366276 1.870142089598598 -0.6062026191831302 -0.9269233130735133 1.3064039986119242
P 1.8594426655222158 1.1755213806670726 4.973093771623987 2.2516284239874707 -1.1037499045496864 -0.27831034724497233
P 0.10595607339952393 8.954389828403155 7.790554906923112 -1.0941753734873738 -1.5527701888501324 0.6523045557475152
P 1.3505763033436382 3.2498929959537204 1.3542194764162416 1.8305359764455442 -1.2430414751948786 -3.7864577120884655
Ni 7.103877045750628 5.591165844536774 7.275834814777502 0.13444221297269104 0.29035699399686127 0.03753064995560633
Ni 3.165616085026081 2.256101123216529 1.7894782202369466 3.318125871943602 1.3688676643637845 -1.1208492832341341
Ni 4.81777224655271 3.9933924870713606 3.586173392846288 -0.968823295741409 -2.1953726868185353 -1.8477996486219983
Ni 2.080160516860659 5.489440052050877 1.8132921542987426 0.518291717002759 -0.13792554353560119 -0.801585890615568
Ni 2.079749632679538 7.773937837562634 0.8745733710470499 -0.1413600231384469 -0.5104904757907853 1.7013382997012443
Ni 8.186812524271843 6.631004137838221 11.533525355588878 0.8988504660966972 -1.1503763461589738 -0.5333270140693266
Ni 5.252423794861314 1.9784986396918247 12.914378344625364 -0.1533004833297747 -0.3376742910255862 0.1366137667027131
Ni 7.183917284232934 3.4690129643655823 2.8096698581491197 0.01374023240422795 1.0141536442470922 -1.0449698582970004
Ni 4.061690568733196 5.60382107731529 6.48205314372623 -0.522114690293275 1.051149761855467 -0.8599375910815834
Ni 9.065958579716787 2.5463314472410086 8.269606599843616 -0.5100364189725022 -0.136847479980074 1.0711146350131682
Ni 5.5036657754772325 6.062221731292669 4.2649467554499685 -1.370356333094169 1.3451453810461802 0.6049119253961646
Ni 6.796051748014603 7.215783635168737 -0.03748998576140787 -0.16908242875437976 -0.9865556800241655 -0.6716191969157271
Ni 2.6590871973001007 2.6221989285950453 8.897009395971674 -0.8441098800207076 -0.4741001100872093 0.47151666563074923
Ni 6.471681513918787 3.8759435265879127 11.98198717776293 0.12195410780800932 -0.8923887696317534 -0.9943641203249907
Ni 0.7982201332833331 1.8758780327670426 10.601587987477593 0.35904067251650423 -0.3158543669370173 0.010321950751298353
Ni 5.083029943124632 5.913600357601534 8.398086430976218 0.8714116531594541 2.063063461028447 1.7333084248499375
Ni 5.0405901725946585 3.9891923376643494 1.2024735567966722 0.45254346696235614 -0.22051091973800088 -0.6580129189862023
Ni 8.818606302682145 8.776330885824619 1.8165262693421411 0.3975606829685734 -3.9789343513970694 -0.3636257207840254
Ni 3.775660394115728 9.023226624880238 5.919329909238272 -1.4117099563402913 1.083876562664527 -0.4393796758868885
Ni 1.6010604309143786 0.9600902391257157 2.467583211239337 -1.1083956308518137 -1.2028985844274056 1.2149028079771336
Ni 4.4107777690133165 6.5974485963800324 0.7544326626392824 0.8046614442170981 0.5457400430216989 0.9226444831925014
Ni 8.53245742819013 0.9805248790667835 6.130477811460435 -1.2990380451651564 -0.8930284600982814 2.8880705587814326
Ni 6.602625737062153 2.3790833240057356 7.319989341956687 0.2821618597805786 -0.2458350003250863 0.7495989560253153
Ni 2.419541719706751 8.033927085856632 3.34232367518671 1.1800293931387162 -0.4970932285482729 0.3285286199705761
Ni 6.760377870333749 8.909092130124495 7.713913137156653 0.10384917067718245 -2.0136072632798485 0.14286514692906366
P 6.172183468920141 0.7275973602323126 10.922278525462486 -0.6265451873952242 -1.1279699534393155 0.592645963544618
Ni 2.835840441258632 4.913170422649348 8.871378440753368 -0.0645711990131662 0.9609356654632158 -1.0415790874478965
P 0.25724088966028 7.718121504247287 13.190915268507029 -0.5258852130793008 -1.0853965988534793 0.5148538949658036
Ni 7.093276233877714 0.4650935007498557 13.597255070584502 0.5053984059798586 1.5203490922069494 -0.7738845680455575
P 7.661912548269979 7.091084851578405 3.1040875485171977 0.14996473408832237 1.1894689412850612 1.1981579844186268
P 5.257454843390147 5.4191058110025985 12.345295536089614 -2.0535771188045664 2.5787311101447976 1.7354015599335402
P 2.78213331340637 1.7835751841681797 11.766870134351139 -0.7237940791470696 0.3391107663617966 0.4735954025366489
Ni 0.02141254429213512 6.908962720986564 6.630377767731002 0.1332296807218286 0.45271341688131705 0.3813015407972336
Ni 3.9440681238177193 1.7686555230137089 7.281621890199597 -0.01214537711328231 -1.1579297330261993 -1.7774414106134098
Ni 8.06150197978962 3.7029521555765306 6.325575664492067 1.4295151028425122 0.21250681848660175 -0.9521041832145153
Ni 3.7503773208374365 0.42437761762867154 10.404204705322972 -1.028479573951461 -1.1270425565290396 -0.82332456784424
Ni 9.164178160523788 1.9268276712260055 4.347280640738886 -0.620856364540563 2.768677012611748 -2.541247768487359
Ni 4.740462105184961 3.7495098986772923 7.817443167735649 0.35697222002324974 -0.011025404576226173 1.0885168896500157
Ni 6.507026684254744 5.675707547492246 1.9707977570616655 -1.2881036576408396 1.4202683874332636 1.5909369297278406
Ni 4.140562069989204 8.325399193184055 8.135006420564233 0.873708676723747 -0.6335141625138897 0.9112688943657079
Ni 0.6749731404662933 6.450352059538834 4.057554334643248 -1.5496223872497699 0.49513764748379885 -0.7729900812557461
Ni 2.3593974063502654 3.054777794478885 3.706500368749497 1.1443489090179713 -1.0981263877153218 2.028608621784687
Ni 5.369717532431895 1.3669021014734997 9.009158863594624 0.7312883306415857 -1.318446274488439 -1.1762650410002775
Ni 3.2726285873090637 0.5591832389986148 13.63293625287302 1.931224490006558 0.47571964796850325 -0.4172998132687135
Ni 8.918935088952232 6.121242961220759 1.614132026329764 0.6483334869149092 1.5942240851195446 0.376535486867158
Ni 1.5619259953525297 4.994616798107045 6.847352007641455 0.24250002241458238 -0.1297085549424476 -0.8446305284108679
Ni 4.876501292174225 8.368021578905639 12.085997486295858 0.12639260319533718 0.023329161644243694 0.9992227339688728
Ni 9.055649952150448 2.8556998433461307 13.139719099539393 0.19505005646273504 1.778933164667588 -0.10536303621854759
Ni 8.749386014302683 4.217735249963246 10.985569298570397 -0.0784628693935939 0.14488423424162145 0.2646876142552151
Ni 1.0728003353869053 1.0119894765810464 -0.03552413322373498 -0.28837158813571623 -1.4095921386663401 -0.13145201999611555
Ni 2.223997372531634 3.799473415101566 10.985168458224816 -0.5328547024185984 0.41986705977525757 0.07834254176564573
Ni 2.333109949518123 8.373938311113776 12.059630591855365 -0.6323736211515432 -0.2559515199337979 -1.9071448233495352
Ni 5.650570566367242 3.9293584701335993 5.539704883541305 1.9547418564022077 -0.15247233100152452 2.495250475821638
Ni 4.56729724974155 2.5682270087149504 10.67428709525721 -0.49554182490075305 0.006586909188898333 1.2155450695468228
Ni 0.9639616811878304 8.521263116944487 10.04454499852464 0.2416209622437387 0.09684754254836869 -0.45661300904603946
Ni 7.9908116391177035 0.6183743010549002 9.43889806324894 0.28649622548987436 0.1989833300788702 0.8790357453636151
Ni 3.033439209339352 6.14175064723847 12.396545576538774 -0.3021087352161507 -0.03186008193339029 -1.131725820937322
P 7.094481494142335 2.837730508491787 0.6332026546135662 -1.2313432129213437 -1.3214020146826533 0.16363683225877623
Ni 7.664670037663278 4.853555693348529 0.3172190231924012 0.44543333828013604 -0.24327598134865847 -1.781854452079441
P 0.5055108080327588 4.5628688313450265 5.005246828410615 0.27677822687116205 -0.8442854863666235 1.4997288448534365
Ni 3.2249112377415834 3.9971908830568315 -0.22395287945779954 -0.43731585137932427 -1.2738520328178318 0.4127980687436181
P 6.74627084678194 2.3497370627141394 4.474704956063986 -0.3655190811519963 -0.8707197692987519 1.0830370974823669
P 4.098131430218809 8.998071382236072 2.1073491796633923 -0.005694993502248257 -0.1176174281058684 0.6207833452107825
P 6.688884022818753 5.200752826395495 9.958802600684336 1.2410840943581916 0.7063635423754481 -0.9453630078359396
Ni 3.4949717138528285 7.0938788640100245 10.266851602030082 1.450510988367889 0.6690277820394671 -0.716157131427102
