# total energy = -340855.2631426302 ev
CRYSTAL
PRIMVEC
9.37162651426045 0.00000000000000 0.00000000000000
0.00000000000000 9.37162651426045 0.00000000000000
0.00000000000000 0.00000000000000 13.71632270214554
PRIMCOORD
 96 1
Ni 7.289878779671302 3.1037232893128013 8.451572446709193 -1.7619499998460302 -0.3898563723457802 1.1500744986478386
Ni 1.9755481806446218 5.735782002159348 11.694028604899147 -0.43714487301909877 -1.609900615314537 1.6266022443399342
Ni 5.017802973523118 4.7442826904111115 2.0265457590935565 1.539453160026252 -0.3419770321659982 -1.6870067135699203
Ni 8.444931712363507 6.0102113330155404 7.894745091214508 -0.053000720566747435 -0.7734559651485712 0.42902610056670626
Ni 8.781110688440869 3.4259572855617972 5.766054229203423 -0.6604102155737852 2.2228593222745783 -1.6752688563077018
Ni 6.904845516063519 0.7064135047073412 10.220896117865147 -0.9068869632479284 0.4544288569105271 -0.8608120232667368
Ni 5.6574820650182245 4.341705742503128 7.319057337934484 -1.444046720799784 -1.3125124255025074 3.3542928087824624
Ni 8.369836871392614 1.112730668643216 4.436942082564829 0.5863812135818288 -0.2104687050106504 0.24557454757484803
Ni 1.0617771368375564 7.592854084020238 8.27882900908532 -1.7231641373270838 0.038959154872016774 -1.4071940707478088
Ni 3.5239938675406464 7.21648020304781 11.02022835946782 -0.5498664064852465 0.9526073481031787 0.9808509163299042
Ni 3.2948388629954963 8.123456817839038 8.94514038799726 0.36510667620492604 0.9574883303445639 -0.8080748407740214
Ni 6.37541423552331 3.0904905530778204 5.824128322617679 1.1587537715893914 -2.699679916616744 0.0013012353099267912
Ni 3.6862354608125942 0.16312252613744854 0.934689450712236 -1.9627909519589293 -0.1524630750301439 0.3681380068320821
Ni 6.691387985451508 3.161368162245781 0.8815073461893823 -3.7955840998697665 -0.568694337825027 1.0942069980562574
Ni 4.066086215115884 2.6641659043062087 4.984209442143576 -0.40550924839168867 -1.4237434904660577 0.5599376746783196
Ni 1.69485860346763 4.073649117482477 9.454852829789576 -1.376060839678114 3.044258390961331 -1.382768847825909
Ni 3.0477278225960798 0.8346670211355168 3.135798617243287 0.8529717012867117 0.3634660552777095 0.613922099314575
Ni 5.7109190777745 3.5614241426982347 12.59574024007507 -1.0522139414539233 -0.22750534877796302 -0.8725699351336134
Ni 7.896213625044552 1.6468290190453374 1.5773224787946414 2.679693446192488 -2.1322952987420765 0.6567651626220302
Ni 9.016235418893727 0.7380896013604825 11.193904273901454 0.2153869682478742 -2.0210112690534032 0.9133455743890785
Ni 6.118978427026297 4.8405667782851864 4.348238703147182 -0.967613591704024 -0.18947950435349303 -1.1599081969088088
Ni 2.237963086675571 4.081811803927709 0.281893831147385 1.4889317542379326 -0.23886731075800152 0.32143417501764
Ni 0.9140512554313049 9.120466645809772 13.618524851662707 0.846938350608438 -0.08552054757132369 0.15426978922157947
Ni 6.961862490039174 2.7623524323047177 3.562046418679823 0.1204422991491732 0.6599186206493474 -0.9713540325830625
P 2.463650589516088 6.207465321878059 9.198083391398821 -0.6923307184314658 -1.2134534771251166 -0.08854802154373784
P 4.541255779791688 5.351282921246602 11.71709967434906 -0.424976613087681 -0.576812081836155 1.010256366075215
P 9.259372889772157 8.399854190203268 4.18328589840726 0.09325622565268456 0.5161990961397884 -0.6471307248560597
P 5.48978618528115 8.429056177532022 5.125666642765424 -0.30299370892426525 -2.686779663615308 0.41172797560789093
P 4.778685930296816 1.4241404365980173 6.760075445569812 0.7451023537065427 0.22885980592332844 0.060183354358115705
P 5.836789389652707 2.65709032650351 10.29038297770076 0.5588459842760375 -0.3433561719017119 0.536081179775696
P 8.676467109970758 9.189160666066439 8.614878656720725 -0.19174953133459235 0.1279126393842894 0.2881473879400522
P 2.827166599302684 2.3931478453972765 9.352213842169794 1.4807021672392886 -0.7039204801515941 -1.3339646818390123
Ni 2.006127797029001 7.716128455433084 1.769103437939577 0.29803559358804155 1.0010302194912566 1.2085820079654281
Ni 7.512398672846504 1.7779380699854102 12.551956939497018 -0.8456882802514208 -0.3863781839891926 1.2146724371338822
Ni 4.840763582435991 8.082156061048982 13.09338202728477 -0.2881903253628456 -0.6882478066113437 -0.11725901632518516
Ni 0.14013205267310355 3.8470806817764585 1.200823955193372 -0.618891013284076 -0.8994991554242896 -0.2885945027797997
Ni 3.8770980005871127 2.6353387820266048 1.4509676538404086 1.3048546518469335 -0.16795937089353008 -1.2700408866018578
Ni 1.877249193131368 9.303719425086555 10.646389503390267 1.133969879776492 -0.750709672590991 1.3378699304306896
Ni 7.121789291632622 6.049394102277902 2.4433985052357805 -0.95752843955388 0.10194398323466959 -0.5553104603189533
Ni 0.40460965363699813 6.754862009898764 5.975529755830842 -0.4814462660396353 -0.37860625335325765 -0.48611667493211114
Ni 4.951583062590841 1.1479304967583632 12.818890843695467 -0.44640521527510213 1.0801628612583654 -1.9232694968255393
Ni 8.67965346288853 6.429132397066447 12.43193920819866 0.7086140289725216 -0.055988856660793895 1.8258956494600556
Ni 5.954384555570936 9.515012110039729 0.8597501787367394 2.9632251897373996 -0.17891407013282093 -0.17667772460313444
Ni 1.3691008757566274 0.6449965522172936 8.533541375518867 -0.19203363823391445 -0.4280488242551015 -0.9887200346653358
Ni 1.9077725797583742 5.6211482701293995 4.629834516580493 1.5482962122391786 3.0028734002566417 -1.2690121882270273
Ni 1.1374342753821745 2.097632355526418 10.42237483583158 -0.42070061142014636 0.6558117975698253 1.5685788737476147
Ni 8.977511859316573 6.9051547797290675 1.3514756583082361 0.5675959625545257 0.0206169049194032 -1.1407105409344356
Ni 2.4186011822345344 1.732026473090813 13.065606401468031 -0.6164659487823512 0.6555598294600194 -0.15805959528131486
Ni 3.698952757604994 6.1280314179632605 7.133763418465082 -0.5099235475437218 -0.08090053230080906 0.09818528752318574
Ni 7.780305351847495 8.727270695756758 2.2975938072064204 0.13313172169138365 -0.5545668972847094 0.9639790802752303
Ni 8.445868874986383 2.9803458300114394 10.754419987579446 -1.1520059113425967 1.1171019003765599 -0.5952476628335233
Ni 5.711059652167931 1.0017331275900192 4.781660484461819 1.0396898408449837 1.9468408563875763 0.05790869939132608
Ni 3.5065345278765045 4.120376045858975 3.543762375907551 -0.20291454681247637 0.6987628472100547 -1.833368560798333
Ni 6.4883798180845424 4.66366796159149 10.636664566852705 0.2658158143223874 1.3077481713446446 -1.0145318535221173
Ni 3.6076450032583804 3.2800879233114593 7.129552746800509 -0.05191802902552994 -0.07568324976592773 1.6563432230477928
Ni 6.089476547658223 6.110244071381111 6.329177443198575 0.25700618645055734 3.3468342956218877 -1.1842915108491798
P 1.4073933405272592 6.873534912833299 13.74348049282099 -2.235709952985001 -0.45840892460419763 -2.553618117127254
P 0.19831298262636726 1.8263706343355386 -0.10478883867665638 -0.3657738774752798 0.748438102947995 -0.33527776576895163
P 5.417249798270703 6.104536751007808 8.50857723757075 2.4194309575881623 2.720288851116347 -0.537742626638519
P 8.218991175614814 8.680028327937679 13.195650835668518 -1.5008827559522215 -0.385823082816671 -0.21928321797848685
P 2.948641618479612 9.043722398622622 12.585466126240501 -0.08922576433705279 0.17636867800314787 -0.17096627604065393
P 9.11625878563307 3.8020312744949054 7.9161695659360305 1.5904332506185446 1.3472400587916797 0.07858602523501951
P 5.301866336142456 6.844108006475055 1.1868208712823884 0.2713506280976875 0.6517479119130969 1.1862810304753828
P 4.127901461720653 5.222966614922694 5.142839210666967 0.050996288542208945 0.7254195305656345 1.7494644657845095
Ni 0.828752587822559 7.206162042569968 10.405750508064418 -0.5750537043841515 -0.5376138143701387 1.541214879912365
Ni 3.3333843616743035 6.138134031037842 0.15297118060647735 2.0647120523754636 -0.24823975311183702 -0.12518289915795214
Ni 2.1699250802549184 8.450601546231896 4.111152491324648 -1.0990859234151136 -1.2123594727299893 1.1507054473636182
Ni 5.798300120731271 7.231596636154768 11.116681136614012 1.1580053234591412 -0.3406603702371036 -1.8594446890600944
Ni 8.539510164263952 1.7063763321027514 7.039601066769195 -0.7419031300429546 -1.9942784810442495 1.2963748965106963
Ni 7.555114545197102 7.682371857757162 5.4789853860525275 0.7134366471721454 0.7127349931194306 -1.6577390749540548
Ni 4.946278722145373 8.506184661394553 7.299853938629173 -2.001752163713475 0.6319481035783504 -1.196143010871127
Ni 6.238466661442732 6.03461504771518 13.035471937329516 0.3329925692792007 -0.8596264875990679 1.0060685532461124
Ni 0.693391630062507 0.38477648104911566 2.4797191798478853 -0.3800476137854745 0.05231397891236797 0.013356366702247966
Ni 1.4586748792509245 3.5670002603043347 4.718675658903702 -0.47574998698580645 -3.3592838342391502 0.009671204541176892
Ni 5.052749767730089 9.131937516313752 2.9551680189853062 -0.0879857212823646 -4.541686355595733 1.0604841518825157
Ni 2.4471846422321915 8.281415577924452 6.688777987546804 1.0509798119365061 1.0226421413340774 -1.5557544682894369
Ni 1.4059219952093471 2.567253917474808 7.1644189450219145 0.10365428105755697 -1.1316782555288378 -0.4153899978405104
Ni 4.268663287676327 0.9353473388734936 8.947101869366934 1.169803858755966 0.34530506809796657 -0.5938646664430676
Ni 1.7632433600587458 4.750233673066362 6.730105922052925 -0.9006954897252358 1.3532744379112178 1.3882861780997122
Ni 0.20409059019638548 9.097112553247754 6.323636000609522 0.12210374601199617 0.41134513834717545 -0.20664958837487635
Ni 7.02116614081464 8.091480829146578 7.6127509836664755 2.0766568834421655 -0.3142140031201169 1.8967796780651267
Ni 9.217125598732999 5.166652512914196 3.129749232512635 2.094935884257011 -0.5903029172337382 -0.6646098554774297
Ni 0.5747946373004251 3.89043382471061 12.469947712694562 -1.0837431224104561 -0.7920221581865328 -0.8457193905996725
Ni 3.744667550348788 6.508828706515652 2.839950434641308 0.3114613800756442 1.0652381216277331 0.77635694084545
Ni 3.005002578619254 3.455946489493766 11.338597497060084 0.8964997064763336 0.1565624419104981 1.1240294807343285
Ni 7.98317294482103 7.983482208486579 10.596984164237595 0.048279146721362014 0.49615503300471975 -0.33649261201265923
Ni 4.226275422243737 4.872983233410398 9.598737281604668 -1.4124424636309418 -1.311054352899742 0.2930803064652952
Ni 2.0005423077966715 2.64214258266867 2.6139471079968826 -1.75464395310292 0.9770338565766591 -1.1337271676380667
P 7.7297641715959005 4.6475300212256 13.975148967520688 1.7810602383129195 3.6561729729275743 -1.3673723107651805
P 8.326193208045371 5.811542228592481 10.476361963047484 0.3398874966268211 -0.33908916909524184 -1.4788628000377047
P 9.322462677544037 2.677408012167418 3.0605229038861785 -1.2828555218680229 -0.6379380026131982 1.2490298315678297
P 8.065184045948735 5.60173026058345 4.733584979071005 -0.8229574143128084 0.5875927173914267 1.9208441752134984
P 2.1318762777662337 5.148330983637008 2.2081088341612967 -0.9074418073101339 0.28704052802911856 0.005788581657319063
P 1.9209303429835252 1.0183302776411176 5.4864470748558505 0.4436248243164876 -0.48643086373842026 0.383655642851707
P 4.862374552519464 9.19911333312136 10.71931949870232 0.3757854960750109 -0.5383879735320019 0.7099494599544934
P 5.478015422737854 1.6283294288698047 2.4270618863938407 0.84206353901464 1.9992476521240667 -0.3985094200350879
