# total energy = -340863.5848553896 ev
CRYSTAL
PRIMVEC
9.35962084255321 0.00000000000000 0.00000000000000

0.00000000000000 9.35962084255321 0.00000000000000

0.00000000000000 0.00000000000000 13.69875118805244

PRIMCOORD
 96 1
Ni 1.833465475275551 7.357869328416791 12.576357720035086 -2.187220490025046 -0.6249385050297366 0.3750483607986702
Ni 8.827797772766074 1.564535491248248 10.832314997705458 -1.50168776835202 -0.8485558316072033 -0.46201412545695275
Ni 7.191024728295999 8.254184053311185 10.139199511986561 -0.09543703535408725 0.4291088900884996 0.43758607432157537
Ni 4.735266145860622 9.056500106657666 1.9002632168968943 -2.273504655235272 -1.040610295776724 1.1594415416850354
Ni 2.3669919389065104 4.881978201671988 12.59612523913388 0.09063858552417937 -0.4062980628415712 -0.48423025654267576
Ni 3.618990972888211 9.082744483339967 5.61006310256935 -0.8793969853577758 0.5558100256631912 0.17959207003645197
Ni 3.2300706503918994 6.160305848923058 5.175114036974529 -0.5065646583738179 -1.1582642335474826 -0.9236143033049383
Ni 5.288522690107234 1.9215207876247267 1.855057184465423 -1.1039365666391954 0.07834357020691024 -0.2488151659993328
Ni 4.912640319365004 5.443461852588979 12.24866990864111 -1.8975234982096867 -1.016592849816204 -2.7816091472923836
Ni 7.875662269507469 1.6788258206589395 13.143472118816582 0.4104329109455512 -2.0491851603844577 0.6642858964791075
Ni 8.850897316864476 7.096370883293107 2.227581323269846 1.6320457839530087 -0.21777320909186365 -0.47967606151309
Ni 2.5895262827005157 2.453577790792376 7.021404064650254 0.1764645801510638 -0.8921524852512313 -0.3529636130844889
Ni 7.163179856459393 3.694597989592786 12.638823829156939 0.03414579264377345 2.7999226008895906 -0.632325541522427
Ni -0.0009209866852847462 5.6067029987073855 12.438383806188982 -0.6191321827606048 -0.6204850972440733 -0.6347336367432875
Ni 1.7616865434722102 1.7430234596260947 11.439484829600213 2.348798125761949 -1.3636910052588513 1.4567189169508137
Ni 5.298808913350404 2.087747652773681 6.396111199028702 -2.2255345551138963 0.6749292351255667 -1.3178400083630077
Ni 8.97318076242591 9.409601160408197 1.1227276955418757 -0.7654783462597333 0.5086665352081691 0.3667943483199941
Ni 8.805727786954067 8.662001450173248 5.223744754651383 -0.4335833809200855 0.5042185267391446 0.1760820000006645
Ni 1.6990613207970047 7.991234866965762 1.3023032518549873 -0.7296561943548014 0.6444490642588385 -0.4179420748384028
Ni 5.444622445566369 0.5964043960673711 4.316846170572843 0.8945119866223433 -0.18677213272465898 -0.3292762967698781
Ni 6.610690801117184 0.4702376438420677 6.769388787306351 2.3945874161819214 -1.844347942627972 -0.6464565816071706
Ni 1.4833127020724246 0.7522018357751383 8.977476828366415 -0.17484169983566017 0.34325949842284753 0.4484785528643631
Ni 1.0600800097767848 3.0260121980283015 9.925402374195741 0.508238446531815 1.956055947227941 -1.990884624871352
Ni 1.8320802513993097 7.742708856250662 8.665898796268294 0.31321152999753155 -0.6100795856400332 0.7156202850870256
P 5.371130703159299 7.527624770601847 11.71767896628092 0.5307883068078729 1.7013293008401795 1.7366917394998738
P 6.38207270381266 3.677947224215534 8.726570666085584 1.9635743670921733 -0.05117575154286671 -0.009518995234028767
P 6.585363667271854 0.6689994868031999 11.288072372230411 0.17664815691677965 0.8112712362241319 0.3798614659165974
P 5.884721174517327 5.2650300419358445 0.21240723410418727 -0.3509239569466408 -0.7288846062960995 3.290675489042133
P 0.21353413244675112 3.6266565023114654 6.618565050083954 0.14218868968732934 -2.007448185656988 0.45161247050765446
P 2.523044896261719 5.53807825910873 2.364213067495321 -0.577209831495206 0.868066390836305 0.17334300380294662
P 8.461443495983396 0.2276821352259831 8.886284171129969 0.36512827347148086 -0.6741483910954841 -0.8658904662309087
P 3.6625132095403865 0.6509597537013926 7.841329308542414 -0.0614899889846812 0.8719379579765693 -0.14564708054957498
Ni 5.930386764329361 7.635091936459971 0.5550788624135322 1.011920126930883 0.17102798251652482 -2.612779457978758
Ni 1.5405187043128754 7.404704870827003 6.108300051990984 0.8500020771354263 4.188591616250019 0.60797385215094
Ni 1.9893686786981932 7.924107666692772 3.6143748079168443 0.1197144198442132 -0.5040370068559578 0.9377620555602301
Ni 6.589528698521364 7.644030374310041 7.9012205859861995 0.16993269256981702 0.008881875870662123 -0.3041105961375279
Ni 1.5073107697662262 1.831209806666266 13.871903325683004 -1.3066706220097497 0.2659140304631485 1.4991097232121988
Ni 8.168337611467367 3.737652245205691 10.09267845283474 0.5000700517884097 -1.6181389440639293 -0.13890307695752208
Ni 3.1277980740696796 0.38945475684315867 13.215609524096005 0.6064584439476781 -1.0944571663938505 0.023946483513268436
Ni 7.900933245628087 5.449919990930915 0.6781457082347064 -2.4559218534253446 3.556131606032256 0.3300021191923091
Ni 7.1875803878469675 8.284378189964931 2.7570653666835847 -2.3470585173630223 1.0836994136567142 0.8039443635454154
Ni 0.30760861692302666 0.04679716796499189 12.518288760758221 0.20349818723008822 -1.1941282944339435 -0.06546542869266145
Ni 3.141013858618684 4.692445880767353 9.587043659144316 -0.20607571814927733 0.2510419984473225 1.1207747212424568
Ni 4.5288490690591 3.0825255883306317 8.330922648168718 -2.131698802808658 -1.030844731749528 0.9897644167694504
Ni 3.7241182335499823 3.2291066094510015 13.803683857664357 -0.35235323319399964 -0.4830218380568714 -0.9958579312616979
Ni 4.233936777731487 4.315655626808938 2.0194701551061636 0.6280688231286021 0.05617834696378066 0.2942650708020158
Ni 0.15836759157544197 2.6323839862769267 4.195667160264086 0.2890621864448376 -0.9772295175272332 1.7843347952991335
Ni 4.99493946493115 7.14312218911625 6.203259956593559 2.4845888823427336 1.5816670743901406 0.03425763563128938
Ni 7.555095257607036 5.525339815219781 8.72439174636674 -0.4936122119782079 0.9529647314425974 -0.6741867005325872
Ni 2.606064732628342 4.711530147548812 7.129926059770895 1.293976057261217 0.6626817852167812 0.41120732721773057
Ni 6.315525800028365 1.238099997115361 9.021408080446914 0.38985431546325117 -1.1321045444329791 -0.7780680099992857
Ni 5.876849733436792 2.6721342957525804 10.711382145423359 -0.9862905992882368 1.7821354736549695 0.0642130443427991
Ni 0.16054183148389367 4.255725974919931 0.7375390538527086 3.587125226200293 -3.2371772600136763 -0.10488378258928388
Ni 1.9202291599563397 3.2891672960310037 2.3388288399631993 0.8811160249314116 0.12068064041222443 -0.8640557270150151
Ni 3.377250687242536 6.87381782025753 0.2849274478737327 2.44134061317706 -1.3883759096000412 1.3297467871029227
Ni 8.237430332105294 4.571472782115875 4.705643882036865 -0.7949128494707665 -0.8986668893309813 -0.29666570982370843
P 3.388828538154093 6.891189276435259 7.502641134839341 -0.5422579980103693 -0.6019495003337311 0.24286691883569786
P 3.217968660716359 1.612999607675122 1.5897671569615672 0.16418679122497531 -0.6842985921556085 0.009414608445680562
P 1.3749563722396858 5.727872649395357 10.74958811746942 1.0919408277299 -0.6572115061308295 -0.7356329807635266
P 1.9604006523673367 8.751816371230081 11.081549531714016 0.4578435390190309 2.523440565102609 -1.5982740868192022
P 9.281018690058179 2.535156245558045 2.1306493465677834 -0.9878085785946601 -0.1649828047637094 -1.6441605649386715
P 1.3498913077763466 0.4472026811270851 4.719794692702333 1.1341501141080983 -0.7801524033321403 0.8207676057503412
P 4.077902539617849 3.655633888263107 5.376280366515434 0.10807375028149131 1.2827220816139522 0.3930725652902327
P 3.738129585865747 3.276728360007189 11.453868694823237 -0.17934010192664596 -0.4618829991957271 -0.05823137283806746
Ni 0.5593112829326965 5.073560279528629 8.784598443030994 0.48460589471453963 0.5785223796590423 -0.47765800264179675
Ni 0.7315161378772947 5.519022071189627 6.117711150690718 -2.385237342425589 -0.9030997282913544 -1.0882263549927904
Ni 2.114759518360386 4.1299326715639655 4.482285891613743 -0.2461892983407115 0.6848256683036722 1.0570702411049602
Ni 7.529384379309504 7.2166607296272485 12.5003978456269 -0.40976056746887496 -0.26995246219858027 -1.737420133025466
Ni 5.499516621472823 1.983752906226945 12.850976481575763 -0.5088208013978462 -1.2598904284314172 0.7898287500796397
Ni 3.4827523327357235 7.131974880760821 10.810026932729153 -1.4747068688878022 -0.15023958501626386 0.1256896635910416
Ni 1.3468119925379454 0.8565587996462698 2.715667763949698 0.3988354359159389 0.15321255160165873 -1.4482450751518476
Ni 6.9233770123162985 3.8353198881014867 6.5991400931059045 0.5780469826845206 0.15025681140744446 -0.04715686019146072
Ni 9.48606926222503 7.481172972643836 10.62784752991354 -0.09493772712016553 0.37862193708254144 -0.5728312428115361
Ni 8.996448779698449 7.356053561984421 7.804384077416148 -0.3313473203662939 0.8802120250599035 0.11493705306022786
Ni 0.786504845953681 1.0593967574594496 6.622208750455715 -0.9210198031048848 -0.12660626186804003 0.21267496863334986
Ni 5.820794964552948 3.297375683459812 3.6051827243434893 0.6081546007031784 -0.6766984112108475 1.2716383129959647
Ni 3.8422366478619074 0.8651921138587357 10.066623140492304 -0.4939639388906718 1.4368859413852868 0.8976471898172154
Ni 5.608032064858914 5.303011383083055 4.6872194685207775 -0.3077901018716441 0.5477714716294309 -0.04891240942998673
Ni 4.577154071932622 8.351758099999127 9.039970080388546 -0.1093850128937471 -0.2882720864433745 -1.6715867794704242
Ni 3.2793209749647483 2.02533770137654 4.271695359904005 0.019542955128934086 -1.3491573304190505 -0.7221565435436466
Ni 5.508024516766765 6.40862594798088 9.972197670236575 1.3295500977110843 -1.6792211560872305 -1.2116099961584745
Ni 8.617805320824523 2.3354500168596646 8.147442258063931 -0.1180066931244871 0.12105936390788184 0.016573588087965004
Ni 5.099514507966583 6.496831014262622 2.204580991151769 0.004540053962198632 -0.7881757878572491 1.8047053885356856
Ni 5.081515957196231 5.411236678224798 7.760288096009827 0.07298024901246786 -0.40900543447040527 0.24231001789096332
Ni 0.3532433199864702 5.119899762037213 3.0056840376444605 1.0050704509989012 -0.744435152436189 -0.1792197742986978
Ni 7.448264545962321 6.305323813372264 5.940217174040281 0.15013699800012853 1.2563361354212557 1.1294601648315967
Ni 7.544518886119518 1.378222879893795 2.8515591621710468 0.31169226513952775 0.053150872991366525 1.1870562180785103
Ni 7.020492437585755 3.2553697053748736 1.4252587181888152 1.0223400367126263 1.2452947900054296 -0.8744118734383585
P 9.137676097729564 6.7794541234989865 4.35375115532973 0.12772340619161873 -0.538364319382918 1.3909477840922755
P 7.266669183483716 5.286875396849002 10.985001299464153 -0.8041279403111312 2.2787093393646627 1.3802244841375004
P 7.0931043756389975 5.082002657477072 2.7146400775874597 -0.48632724828102053 -0.19566326456670174 1.325401879870666
P 7.327525437830478 2.1413969991156745 5.047989795542877 -0.8689004567018261 -0.4726867746794504 0.08594477959293585
P 0.31496621482244064 3.0529585462695086 12.584316205588923 -0.9032010297559091 0.46428800909279394 -1.2189605229862748
P 6.601078470570564 0.369254823264078 1.1426908307150851 1.2930147217892118 -0.2377470811106293 -1.2452138002558488
P 9.116485916271385 7.456201504388351 0.12609655506941275 1.8637721127908546 0.29926663778166523 -0.1643505704963492
P 4.615135413079832 7.429432988942067 4.093310347354797 -0.03348759023448426 1.5757357965073702 -0.4386937055634574
