# total energy = -340887.4564481517 ev
CRYSTAL
PRIMVEC
9.08466488801575 0.00000000000000 0.00000000000000

0.00000000000000 9.08466488801575 0.00000000000000

0.00000000000000 0.00000000000000 13.29632535561327

PRIMCOORD
 96 1
Ni 6.2526024967906135 2.1302176890675564 11.270244708555941 0.980130750334428 0.01781080292917578 -0.5536047904817563
Ni 5.119472222541104 0.3298233077187972 5.673396048220191 -1.3313475559311394 -0.04327166620444161 0.7293008678979117
Ni 2.6384683611044606 1.265711876289094 4.563312660788156 0.7688050966401211 1.437798425897227 0.19049303321967193
Ni 3.395393570117488 4.236542708999569 4.475356750508119 0.010448449026833619 -0.14648346040794125 1.4995789495391336
Ni 3.603904802816716 2.7079206255688035 2.5182046564340332 0.31613101763717166 -1.207443523485611 0.39514795976202266
Ni 5.208465601572197 4.211677980701479 2.8709422148602743 -0.17927531012698159 1.3020616624828287 -0.23133680670891124
Ni 5.225263147287641 4.724879795201831 11.725949677824792 0.06697672313086529 0.4340325526423621 -2.4924137777037916
Ni 5.989801305629788 7.999783452488635 12.181601956036236 -0.37580735045188185 0.6707874450430512 0.6790098329528435
Ni 1.997091007123739 6.331175764985788 0.39687449520499424 -0.8344024229249565 2.1599601116471963 -0.9141986664179933
Ni 3.0153456915561634 1.9337254682566634 0.04470472834566193 -1.133637179027422 -1.5395706594407228 1.3434188852733766
Ni 8.401134870640396 0.09155797998050857 6.558067092055749 0.28634453040335844 0.36917416140608034 -0.009000403726397403
Ni 8.714056158995438 2.5409899048974753 1.099612402471721 -0.5523495779184164 0.18016748292394777 1.8090017019181943
Ni 7.074083335794959 0.7722755675827331 4.553632950155486 0.41842364246051167 -0.10113331440791615 -0.7063851396420029
Ni 0.7117971352750779 7.547630587262368 2.177765009113793 0.5020824542327482 -0.38576574721617435 0.9763689692991507
Ni 7.6692469985618 3.9296536382513727 3.5136068658814925 0.6638454665075793 -0.4458298023876064 -0.24345338746678716
Ni 7.875904959586636 4.155107771307174 12.382283115911157 -1.0327373207865505 -0.5560727924062746 0.3292819531968329
Ni 8.900909550166478 7.191693409798279 9.159626275911586 -1.5016412313848009 -0.11691114606746317 1.6301308263184828
Ni 6.578133300263577 0.941970751835029 13.50068987348083 0.856475600674912 -0.6422389439813972 -0.6345300053729136
Ni 2.0572224052256995 6.734516724787999 9.399158914427217 1.4340592705697688 0.10596081770354654 -1.0841179892513717
Ni 0.034406352021688194 5.088538937975887 1.2901305475322211 -0.3200272673677843 -0.7069623523017116 -0.3254844338276136
Ni 6.828924564201138 2.0178858054702244 6.859069299838232 -1.395677585467777 -1.0389521913480109 0.6364447058971232
Ni 3.562842116697837 4.743130887328563 0.33013218633119584 0.9493698150024874 -1.6107511362402904 -0.331391543340668
Ni 6.293065595014837 5.6025947109928715 4.522971297075879 0.112154090998452 0.8271511406791819 1.5445809681711204
Ni 5.287147885748217 2.9904809632580722 8.75056470251445 1.1845187963686374 1.302374565737557 0.6496617188080295
P 9.48629811331741 5.891414382915748 12.242844408676323 -1.074787455879065 -1.2818209099559215 0.8066838739637655
P 4.351118504869327 6.558201545098794 12.41626884794008 -1.3655627683602676 -0.7040868305261293 0.2948086020103116
P 2.4629253779462528 8.38594531064244 1.2435398427179134 0.28001087487584675 0.04365758878895062 0.3774981078907434
P 6.716183870675631 7.861187802172348 5.706756755292259 -0.9480636945965544 -0.1417019798588979 -0.7663882596685123
P 4.762344953952773 1.1703955703688995 12.4192204556215 -0.6570047894366621 -1.9171857525253049 -0.8793121389534534
P 3.969071999992482 6.4193696934906725 8.24350957240083 0.8478086690285334 0.5741687306760369 -0.07797718800642699
P 4.711416321567278 0.9435333142271632 3.5106952307263817 0.13037447066122063 0.3929728064875748 0.7434807589427196
P 0.21476239073427272 5.562395068055695 3.457164750264682 1.5560036081857653 -0.3213375015387756 0.04322255813406105
Ni 0.588464630743819 9.017002485103017 4.307690171966078 -0.33143268099124856 0.3325894203035111 -0.33152935447011295
Ni 2.299655777298356 6.424993101169341 4.72802672318227 -1.6769081916833377 -0.2866324939574225 -0.2867445940552546
Ni 6.250431261838753 5.811560176945628 9.050595759600892 -0.004249776415289456 -0.43843042459974174 -0.39999526055199497
Ni 8.59168572049515 2.704568384157771 10.297086301533719 -0.37036483928007186 -1.3327575489047885 0.2541286077924462
Ni 2.487781021579273 5.282033219313499 7.183352778797009 -0.9043032616811523 -0.26591505890441297 -0.8431757982422124
Ni 0.3125424578215999 0.22558404376631003 9.42144359784527 1.6212476648962402 1.2411355164214173 -0.8949367328645876
Ni 1.425720082176664 1.4365035796154049 11.365938028076563 0.5307402271787569 0.12278251724657564 -0.29450392628569927
Ni 4.275070773563766 6.822819669273729 1.4570649020695774 -0.5113186281190355 -0.6786534780546892 0.07806074885916879
Ni 5.638897032614783 7.961636943857402 7.955151401463538 0.021531446313872594 0.7099867409503321 -0.3572740675343847
Ni 5.255324304006086 2.6687112111243163 4.861868368267139 0.07967360187224343 0.24930778936503514 -0.29306590828759205
Ni 1.1033961654736046 7.660543889424215 7.018172673084776 -0.09577513541979635 -1.2774073542692579 0.27930793527155123
Ni 5.121452679526484 5.013908414421331 6.9025085343395665 0.09833286884464355 -0.288870896369638 0.19080542225376815
Ni 0.8645039958454481 7.7167143735554165 11.245779705520954 0.36890573823604206 -0.04757646422738258 1.0877504437976362
Ni 4.653901307005636 0.3629459965660169 10.074652819613876 -0.04535374554445092 0.586973338639873 0.2816692364148762
Ni 8.638108359005653 6.907525086391523 4.943055294603109 -0.7433524608949714 1.52458884131991 -0.8204963543668257
Ni 7.863976794349006 6.8764464471851765 7.200784434134377 -1.9305426334481846 -0.4394179853239917 -0.6779860196740195
Ni 2.423198137592744 5.1677572173910695 2.4010106600909435 -0.16594876822140453 0.4578620509617921 0.8691454828330968
Ni 2.394336156663612 5.490135642084552 11.411052474816907 0.6659028632572402 -0.14807317349256435 0.14056606648224176
Ni 1.2123576383297627 3.411228141335454 3.5887979132709007 -1.0136720766249832 -0.42880498569483566 0.5788435104438869
Ni 1.6246924165518164 1.2243403115578162 2.2328389741709787 -0.5967399311083336 -0.7994099660101717 0.23238710235029655
Ni 1.1057490937268768 3.3590639945003646 8.40331791565685 -0.5500682380834075 0.22282028459746786 -2.0893064538853756
Ni 3.682196446394703 2.95831216424326 6.891139984470282 0.37729910450605986 -0.09444458953383089 -0.42135444295406144
Ni 4.3234284457342955 7.130081211289819 5.768384397731339 0.48900505222349977 -0.2598773373507653 0.19518555359933482
Ni 0.8500630122493043 -0.005935920157096366 0.06436576049134292 -0.6564507167054049 0.27913901379385475 -0.27666484122174934
P 0.19315542333048025 5.534568738944605 7.995825263917398 2.4079481537595435 -1.0788860514284708 -0.26031108245407425
P 8.654024692209253 1.6988687068528447 8.093047532569393 0.7650836819244758 1.0573363502821533 -0.9122970785199063
P 1.8728127889586361 3.5161105995749358 10.349261349966893 -0.045918102688353175 -1.007075397244072 1.5655537137680458
P 4.343269354248373 6.143086859365153 3.61153501300947 -1.1039044278496797 -0.5735961460020186 0.6617106795527636
P 6.646095679656351 3.99968732128023 10.25541585132162 1.1712673306753698 0.4693165726556369 -0.10315034483794493
P 6.869006106492398 7.933874207401807 9.863773214730756 -0.6597664113421992 0.26530622167582046 -0.597734690921435
P 2.3978519220459136 8.47659209871637 5.538026362470455 0.4785118660016598 -0.0970167211363813 0.4054840515807081
P 6.722933776823049 3.9864873029327237 1.4648695378316856 1.6655164049066282 -0.0945363779166888 -1.3631937539074588
Ni 5.257813502235416 3.0474963212408346 -0.013610645208695708 0.7587310002335708 0.6766197354541121 2.4596250133085444
Ni 1.733045216848248 1.025604178474498 7.135420268951781 -2.322022400330001 2.4558722311343315 -1.166374778469759
Ni 6.937976883708002 1.0937664204988233 9.186670415360101 -0.770870206699266 -1.2849841381752514 -0.12161729329388087
Ni 3.1385973425682945 1.9847722012880753 9.021969071497086 -1.0849597684263768 -0.9149340019221212 1.0670828881459558
Ni 6.234996415883891 1.9929756538467804 2.260934209368157 0.5131173718906712 -0.052680875333483465 0.9667093347221997
Ni 4.849594077290321 7.099729345289116 10.314996718720307 -2.0400705996776995 -0.6801182355256739 -0.07725907889347984
Ni 8.213918092866534 7.244820531130847 0.16543447633420866 0.19083601838138747 0.338735642410565 -0.7162671746424051
Ni 7.626957882658397 4.1390551681275145 8.17672184020168 0.17871300986560834 -1.2269620531345127 -0.9444515517652639
Ni 3.174318245625691 8.481979305103208 12.288796461536172 0.7993035223392945 0.26901632353755606 0.5537731977388205
Ni 0.11565051174760309 4.915594169027856 10.207110870208501 0.7013650607195921 0.6992122760426474 -0.2859115566309979
Ni 8.561270261838954 2.7462942508268005 5.6171129142421155 1.9439918169745551 -1.3462365572278299 -0.750303695401824
Ni 3.719897806437479 2.974346598092778 11.474343519430404 -0.6061218865438658 0.12471984347860457 -2.0727711752345144
Ni 1.1031599641817702 3.6325214977889435 12.698004298040944 0.6720843094776038 0.038018131114986135 -0.8975823980175509
Ni 3.1719562327073483 8.653761236922207 7.782046742410266 2.0985809372087667 -1.3684184926415077 1.076141141693482
Ni 5.8196182748632035 7.811076789643203 3.4850737498279143 -0.08311810877741815 1.1545590167817534 0.4033495217362085
Ni 3.3612352294522254 8.191260938180585 3.3478816802650266 -1.3610659089311785 0.14592733079415515 1.0288557263439573
Ni 3.4903646587650012 4.495492002170483 9.371715958182104 0.9635808163955469 0.6135307774134272 -0.4568775755613358
Ni 7.481775850165962 6.265248350568818 11.19094557562163 -0.4084878714040384 0.35440188819291224 0.3561427821434189
Ni 7.909518220347666 -0.015910882404558575 1.8891288474253412 1.167544373297828 0.7235117720199604 1.372711463589907
Ni 4.516123276545699 0.03661755949985969 1.5425198040556916 0.8208802200688058 2.3090077332378875 -1.613699420235337
Ni 6.086216856023519 5.680468459977613 0.28611698406438857 1.3706589519362524 0.72544241338377 0.9888928127977742
Ni 8.029263190642565 9.107285886574129 11.256575921490795 -0.5561550677074356 0.32127682350416925 1.1980553974024917
Ni 0.26312097137130924 4.954839922132625 5.871111973416087 0.7648401984551022 -0.7764140193356307 0.27217081000613774
Ni 7.57500268311993 6.571238039475031 2.470138602012268 -0.07120901604465801 -1.0380762165009605 0.44704721973447525
P 8.49828627890484 1.779822157296502 3.3432548603445964 1.0418835060621927 -0.27279713073622697 -0.39784504697821155
P 1.9399484638299893 3.232323832101143 1.365359750514926 -1.1806004351508377 1.1765589180916125 -0.02665719757621216
P 4.922471260486261 1.2156372024202307 7.69579329836445 -0.39487567993724254 -1.4372314976501634 0.9344155076855003
P 8.554102461098292 1.6513831625290878 12.532199167371855 -0.22783933507861404 0.6835853681386679 -1.1620216437073858
P 6.321536935345936 7.779362223881918 1.1778658904564114 -0.2658808632323679 0.5430301002897034 -0.34398866327938826
P 1.8343664863800748 3.138297548620966 5.9486568575252745 -0.9959728595730074 0.29752265850736503 -0.9864677482960493
P 6.771900121553306 3.920823343802799 5.942739106698319 0.1977988228524658 1.2735537848511227 -0.6779142858958195
P 2.4728549168683625 8.815050380584726 10.241561737089034 0.18880253289112647 0.6824288859367216 -1.4523598686511698
