# total energy = -381177.02890285803 ev
CRYSTAL
PRIMVEC
9.11615607343029 0.00000000000000 0.00000000000000

0.00000000000000 9.11615607343029 0.00000000000000

0.00000000000000 0.00000000000000 13.34241588865090

PRIMCOORD
 96 1
Ni 1.4088289615495735 6.389759790426278 10.068159681742051 -0.12492887416561708 0.6216269241580005 1.8324185381802378
Ni 5.702109920309368 4.601270285065604 13.240012167209786 -0.7590870980214088 -0.4422225446523223 -1.4198914637098192
Ni 2.4794211915933175 8.98504732321678 10.61733423247113 0.1082465284139297 -0.9429338295691566 -0.46232857137357797
Ni 1.3933953096497442 4.210278359499342 9.062582052182183 -0.289696734705043 -0.7413647410409813 -0.8701075896360498
Ni 8.06866398598905 7.114038374857135 2.0404819325761747 -1.1864471237396017 -1.8578009828090842 -1.2454865943012614
Ni 6.42372658722413 1.9162706622891488 11.128815301879822 0.689748045305954 0.18331682718620687 0.09102142278489485
Ni 5.948546962133401 5.910778728334822 9.164344788621996 -0.44476767967167913 0.3003133338786247 0.911476896611456
Ni 4.241692632651623 8.434969361440286 1.4740696426992006 -0.09279034175985955 0.8948038068311492 0.8939291175356797
Ni 7.517701757092484 4.56912671944316 1.3225418113266232 2.531566536643853 1.4305193757373105 -1.3350476304905459
Ni 6.792848854841372 8.848596702049239 12.128709008250354 -1.0302448933819999 0.46329247794874406 1.0580986823694745
Ni 8.279393045242715 5.460595602658938 9.767875330383516 0.28481241002954816 -0.8212437740558114 1.108822433976587
Ni 3.360187707809451 7.110537771000352 3.1409514518913313 -0.43628098235690665 -0.029801142521832545 0.6849400823943493
Ni 5.710879662263082 2.1052576897760726 4.605628719190417 0.020804081229544816 0.6578738223051767 0.1702689928633132
Ni 0.4301239362840451 6.615895153112141 3.827085305285889 -0.523016376171938 0.5166426114351103 0.5683364402649761
Ni 5.428570547062895 1.6954955992589849 8.909705029739802 0.312400604060462 -0.5234331519943825 0.17972885272463243
Ni 0.574538431225768 3.254759365091479 0.1776301204953071 -0.2962898145415285 -0.0055404702022549745 -0.6762029596316678
Ni 1.5554532126758909 2.4396382873459137 6.727085817959991 -1.267085917738592 -0.9254156181797353 -0.6421602682246618
Ni 1.6621487010607712 1.564505555461792 11.884916563246252 -0.7981964053180447 0.9878893112339243 0.7946110019596315
Ni 4.966025914017743 7.190996962771111 13.124427515229204 1.174628790948435 -0.09937776516939013 -1.8940463382943638
Ni 2.29066206800332 7.473123754853757 8.226866666694796 0.9271783665071129 -0.3100727272582337 -0.5552466969605534
Ni 4.743892543761901 3.780014034414791 6.126036693828201 -0.12419945219876029 0.560844245652989 -0.178258438826693
Ni 7.978678411326784 1.2169521126496277 8.791971699819003 -1.5273535485492407 -0.17510343813747908 -0.5694805811717483
Ni 4.351478497878821 5.887149652301534 7.385841120409033 2.4456803782029946 1.7211913298714294 0.03768671591749639
Ni 6.763294277488007 8.157090697996342 9.813426938069911 0.11874074307703421 0.3380830964282307 -0.5154329073977252
P 8.204230340036517 5.91842718311566 5.676890986691124 0.2365854567023603 -0.037350158513684055 -0.708185168965219
Ni 7.504228078706218 6.544014264021679 -0.0434886216114211 -1.6030419405214908 -0.5239527719432783 -0.39176464511208653
P 2.0015796489864925 0.39950732677100503 0.3565747906680834 -0.45739179619359294 -0.7133736551446941 1.0314461127789525
Ni 1.6837266420217258 7.690863137976865 12.54802118366423 1.2015652103279628 -0.6035662100015476 -0.6391585052838605
P 8.435826280092728 2.0254822096960923 12.132325387286777 0.18794095622177956 -1.0867687966106574 0.9306804661231004
P 7.0662788342173215 0.4012366615408796 6.84441894863779 -0.037629380316999715 1.328567164972525 -0.08370586296008811
P 3.5024817848941736 2.148860263335957 5.431056522770564 -1.1503609195400057 -0.32687874307197895 -0.8578369997988129
Ni 2.017733477200608 5.002162355914332 3.469695530282398 0.9813607660867874 -0.296184913532548 0.3759963265342363
Ni 1.673124552736728 8.887185389876752 4.001604081780362 -0.639597392593492 -0.21936369350743512 -1.1487627218149508
Ni 1.815427745977328 2.485866313798385 3.8557310018983126 -0.08348140565410783 -0.6560946189175667 1.827138520728221
Ni 6.620626438012326 2.5328054004092664 7.153762935706927 -0.8911777800427877 -0.6696376477093241 -0.9766343071453955
Ni 0.6325873770039979 5.497124039258239 12.611117744951578 0.8867282289118664 0.4549672459125004 0.6659679121672207
Ni 7.7185944841548215 7.573911974230314 7.179233475227377 -0.36616879892085324 -1.235742113319988 0.7617836710169654
Ni 0.7710171156124437 1.5052961230404145 1.9920897307184935 -0.23549710873418794 -0.5686945949353431 -0.36637911515944643
Ni 0.07592481583751846 0.22226373128488447 10.604258018481103 -0.15331770972095532 0.5288047007189408 -0.5087395545379496
Ni 3.361819499711441 3.4124232809848922 12.976859741969612 0.37727982123235027 -0.6240658726167961 -0.8020792853122186
Ni 6.242014252127085 3.5949743024226253 2.7299386247879136 -0.9656940060838078 -0.6555498021576904 0.6369686967213933
Ni 6.413616770356493 -0.01763611515972231 4.797131805699404 0.4754622805420586 0.15477938186814635 1.0000426587670068
Ni 1.0392600022943568 7.90728979465368 1.77221990196692 1.9365921820763745 0.40435816550638104 -0.037760506578225286
Ni 5.145513907080792 8.022536237251225 7.556183785896233 0.9144748028975154 -1.1783291226181578 2.1071486242731194
Ni 6.018786943165996 7.675502415324052 3.2039805536251884 -1.2951603073773048 -0.461944705671598 -0.8799610853913619
Ni 2.622608651953991 4.871865139963794 7.112895208910155 -2.8978001273643708 -1.873737708643999 -0.7050810761185986
Ni 5.462209162249175 2.093288177109519 13.362962673139016 -1.2269080599681257 0.5393891611030066 -0.8124002076222525
Ni 1.5165089947691743 7.007844275045492 5.8706092990782315 0.8613704668733682 0.4910675911794833 -0.21955806890642834
Ni 5.867413174827742 1.2715396540413453 2.1825927749277696 -0.19119622993428362 -1.5074894626354618 1.1219258041277647
Ni 3.382686380513986 0.40742653138139 8.573529461077774 0.04223011231380469 -1.9692462206659698 0.6430616969930086
Ni 9.028768406803065 9.001109989872125 -0.125806597565508 -1.3106638023295427 1.5301735344965388 0.4813922728732483
Ni 7.307975474985293 5.5525958477700295 3.5648135007034374 0.37221706199746224 0.8648365710450976 0.8338439793183252
Ni 3.913456324142908 0.4360211775209025 12.614413235301127 0.29352922107725576 -0.46980662491817793 -1.1148539848826475
Ni 4.295313861520375 7.4558486394667645 10.27167239200345 0.43424672553569726 0.03687527575979455 0.18723518840400658
Ni 2.170483785076297 3.615038961507991 1.750911799219926 -0.9627089553135549 -0.13585220594634023 -0.823890210539723
Ni 0.457020242583665 5.9171509212928735 7.529418752241243 -1.1165401143358191 -0.40365728278461444 0.9489031597787142
P 4.063909360737583 4.412966969269458 1.3503059756657374 0.8041351393999828 -0.6406037223708194 0.7902342130481745
Ni 3.55085210797775 2.3264247475089492 10.386830407888988 -0.48851885661570066 -1.576613314016317 -0.31342827399402795
P 4.898721335177555 3.930868181868055 8.565777082119938 -0.2799046883152857 0.007698654195838354 -0.150537832982973
Ni 0.5728774676249712 9.128645010591919 7.726605761939565 0.3298895048738448 -0.30973616985442143 0.07972502393546914
P 0.9842804661999262 2.0479444177771198 8.89142622559075 0.3502996930990806 -0.6728106461206671 -0.5443372491369012
P 4.91453786562422 0.38801641228799566 10.574291390882095 -0.4077713049529881 0.015629736117456952 0.1677446837795627
P 0.6030455622688609 5.596663345279643 1.7248405050271778 -0.002488313639492489 0.12770283736632845 -1.163767936974531
Ni -0.0214731051683686 3.920767481156294 3.058748339501295 -0.21478738699066233 -0.7566440357975549 0.3550017265604402
Ni 8.533788491147403 7.3686981892822585 11.577814238907278 0.9912158045039962 -1.2028769871608511 -2.446103324673026
Ni 8.804802689215936 8.61656318651093 5.313817288498298 0.02886603230207287 -0.06660288473121433 0.31668200504463523
Ni 3.413334896572596 5.822789591809629 12.106440974289507 -0.6612692211399709 -0.7431400877738492 -1.3466319928940358
Ni 3.466263297594692 5.35201307000751 9.66826127188392 0.1829486452135107 -1.1285690204758951 -0.6968584310984901
Ni 6.665313834121577 5.088300912796486 7.090653611801352 0.5206471046088129 -0.19902086818502496 0.8060423837250247
Ni 8.59038158683207 3.379422796710006 7.6424691128880085 1.2816681864281412 0.8023299678704441 0.3709741907292966
Ni 4.941804287852448 3.9269482348409275 11.065265667645384 0.6587829643830073 1.181834307557939 -0.024797261549337937
Ni 2.4461745711097516 0.16115996167225824 6.127918268401223 -0.2645757712676992 0.8495948143946788 0.8853208070413784
Ni 3.416981358923412 1.6208616310936554 1.3121120173877012 0.1297563774612475 -0.14844521212000242 1.011862277109754
Ni 8.652489956822347 1.9173007879032544 5.387467623444495 0.00870961195885597 -0.3604846040518824 0.196281614876991
Ni 7.83302958887931 4.245238817287793 12.17566176909505 -0.8759319096273108 -0.05286059544445735 -0.603864715078573
Ni 8.601120418455224 2.9798069876840643 10.26282607434037 5.128708030975038 -1.3635130849200905 1.4656586426426048
Ni 8.162596856146074 8.952466182112238 3.0612306687466133 0.3542018563669642 3.0528361053280135 0.8487556063228351
Ni 7.512304992813276 2.2022991690871674 0.7513271305336241 1.6925615819498785 -0.21356379899620642 0.5479442497618693
Ni 0.654339436542204 4.261857569451637 5.74947381978412 -0.580342977807549 0.9582146669876273 -1.7239472953500115
Ni 3.4409295004123974 2.3614399022326613 7.767847251127296 1.333340160881136 2.957302396495062 0.14049356137309352
Ni 7.238100140187778 3.8083652791923868 5.220913632339792 0.42639149115733666 0.6993030359842408 -0.7662321937066223
Ni 4.788771379144571 0.7109042721436517 6.50113186677608 0.36268109748256894 1.859463458113172 -1.0085612377609792
Ni 6.917840468071472 3.6888889402678955 9.509859858980054 -4.943944958260608 0.7154374796522582 -2.3865290646538186
Ni 3.959556724413101 0.4802682633012934 3.8529022587296673 0.2357835296263552 0.3249938673444403 -0.22117709256709003
Ni 5.0759302892713425 5.340690804408226 4.129171009045726 -1.5458567495597506 -1.0203561735133782 -0.5263752653418419
Ni 3.9880355953729754 2.9995708136254877 3.1492234517341577 0.4692062723300177 0.7202048191339145 0.5346202789594535
Ni 5.439045010165614 5.927488642057438 1.725041060456473 0.3040915699741344 0.8784040253168871 1.3374320715623225
Ni 5.938892953059615 6.782383507894529 5.584788640634209 2.382910751174941 -0.03830995132379209 0.431214880687909
P 6.371864776439648 6.323175387900375 11.295808691697797 -0.14793587658375168 -0.069445496386332 0.7245281290996166
Ni 2.0133303739119977 3.8158769916350677 11.194272947539321 -1.0157991502703152 1.761749710909766 0.5470405070006772
P 8.74673277627919 7.303371816267387 9.062195527172996 1.3499782836584493 2.617945832671046 0.5145916424433524
Ni 2.8539128750221363 6.173314901437709 0.9701631872087415 -0.8485571171587837 0.13953711099709515 0.5885836205497864
P 7.787622016455772 2.186810820252076 3.3934434444488937 -0.13580772586164996 -1.075460827797006 -0.4675221997593755
P 6.554005570862914 8.534836849073264 1.0205317716605649 -0.3349100980168877 -0.07907453483566382 0.22531142645043778
P 3.07890871822337 5.64693894494152 5.093267394518297 1.1529942433977949 0.5398630154156315 1.2635899887701916
Ni 3.994307510616379 7.722888193572907 5.368547953537286 -1.0620347841990871 -0.4105331839688414 -0.2033943146623723
