# total energy = -340859.436331073 ev
CRYSTAL
PRIMVEC
9.31858229674325 0.00000000000000 0.00000000000000
0.00000000000000 9.31858229674325 0.00000000000000
0.00000000000000 0.00000000000000 13.63868712801724
PRIMCOORD
 96 1
Ni 6.59667081516943 3.4059510522107375 12.520287473871079 4.146645610835535 0.9753387282624233 -0.5092288354695423
Ni 8.08863171039339 7.20821207976893 9.20350872872358 -0.05191725769458156 1.2525908094462106 -1.2109919029585015
Ni 2.085228420453703 8.727793252143302 6.15972157171109 1.765746233663669 -1.9902220515866886 1.1620473547389987
Ni 3.5370355456907783 2.6862583245182283 5.79987893529765 0.48824554834965594 0.7957119483332942 0.8542037739215999
Ni 6.60404181355876 8.684294111206013 11.217819944319734 2.804418688987732 2.7332173862525573 4.8907344356759
Ni 5.436386210301276 0.733597915804467 5.306608182022479 -0.8846284089600441 1.5098299378431803 0.7721063930992123
Ni 8.026597909789377 3.9734247423688416 5.433325056102925 0.6530236933017269 0.35675573313706943 -0.5097206875042963
Ni 2.8875583336286175 0.9721331150085185 2.0403883355616426 -0.4953489921636566 0.8905853978744274 -0.7703796402160926
Ni 2.6530562167291203 4.609874576746699 9.984050865243509 2.035774286295191 2.943161329107989 -1.9164851269138543
Ni 9.109733973993478 2.8396515033889864 11.764990307940955 -0.1549598733100686 0.09981253871396359 1.1565997013608662
Ni 2.482162740797474 2.1323618083844664 12.579574156491306 -0.01666049137481647 1.713532527774591 1.846045642045369
Ni 4.0112675040111565 8.969265668404644 3.7860448311016657 -1.574542033309585 -0.3222921521425611 0.23031787852609364
Ni 9.285566298403436 8.4420202968897 4.167014556703842 -1.318480470160484 -1.4634526361302216 -0.08951938431807163
Ni 5.009464692970316 0.8889778163649915 9.378138024192879 0.9588067920456713 0.46063524283155505 -1.166890798874229
Ni 8.552231166612344 7.9464767414563005 1.7294943468592963 0.7978842733942645 4.8704330051143865 1.0224485372660326
Ni 1.0540993625844366 6.448701051042781 2.0006045132815307 1.6926495136779944 -0.7564280631320071 0.6150145610478053
Ni 1.7688439232165982 0.31175595754054264 4.161817583503173 0.9280705393040791 1.860627653624602 -0.7440692844563379
Ni 3.805215018063146 2.9203411052261705 8.803104168430142 0.8757964124907109 -0.32648767828114744 -0.5584436066312963
Ni 4.5665618074501015 5.63859944045105 6.830568156094885 0.3409331642825161 0.5288646074225989 0.31052318453209105
Ni 7.521232568891562 5.234210254479638 10.017533462351857 0.856195350430332 -3.793762730390311 -0.28002450172260157
Ni 8.87752422827448 2.1907427248309337 3.9241639221595896 -0.3911704631715134 -2.126018464594429 1.0507787516692937
Ni 1.0116625399990875 0.27986497424369583 12.888531743846873 -0.2635211047509397 -0.15138886812935864 0.8656328416941478
Ni 2.51374341531257 0.40086489824594473 9.399292137269514 -1.2723908748912731 -0.08815592831164172 -1.7807758743032815
Ni 1.9299156136838274 2.1512785299146064 7.444445589210447 0.7017180731836367 0.11185969968648478 0.954549559431214
P 2.9423702331558514 5.091132745921129 2.9010302076759693 -3.5141894572725154 -2.6978192092589213 -2.0249710250321
P 5.979594312841406 4.398333445980337 5.715346350229416 -1.5986288990554596 1.3525509294816318 -1.217003142149588
P 2.035569696791576 8.284480349013567 1.4363858038280954 0.24510634968917788 1.2669951577969985 -0.6585222545224529
P 2.558202370199417 6.870599852657116 7.5422888368568355 -0.05389186492244912 0.2507085263673037 0.09537404332663575
P 3.458684907944266 1.347010351676505 10.943409136140861 2.018110036246208 -0.14882702093945335 0.4038354602336916
P 1.9925644407021192 4.341648511464158 12.244513357140553 1.7057729384338298 -0.04811253923651069 -0.30557072562282217
P 0.36137461129992093 4.1817230065871795 8.491050948122698 0.4965311853972158 -0.3227066139721603 0.7141131044138799
P 7.926097002546736 1.1841215377125385 11.391808121345054 -1.9004707537634689 0.17618690100964496 0.4103673478149384
Ni 5.445714110917862 1.5649253925545001 12.248959252629236 -0.7361322889974483 -2.271623636162475 -0.6524909607267085
Ni 0.5226550380047237 0.9802868742887514 6.290339204231199 -3.2292454067611094 0.2924269891520125 -1.2035393033351982
Ni 5.869206390060105 6.350725479531503 10.915409592701643 -1.491979797035637 -1.4872811060083868 0.5282472855535741
Ni 0.4271050933970393 6.285784281332711 7.19645296109953 0.07564365477724391 -0.37780381205662034 1.8832435912519048
Ni 0.10505955757394451 9.329764332993317 10.514827047491345 0.6968095801384258 -1.472767228662928 0.11207104436634246
Ni 6.214916464959945 2.8021908036100878 3.8275880016699015 0.8092570340075804 -0.5219069451578431 2.460134091734479
Ni 4.4549345132582046 8.816021586846439 1.6207940192844525 2.306023196688267 -2.004248447772768 -0.8453398957730669
Ni 4.488677098805317 3.7967444269937385 11.315677169839173 -0.02464736623503497 -0.25741499185320177 -0.6485525449042507
Ni 2.3421883200564704 4.5314307531798415 7.142362319821769 -0.11860833126422798 0.06680368788811075 1.1293413798655454
Ni 6.065819152407115 8.01718614193448 3.969934933396902 1.113980838249075 1.6044110529548754 -0.7097093189192294
Ni 0.6802387832164196 8.611683719992785 8.145501152833853 0.04189304068936011 1.0181511954422595 -0.24815464959719843
Ni 3.307080896824142 6.66228295127471 0.6377078429525215 -0.9536864400999704 0.950540181161505 -0.3695387438343507
Ni 8.299222345792227 1.298125070323246 0.49436102737321386 -0.6368727945734773 1.2070547726876244 -1.229375804782328
Ni 3.8787759046438985 5.011729108404713 4.775517963560078 -0.8294774748195133 -1.6685343657973455 0.016093048907120672
Ni 8.567765242863942 6.786481012631216 11.401642020966117 1.3592545667540528 1.6142401232301555 -1.2177397632052964
Ni 1.2823953038489224 5.391032671539111 5.313564503511271 -1.5485121849047268 -1.1915965291510253 -1.301157148390688
Ni 0.604511326312634 4.760779694214231 10.734887225953694 -2.5049188521493377 1.3757641343733016 -0.7835406030780828
Ni 4.34627984673533 6.559107610988152 8.869879263573335 -0.4738311726965388 -0.2105988028306115 1.7455479043389228
Ni 4.510501217930237 3.56870940602622 2.6575114307998393 -1.0662326243305187 -0.17522145177258208 -1.3444560682886395
Ni 2.8677004353129876 4.408993903827864 0.622508303795964 -2.4348287802004713 -0.013405988993260783 1.1469408381148634
Ni 7.340573218987704 9.011907499794752 5.616902054041799 1.859557817599191 -1.1223775469532025 -0.7368820226792793
Ni 2.3430083552755105 6.837444337778181 4.074734502532082 -1.7370360102131694 2.3289533231218793 -0.9455481272635521
Ni 2.1669710220607916 2.8381605302634583 3.256522929995681 -0.6157858919961912 0.8748877846335126 0.9985133666066739
Ni 8.209083701772006 5.922396856313327 1.860644070413579 -2.0817772353878663 -4.6436467938906345 -2.0247871911560678
P 7.398227286035477 1.669125776864859 5.9852562832856 0.6043429402665721 1.9547711669782462 -0.032533453851331065
P 5.437206245520316 4.336551247091258 9.384412225476742 0.7888746136964865 0.6023163967548465 -0.8670356355789455
P 6.423848392756632 7.4012651437787405 1.8400630501320678 -0.8724699192206394 0.30290603430646545 -0.7913413300694242
P 1.2664325728237351 2.180687974815652 0.8588415220652509 0.8533419401419368 -0.2870605826337766 -0.6529421893315142
P 7.443655373453917 3.060883959471282 2.1526483614736853 1.5274373665122984 0.3183079706838325 -0.9092400368611374
P 5.360132253512537 1.7539155547972463 1.0925524913500149 0.13866267881194186 -2.099526074730855 0.011202553584038771
P 8.419655700006775 5.151256237208058 12.667666439896738 -0.6098936948814722 -2.1198871548857103 0.10210416296161771
P 5.588307053210574 5.244898668073269 12.677568365166653 -0.8657961067448895 -1.0502686448020946 1.580838407841258
Ni 9.298947782205053 3.8118312113076778 0.6558147797038593 -1.052561297491013 0.8713998260849122 -0.6361919664563689
Ni 7.047447902508842 5.324050703874753 7.672947471137897 0.41055375279413164 0.5228389700538093 -0.0940445258819348
Ni 1.8210093454460197 2.6973474371393453 10.347671254813756 -1.0328152252123373 -2.1617660545076833 -0.5013450618460914
Ni 0.47664640292553073 0.7311937216395527 2.0995398987423677 -0.020897412274299497 -1.5290946996100634 1.6320902640376986
Ni 9.426118471230584 4.103083492797595 2.9524482796262195 -0.01355588430756375 2.0909383330618443 0.43282850503193204
Ni 7.009083300272591 0.7556261118759442 2.504881443797711 -0.2716247076946806 0.18790753188068285 -0.06422152898323134
Ni 5.921381130871561 5.8728592742176495 4.138454966484348 2.496048546242901 -2.5808952076756517 0.4773525555862359
Ni 5.098447832818253 7.235944179903756 12.980497761804068 0.4557887133725312 1.1479708220412745 0.5756995654982665
Ni 6.16645051979824 7.550166766108846 7.314359115866306 -0.4756255455928002 0.6625956532608782 0.6778669775976519
Ni 0.04964567764727846 1.6790407481496223 8.938072646902183 0.5149217720892615 1.191849782812412 -0.7152647015198197
Ni 7.432230791879557 0.2713002654957392 8.828090082439386 0.11608736461458719 -2.219630016704003 -0.6020909110076018
Ni 1.0198908479355968 6.191415001068805 13.126199383063508 0.11076158152629956 -0.15085922087813372 0.20224631710085816
Ni 1.6688462194038225 7.180936590153796 9.693109824393543 0.4312681025233476 -0.6479362514764906 -0.16734821967209246
Ni 3.615525962167808 -0.02535492985781214 13.19301547996765 -0.5516337827983144 -0.10299145066257746 -0.8266754865943439
Ni 7.973165160403258 6.579589854300097 5.588015381592893 -1.9106795759756707 -0.9058811476912335 0.714819386452285
Ni 7.793111518331647 7.137185847501575 13.453323546095433 -1.388841279272234 -0.3477707560296398 0.03049816858885715
Ni 4.204665355556245 8.551867741912996 10.745580298838343 -1.2747642602194562 -1.2973704276547462 1.5671305713368624
Ni 4.637094154869625 3.358426283834523 -0.020892260921465258 -0.227415360167318 0.024352203592119353 0.7963408401665446
Ni 7.16735009754742 2.334006605030134 9.419736174395117 -0.7426945155959984 2.244760236112728 1.5528858884923902
Ni 6.397178610973745 9.077640777466481 0.14918304350754755 0.034039863193528475 0.7432912686397328 0.37917035338684374
Ni 6.037732946154976 5.067500821881506 1.2881709609939376 -0.31828328809348405 0.22033145673734314 -0.21376125971899315
Ni 4.298102777616697 6.514825709159961 2.6983734130213497 2.3892207525533693 2.1724253339937425 -0.9930168622684769
Ni 6.420148915688914 3.1666778213095492 7.26108664609118 -0.7279723788944754 -2.403661353458731 1.3978547956247538
Ni 3.341317367219086 6.343503578454726 11.538765887462752 -0.924555584172285 0.12279485854174982 0.6673043715904572
P 1.3517628285141265 7.838502331421948 11.679625573497036 0.5270288397654408 -0.24019091466543152 0.5026612095543537
P 8.633135095836323 6.249432492815924 3.7699106381670426 2.1890889106923526 -0.0561948020240129 -0.409002863367244
P 3.963258169369145 1.701396026450512 4.0263990175188615 -0.26250294789907047 1.475254770971472 -1.7036628340693627
P 8.297312036475143 7.955776686326784 7.110843147948101 0.5190483926631254 0.5321823589419222 1.5585528569701805
P 5.936449278021431 7.894385867883155 9.659545223763294 -1.196137097333856 0.5750583323698418 -7.601569083357882
P 4.144728235910008 7.21019693774229 4.910977531305342 2.1418274066022276 -0.5602559772496867 2.3864961545333543
P 4.11746206487691 0.9792897860110543 7.150694995877065 -0.8370827979705969 0.44507106984471095 1.2126050130818924
P 0.7853635708646061 3.2995701197042933 5.474187038324435 1.5299845584141845 -1.4766115421096828 -0.04867689638041294
