# total energy = -340867.3994992915 ev
CRYSTAL
PRIMVEC
9.28268307824101 0.00000000000000 0.00000000000000
0.00000000000000 9.28268307824101 0.00000000000000
0.00000000000000 0.00000000000000 13.58614499299195
PRIMCOORD
 96 1
Ni 1.3141308926972517 8.491371571388886 9.9754637518054 -0.7114635826061747 0.5868545536738216 0.0872357304902175
Ni 6.043676539248981 9.054468415886994 10.471154392378034 0.10456162336317475 -0.21305652034248468 0.5787069848660227
Ni 5.133667258876371 6.557797947279308 8.65801522813893 0.6387052197965258 0.7295785470393306 -1.5262461744176747
Ni 8.880436671592463 8.684581339137251 2.909445398194508 0.17782289395117118 -0.2288783178660897 0.20850078265100216
Ni 3.830759130146053 7.8183027792346405 6.643380573143285 -0.1595248669729317 1.9931718782436318 0.5609314060501566
Ni 4.7550544599356295 6.785966299890762 4.436134883464507 -0.13752830809718247 0.9041561945803268 -1.7489965250091555
Ni 7.757389812194918 1.2638651632671856 9.26060153516122 -0.4920404966157139 0.5873060393889433 -0.6460092096571067
Ni 8.544496367238983 5.48536027658956 2.0779332716131202 0.8017378428123999 0.24930161871744808 1.398184668160347
Ni 1.8120261705255922 5.292642491049836 11.596820824969516 -0.7820766169380466 0.05990927476112263 -0.49608689877094564
Ni 6.846405850088208 8.245798187811342 3.784814489737168 -1.2436852794264646 -0.5953389369957488 1.4250110443245716
Ni 3.0760769874564162 3.1135047660458945 12.71114289044438 0.426698223764478 0.8562598851196802 -0.8506106572537028
Ni 2.531127788578952 3.245161061614986 1.4447373167984685 -0.1422066874094583 -0.4417312068382005 0.2705612994271728
Ni 8.197918107959028 1.8605281901510946 0.565948484771591 0.7339954451601036 -2.8147858911546684 -0.3931532979294971
Ni 2.9713776038476043 0.1717110734990518 11.720604476932024 0.26853861257018913 0.19368325802219546 1.1087938947314968
Ni 4.046265902897377 4.508032977781706 3.416209351534849 0.527681128637459 0.351620211682717 0.14671331703056023
Ni 5.323943698739251 1.9258504317022263 11.397403726977403 -0.8032470803680747 0.4336337745420467 -0.7917822742615847
Ni 3.321149106142137 6.693037358556618 2.2172041521963357 -0.605324330343235 -0.4789772356738525 -0.024063211596790812
Ni 8.22740919242797 8.34553133591783 10.011875076586458 -0.1786045093122021 -0.3392382930785964 -0.47434899287322174
Ni -0.40380878590141106 3.989028878397693 -0.03672507947260777 4.536658306253522 0.5279438953805423 -0.5019258740502259
Ni 5.887105522019631 4.360280509575175 9.801249138652185 -1.4123121087006645 -0.5109373335202169 2.824108968327807
Ni 2.5228012217647744 2.1593006310441902 3.5132412388353997 0.7537991101495921 0.1641878196662398 1.0999256457075897
Ni 7.378275748362354 1.6476112860075252 3.145640486953364 0.8126272360313942 1.4235234040354516 1.5439937282090828
Ni 4.755546442144271 9.340514298137684 0.27174869361390647 1.9275789228341706 -2.1069228814155587 -0.20726896712643011
Ni 3.4027810220438917 5.179068862319114 8.723963122536524 0.6615708115407897 -0.41685758352497243 -1.017915939503002
P -0.004776868765413129 8.518839030924171 8.061474732673023 1.0305598535192573 -0.40716915259261494 -0.909029206401912
P 3.3330959193972607 1.4267205570106911 0.227901939604134 -2.802534841701457 0.9720168629780422 0.9271624256675128
P 5.584285831259222 8.819653662117288 8.193586807986346 -0.5656802335890516 0.5315547526602522 0.15022338706634775
P 3.5539216696118214 -0.001597549775607461 4.925751864431216 -1.1525337588216087 -0.018277458152949167 -0.11132671000115021
P 8.113928390529066 0.5585000597864228 5.013015584219439 0.13674823539804837 -0.1537637961194384 -1.4623689161477396
P 4.686687498300831 8.012737861163018 12.182221172348807 -0.09378792978643848 -1.0580722000069132 -1.2480042185167926
P 1.0783971532925367 6.9467795033342465 2.9686271448208026 -1.4207815796242564 -0.15241988049703428 -1.9888110301717747
P 2.339997341863335 6.673395200943687 9.892859938974498 -0.0835348845998626 -1.8639389773860222 -0.16781050402049164
Ni 2.1812820248189633 6.693993474924355 4.609819455408034 1.017086758733487 0.6398226212304207 2.694225321260076
Ni 8.238232801018082 5.511221831934373 11.403517302121013 0.384927310475279 -0.03337446169538768 -1.1373508804335832
Ni 0.177758741592069 8.929003670000238 0.6473121311293885 -0.40777901826247187 -0.06887445437421041 -0.8056441198453416
Ni 7.699475151822955 0.3899321028127673 7.030816562448436 0.6191476093795724 0.3698403342351695 0.6575719747940417
Ni 2.5404011890776843 0.3314437726201613 8.425040302175882 0.49242307676611324 -0.31727618698520843 -1.395815653707538
Ni 5.769280424391592 5.778201082929412 6.207251340939084 1.353230986267792 0.8857319264368682 -0.85521987389094
Ni 1.110988653944238 8.915506648653736 5.941873352792926 -0.2552202981947282 0.11004707195777821 0.4103310952603642
Ni 0.29882256738227786 6.540912746571406 0.2112181731212793 1.1684185483726652 -0.5914665985245362 -1.389065479467898
Ni 2.810508704305028 7.083801189782485 13.309163973877803 -0.22577628190199828 -0.9778244707987546 -1.0782373621008785
Ni 6.831423599432598 5.047848852859573 8.004766821114709 3.6545979151309704 -0.5865624763546996 -1.9830479024357526
Ni 9.303012258082749 2.1712938577152237 7.399965665885215 0.246752112822717 -0.22555953790550187 -0.5587734791668892
Ni 8.597964622366808 4.486673523780122 4.68836116607853 1.1365996040898554 0.3808752518930924 0.5399722872999861
Ni 6.576901709267687 2.3378716074146766 6.034531239778159 2.224424866989485 -0.4854577011918736 1.1995564074280503
Ni 4.918355422471867 4.428294729249062 0.7172135202941582 -1.7659956306703135 1.1490005488573696 -0.9774205504921166
Ni 7.186328425526729 3.458142944540829 12.266250805316451 -1.580056278259595 -1.2368947388671923 -1.205720370146917
Ni 4.910502272499968 3.8157490314408977 6.922440308031267 -1.4495421966967166 -0.0012734673957849037 0.33076727949310775
Ni 0.7265333342088003 1.5437659092514493 2.1639336182202835 -0.14471711253613787 -0.7696281067620486 -0.8919807355600574
Ni 4.577031161872877 0.7381079118683292 2.7829047893269694 -0.9743995042776058 0.9621728803044269 -0.42176530523923494
Ni 0.2945701702166429 2.234564626283152 4.641570873231772 -0.44944965852838076 -0.5514756599538955 0.13606817861188825
Ni 8.5663013900333 1.0788148740357228 11.365177035774751 -0.15519847168343592 0.00861448114188839 1.6082921331768365
Ni 4.748556581708289 1.8837441807890625 4.778328931477644 0.5955047731496518 -0.49259662622950007 -0.7102862744686219
Ni 6.402823551557248 3.7864992967346858 4.277910620360458 -0.825599994141978 1.0761583680846627 -0.6085348668607325
Ni 8.792436835027916 7.001649443622543 5.343743661966274 -0.21093201780031412 0.12061173484750197 -0.3773171022281889
Ni 4.44006517152373 6.201380043826523 10.974860629878254 -0.18828239872159833 -1.3451003867408577 1.0333261034104848
P 7.010811451923091 6.529142304296738 9.559143765511404 1.4098366505769784 -0.17664250048982483 1.8465104974969295
P 9.19216773820751 3.3312950788599696 11.22980488212794 0.9363829158245164 -0.33469232557912676 1.8963217645921018
P 5.290256841472084 3.0743968218004896 2.5168742285531223 0.7761373686354762 -1.53822931492148 -0.6710496975655024
P 7.0010089384829906 6.014241150879131 4.317025062484091 -0.01360704926047334 0.267902521648087 0.18625019878291793
P 6.4904892115272474 2.8733988828624977 8.380450933511556 -0.11360367896078499 -1.2004742912566293 -0.932189189458143
P 5.130817475139524 4.298903408376359 11.942629549813688 -0.3680703868189403 -0.49630492831902273 0.7818444463225825
P 0.051297963799895124 3.4206223391195314 2.6441899414663506 -0.6345562306251588 0.9721058231474226 0.563199633259043
P 2.039321950917947 4.773666239715368 0.07792534050721646 -0.5498730913534658 1.9677503528467337 0.16246595187912666
Ni 7.780559389416977 7.81500742670506 12.218428278099866 0.0025505343359956073 0.5408708878548556 1.4320833777903206
Ni 1.1495025064660007 2.0641995418454777 9.564904598694099 -1.0748751304968651 -0.5477136218083019 1.8810334709744638
Ni 8.591234677059921 3.5776667731911584 9.298181549754883 -2.8045922384511184 0.39208449034535053 -0.8995667754374314
Ni 1.005212479086324 1.4479964668636387 13.070224923970374 1.6515599427265362 0.7329225238108991 -0.5107648124980945
Ni 5.395856645349541 2.3353095868564684 0.17677756197974065 0.268182514782351 -0.9304853193931587 0.5454402523930929
Ni 2.882746544826686 2.5880863325831784 8.295034467676533 0.8420496550575691 2.6868755657632244 -0.25005160950959515
Ni 4.6677693899760895 1.5364790029536464 7.336260467744373 0.22230426419299776 -0.7948002351523021 1.0099048962730672
Ni 2.1116990316873334 1.8593864201197194 6.2582132716077945 0.9013092120498348 -0.1584264917024304 -1.1332209174256098
Ni 1.8706555975025634 6.491129716666799 7.4036880218411625 -0.8765258344575678 2.5871661282860283 0.9044996939626745
Ni 1.8469754727054999 4.784118540978204 3.23554048876525 -2.22285058052383 -0.32427781511402215 -0.13998859671221697
Ni 9.202174470677614 6.386625269404807 9.033197147375637 -0.13464250190895521 -0.06665019302938198 -0.4892349088461187
Ni 7.112976663023241 7.4829380012384386 7.320622859656121 0.3469426037013896 -0.8173773491218698 0.5569189424566539
Ni 5.6001963502330225 -0.006908172823980665 5.9754172567390915 0.8329651762577976 -1.3764979272155327 -1.1052979657630964
Ni 7.151202752366364 3.532515802194327 1.3139638043999775 -1.1364553652025073 1.2022761203520584 2.6715620753346054
Ni 6.663434881889493 9.421830602811255 1.7323556855801758 0.5985319900117498 -1.3239880302422748 -2.3092627866714874
Ni 7.135960586581661 5.437545175519519 13.580791992610344 -0.6537839685065192 2.367347092408729 -0.21379134162598018
Ni 6.136345565454032 5.550663952774328 2.2497845136282186 0.006686925101872355 0.9232939438510421 2.3758736418225017
Ni 1.9952849019029455 4.589952656862101 6.270427426138557 -1.0482567565783882 -2.4651346302728645 -0.9522273390559406
Ni 3.985241543659472 8.116935979880006 9.790026374685251 -1.3558727947660134 2.258857851856374 -0.040456308242833555
Ni 2.5411623690986014 8.884316833162503 1.1180722694803569 -0.25704578143924117 0.8519769414736101 0.25472150418143874
Ni 1.2576550482184847 4.471756251906785 8.698746713672852 0.6274712987539194 -0.36919884399642866 -0.011286371547096693
Ni 3.329902676382682 3.8158140102231712 10.549220829669617 0.8917783897412641 -0.9227347289134623 -0.8555194074092298
Ni 1.8703121382248324 9.010264278574716 3.319923791962124 1.4780554736450608 -0.11765702309455223 1.6005024619290888
Ni 5.1824384763141484 6.855187268378298 0.5169841875236291 0.12602596388453777 0.8384002312304399 -0.9299960384615662
P 3.679590634528578 5.835549499627279 6.192565207876978 -0.007027339160426607 -1.0765633168325655 0.2417253490320869
P 6.803677659401855 0.8527332686035622 12.891254792223064 0.012893311022900374 -0.4251995277317645 -1.218198962229902
P 3.4423252523988475 3.346648636842856 5.182068097255191 -1.7919262344931461 1.089540960039156 0.7163324806627018
P 0.9485509809439187 8.555319975829095 12.094386567544898 -1.1090677172181738 0.15671079456290432 1.5015710402684979
P 4.996571310962677 8.040539497292853 2.3306079078248287 0.3246423975422925 -1.2519056104537276 0.30457339470655936
P 7.817123878470537 7.555027318829186 0.9720890806882989 -1.066077586809893 -1.0665583831010534 0.2014065948083822
P 9.032839764073133 4.276624968739764 7.058572713430678 -0.12850604999391418 0.7455019031378064 -0.49332939063046655
P 3.3646941729484974 1.5872274319091721 10.15571118075854 0.07832968624983928 0.4160811103702641 -0.45753500663967656
