# total energy = -340867.306539898 ev
CRYSTAL
PRIMVEC
9.29393371447576 0.00000000000000 0.00000000000000
0.00000000000000 9.29393371447576 0.00000000000000
0.00000000000000 0.00000000000000 13.60261143634944
PRIMCOORD
 96 1
Ni 6.387859896242187 4.410464019178133 5.555429226006976 -0.5584677750010124 0.05411349401495196 -0.1692544355558698
Ni 8.843103363661887 7.5258834641478245 2.095672333436397 -0.4437243260088294 0.24049379061783097 1.3571292928809335
Ni 4.766068502348177 2.7184662517054674 5.476261641757876 -0.8048558196160912 0.533749703429042 1.8822886835378037
Ni 8.589750736741827 0.5312133564515755 6.512807538073195 -0.27390527619874117 -0.6058308376660082 0.13390099575724038
Ni 1.7389135437269745 5.981120191013662 10.035299411090332 -0.12040604659459908 -0.060642296272405236 -0.32331673675233347
Ni 4.310786582504704 6.608023886671729 9.270682855953613 -0.4737244719153454 -1.382409150493645 -0.44300878799904353
Ni 1.522680887163433 1.6545710973109966 5.286858712391431 1.0514734637434728 0.46753916904023995 2.9221471887501673
Ni 6.5637847632623565 5.440036677196382 9.919989578287792 -0.020941892358989737 -2.575754801125293 0.9456846528414165
Ni 3.7883002295996415 0.7499721041375265 4.694668787709487 -0.37651697492439673 -0.3064860383482399 -1.411769348823317
Ni 3.84911043642055 5.33617697045274 4.731640984523525 1.7152335696260974 0.07448203036897495 0.6033558937629545
Ni 3.863330154659277 9.129254281865915 12.740586865107879 -0.6077234267030308 0.7173930607167323 -0.03118311047102372
Ni 5.824145654378305 0.9335198554056732 -0.0854484245012122 -0.8315392424445485 -2.1228855753924023 2.266929316010599
Ni 8.014707189954411 6.679196829333279 13.682050245466913 -0.19899618559467663 -1.0457116215590314 -0.24961349353091208
Ni 6.894964789222352 2.6209728894020397 9.931824473193146 -3.1201468147595297 -0.9093847899691178 -0.7152577595412842
Ni 6.0861788151774325 3.5077349654227223 2.4721928139242544 0.05480614920660238 -0.17501602062999536 -0.043177563828738545
Ni 4.59841523613354 7.000246467789867 6.750268468119794 -2.1055375710322575 -0.38811187885084775 0.3415386590769989
Ni 8.907612556011562 1.499548286708406 4.138390622030446 -1.8847276319965993 0.963774677573908 -1.4619305430587402
Ni 4.4917394675426205 4.572494455631704 10.640941375104779 -0.7714993556428327 -0.5868195866708281 0.4471909444011911
Ni 2.490058542270859 1.9632226284927738 12.903871982582514 0.889242767803604 2.426982287572859 -2.4474541822739653
Ni 8.097813543216303 9.006462832604438 13.268027813956122 -0.5682261399393568 1.0737708416890928 -0.21697205334680694
Ni 5.883152838102276 8.608905533663407 5.794045391986302 0.425756428676499 1.7973618036864207 -1.6385249639194492
Ni 9.334269160707795 4.191610473370591 -0.059640100594597435 0.37524659285240536 1.2221335213976177 -0.5112713198208678
Ni 4.030816130071105 4.528171686820927 7.240016940308572 -0.8573788292154718 -0.02830270359943513 -0.3388413147504939
Ni 0.932599755990226 2.0292839077351728 10.72130601798731 0.7326728696939382 -1.8710537340539324 0.9915410490538987
P 6.333927200203408 7.981118914323849 1.0502247076249651 0.354689337526344 1.1708425844331256 0.5399638026595539
P 1.7337275288399094 0.9807888011325782 3.276678484943645 0.14930807434092994 0.34711126806876996 -1.2669429644028245
P 5.767768653831824 5.4055283021503735 3.5510158842893413 -0.14442220700353836 -0.6317264744858475 -0.3247799515614213
P 4.5700501511240015 1.8291855197091667 2.945985461098493 2.092907540973073 1.1047804026967294 1.4088891990620447
P 3.885533361765367 7.982559474014701 4.9720127745389915 -0.24598823807349895 -1.5722113282938794 0.19924403993942463
P 0.3329328618160892 6.1141070853129715 12.372704166405038 0.6394467259482407 -0.11198079864538134 -0.2650524537938016
P 3.4244148516905746 1.8599298516919827 10.899771846423471 -0.47477142512262105 0.17071790747527374 -1.0602941473588965
P 4.050389153999705 7.73693939975779 11.062473304874974 0.8230633437630533 -0.63405075174365 1.4208052337733401
Ni 5.656009103622222 7.706120716307059 12.681904969056037 0.6317562992825183 -1.101173916292394 -0.8983856106451368
Ni 3.719079012970859 0.4210058931346978 7.030863472883879 -0.17029341834334544 -0.36400213028683764 -0.9456347734400875
Ni 6.2248814785727005 5.3395320804424005 12.179791847753007 1.3187949160771093 0.48264748543658814 0.078209101511575
Ni 6.090491200316498 5.532390494280192 7.639838241447613 0.3979756590188049 1.0520023396637497 -0.33011319084887664
Ni 7.4196816861648625 3.7606228956683156 7.696996861800551 1.0492016369901607 -1.7180640970963572 -0.6076771468461277
Ni 8.024242765714497 3.6921823694526394 3.9181913146536433 -0.09738567444002583 -0.7365526643643185 0.18875651014453942
Ni 1.72758423880344 1.165180441561559 8.428273289330873 -0.19745660902169865 -0.30576021592580893 -0.32060653691002206
Ni 6.932651689521722 0.9655188684095531 2.1173550802670835 0.42764901771352154 -0.00015503752062553944 -0.03632351702138261
Ni 1.9988369816240166 6.176869018166646 5.850999545802473 -0.26063966943808664 3.16879002968853 1.6851094965472073
Ni 4.494601999057345 9.41280289869292 1.8537094220075516 0.949448490759223 -1.027135915439373 -0.7254331574123893
Ni 1.8992246024850135 3.9551820993346607 11.626845557229903 0.16400501423147237 1.3759204574455077 0.3710544091479287
Ni 6.149312505370682 0.25094828632636296 10.92462382457403 -0.20457342257213798 -0.13984718603834626 -0.04804260523052371
Ni 4.285562847014571 2.7300836685671723 1.0745394964198391 -0.4538465020444958 0.03226528779160895 -1.0002072093693288
Ni 1.0931245752185204 8.183057501180748 0.4603192317947073 0.18150085702339064 -3.6940304100949803 -2.1449294425663186
Ni 5.995544375789155 5.804498278981789 1.1793341728725113 -0.1357035961836179 -0.7622513546820033 0.30981458850084065
Ni 7.988358888512064 7.1325920806784096 11.27276992611886 0.48419194710557256 0.504845361689866 0.3465240281067323
Ni 6.511171805779067 1.6172373664842217 4.531968258651332 0.1409735863333056 -0.6242520204856733 -0.3207366347299831
Ni 7.6072239700467374 0.3727555080313159 8.759415210163562 -0.7150435866479491 -0.9611958611031381 0.2174541351895481
Ni 5.292244546848517 8.594750872959104 8.585723675360885 2.7470483785983784 -0.21192009274519635 -0.7439826382798026
Ni 1.366858798280757 4.501182103967815 7.37766195407275 0.3460118643570041 -0.8931233338049328 1.1696585914273534
Ni 4.902680030708337 2.5963346717217357 12.294719699889134 -0.48658538703841364 1.028337134836326 -1.4269090326782328
Ni 8.68526449121202 5.665907142788395 8.460266725974659 -0.5182359240641591 -1.733285542031802 -0.012505331555862335
Ni 3.756877440472102 5.067591586543611 2.3654120238849052 0.32767732771387437 -1.0048789038133854 -0.6324906063453817
Ni 8.187871758728239 3.4569157371028805 11.417311038532146 1.552678143356958 1.222335867216411 1.1944381123648784
P 0.06761987188856533 9.180566088660692 10.164946065693561 0.3229693807152437 1.7343067842074644 0.5527658395202287
P 5.396345895862883 3.7873429544502373 8.75013800575448 -0.0867186816444829 -0.26780353417637753 0.8799266326090007
P 2.8366664978231984 2.6549979799066006 7.163869884443515 0.004656782045721012 -0.7686359180521085 -0.7088960789893146
P 7.50197017327969 8.681221630144146 3.6394197796401717 0.2485115187159849 0.5549224808519152 0.36387331801845724
P 1.8409423455732121 4.50562460417573 4.710080917614899 -1.3108869740839424 -0.7576951027698886 -0.6404872513976131
P 8.89028866398739 2.580469927255391 6.128847263827102 -0.5256610128836366 0.6964470545926845 -0.0557379169922524
P 7.104914746747084 7.257288786305206 9.379870774766708 -0.255357852213857 2.9140672399555103 -2.6861042348148385
P 7.078194687965162 1.7488487586271049 12.255816223696005 1.909901817269382 0.7711126617273752 -2.3838052379647525
Ni 0.41064966304749956 8.75962525306042 4.339410038865247 -0.005008508958184923 -2.0795858841635027 -1.0003866723699868
Ni 0.18224938875968247 0.5538673193319003 1.6218257814479209 -2.425913222878396 -2.2457297991148484 2.5813970870127347
Ni 4.317013517942579 4.871582529252925 13.139741791215734 -0.9463109735715057 -1.0133105795205064 1.4390346122971733
Ni 4.510699091860923 1.5394750249787137 8.790388172910216 0.5750549899357322 2.237645222334501 1.9063842910344264
Ni 3.227346285982101 8.822164131510352 9.451733327293168 -1.4003299966381237 0.9169726296187046 -0.6224126532840893
Ni 1.4333661863306453 4.217977362679916 2.4230464936324982 -1.1913646156458773 1.9709560042682246 0.9958856991758397
Ni 2.4612194666533624 0.5820744074721198 0.8665040891939164 1.0016619395379847 -1.1190209717761437 3.7174583021006176
Ni 0.9022810861612229 2.3882527948283663 1.137183396318199 1.0586766663601315 1.9804377185064148 -0.7354465757843334
Ni 2.507484667563416 6.212111613958315 12.519367083833945 -0.1648002564392581 0.4207432917326238 0.20416770249328708
Ni 7.343322728616248 7.4011124070531125 7.024170911378188 1.0896417472830782 0.1850255823471975 1.4067459274667966
Ni 8.857676251373212 2.2814004415011486 8.946641500306798 0.7836601593750827 -0.44165150264020064 -1.8168026860198516
Ni 2.9488070993058635 2.9291132542419014 3.8905511564562745 0.08500324161527296 -0.04501821658190311 -0.9740791448237096
Ni 3.981744161247263 7.048686449136432 1.2461361786140126 -1.1190767647147437 0.9351061059946217 -1.4769884658331272
Ni 0.1843312298613 7.659771869995602 8.763455283051387 0.9113380570407466 1.6334884299368062 -0.7661728012235965
Ni 0.4303853308121639 5.982728041507322 3.8540278566297723 0.27431073916727594 1.135950657651947 -0.14828451817242203
Ni 1.6103505617686031 8.751065540316716 6.50871356037113 0.43079784775514834 -0.795971629752584 0.7982869081493219
Ni 2.6965046868701004 8.255355009794512 3.1050000161347655 -0.31284977578273865 -0.05896593701124684 0.018464120242458523
Ni 2.6149504205009317 3.423420400807213 9.274913454477971 0.7810309492823517 -0.30852543737577187 0.3928149407534719
Ni 8.152396814599337 5.0901479631222974 2.157687034037527 -0.08516213579064043 2.5354126498628204 -0.47462924311780197
Ni 5.557762932706155 7.5890171543410725 3.1028642702189098 0.0001905187442512848 -0.059407652534355745 0.7795368812353284
Ni 6.802518032803649 3.505755357589488 -0.06365229168195585 -0.23192636066379416 0.005559239255332362 0.7152341053922004
Ni 1.9843105635801406 8.319873496077676 11.430995426201886 -2.0742837552242985 0.4356279221539401 0.33701788838850993
Ni 7.320227303895178 6.442089998152626 4.667137368533943 0.8480511240566428 1.2031214990714891 -0.38952855669271624
Ni 9.010858863144907 4.668454318909387 5.719013608139969 -0.0965958315488788 0.8589353750693144 0.9058019577138657
P 2.376514556831299 7.1751025324587605 8.136293216042317 0.23097325272190547 -0.29183563542491675 -0.4862426589870142
P 9.24125547434624 7.5076766484421595 5.994588959426449 -0.5734117979053543 -1.6284506104025824 0.2234849147646603
P 5.962997020709403 1.2094474467713996 7.007779200882996 0.09503414348871375 -0.5047147496492727 -0.2956285268084457
P 0.5271147317827661 4.05644879863477 9.544108520424004 0.3078152986826247 0.8773976955395598 0.5828086657392221
P 8.22147862222578 3.1582551844221696 1.5899271429257256 -0.3733118377235377 -2.3504143212091324 0.5580836521887163
P 0.7991007659556533 0.7031167384508982 12.941986403822398 -1.1414121949871505 0.22113312670303203 -0.6284087229665242
P 1.761832383711746 6.5939807531693 1.8240013636087995 0.25610090102746863 -0.5197706155411306 1.1168427331779023
P 2.412379846166755 3.9634629940736836 0.6191906602552437 1.2055049117020014 0.08575528928994908 -2.0949785645694887
