# total energy = -340896.3589951106 ev
CRYSTAL
PRIMVEC
9.02448733557770 0.00000000000000 0.00000000000000

0.00000000000000 9.02448733557770 0.00000000000000

0.00000000000000 0.00000000000000 13.20824942478341

PRIMCOORD
 96 1
Ni 6.4847617491416605 1.7990405155949687 11.34601828007255 -0.79966244834061 0.24502330305706832 0.1904495815762462
Ni 4.440778606350045 0.4809248412128509 5.992423639171326 -0.11604596985369048 -0.7868632396934125 0.2945373506267959
Ni 2.6849924571301966 1.5857467644420422 4.589007610853411 -0.49911103030925 0.2864805417605905 0.644502028983961
Ni 3.4072131303274706 4.344884407079853 4.732647663697743 -0.1783168028684542 -0.6870946668435071 0.6062311584282205
Ni 4.873990082142095 4.5557144732712915 2.6130275876910645 0.5024472937713347 0.36840745844338485 -0.22317432550277694
Ni 7.0621303808853435 6.011698138587972 2.484934018667809 -0.28085882469843887 0.13918538408463127 0.23919126975632357
Ni 4.845743437711857 4.617189278976972 11.290094436344202 1.781498868512235 -0.4246439123386106 0.05633698402883201
Ni 5.590534352992205 7.949688681113408 12.439185078291631 -0.03950294319062874 0.25283945666737745 0.41192055123467125
Ni 1.8500198428749721 6.4858717610473855 0.6163760745185256 0.1904567806650978 -0.13109592220827743 -0.7244533099976233
Ni 2.6443461675091777 1.5997166703775079 0.32525875694112766 0.5626764137657212 -0.22785167637378825 0.44554261016449076
Ni 0.5238877166566308 0.09656832845196203 4.766315317491956 -0.09899415657772628 -0.6546404029695436 0.22911717334977316
Ni 8.471051346296692 2.397779132645617 1.6499081599390577 0.4399093231381133 -0.43269635032944187 -1.0390185258095717
Ni 6.645839818290321 0.6136551916764437 4.823335636395473 0.6147551367388316 0.4280580802264822 -0.1678750387098399
Ni 0.836416532181371 7.520429930644185 2.7832023397744465 0.4883303947539783 -0.4813889304391387 -0.6025475389290461
Ni 7.525230957748621 3.917051525562698 3.817844437100703 -0.16794111606108497 -0.3184542664537096 -0.012171602365527426
Ni 7.545680445377669 3.635866558419779 12.616189562165685 0.14389538796579088 0.1907347169168328 0.18770390051030897
Ni 7.9549499570568045 8.8355142798301 6.854037441612655 -0.5184788933129005 -0.06604315557300239 -0.19061310373730397
Ni 6.713036148778355 0.9973592340244553 0.5228192173912826 0.433456368423918 -0.2915286457074592 -1.2232599216925772
Ni 2.0209526518695813 6.487866172682875 9.200232606346693 -0.811577197500325 -0.2803507747137688 -0.8266945127577376
Ni 8.839710666302961 4.713489580163893 1.4354989821881827 1.0142868273908467 0.19927772139083744 0.10783952278349813
Ni 6.4240810982953604 2.0672121724284938 7.002617498661815 0.28675385002663517 -0.7254961494398409 -0.16634651788045546
Ni 3.035043284863257 4.298651959982055 0.5239211072586729 0.6646270818686102 0.18365672702412886 -0.33663505112779446
Ni 5.761981557748005 5.412535370646518 4.747388260826289 0.8241673754605097 1.2102120873696836 0.04493465572916132
Ni 5.480832688553239 2.8930790792619585 9.129739630743527 -0.4425570451736055 0.8041487662467376 0.9154988732866555
P 0.3090733394377313 5.504982215868036 12.475481565160134 -0.04211081312712102 -0.2811606722095738 0.5552109586266115
P 4.092884631019166 6.003756589994167 12.703363399610659 -0.44835359725072466 0.9492541153602295 0.20162359591519471
P 2.412696609720116 8.410280450580007 1.3848851466332353 -0.03165850744554547 1.0286636649378091 0.8821910031631451
P 6.262939857737432 7.672122533272894 5.769336514684313 -0.6636796303536764 0.022304319924155134 0.17593673267205184
P 4.726890943415937 1.2024497264594631 12.696719572252977 -0.2793850683663898 -1.0375913064447422 -0.9125156222886156
P 4.04607461675091 6.070267059467282 8.265946414682423 0.03928182831875816 0.25967164909786244 -0.4522336490314212
P 4.641113194115808 1.1699525486341324 3.777849715443858 0.4396349864308041 -1.5119608681432541 0.04140504530934804
P 0.12610727942610037 5.506904431607219 3.5982840821483015 -0.2149262265613718 0.314967850567006 0.007677314039599681
Ni 1.36462878302681 1.0637253117049554 2.569941979223562 0.2340657756043001 -0.38491265518725964 -0.48790179185699195
Ni 1.7163852388101304 6.473688703545525 4.763845315389541 0.621018086929408 -0.09370796847812247 0.9775341932518457
Ni 6.068038011168794 5.633951160134018 9.300284386795484 -0.14766256831770697 0.011378159929954597 -0.42251169648695625
Ni 8.58205253686919 2.415494200702025 10.105961711226607 0.5077375956359965 0.22136221199470263 0.41069336369578946
Ni 2.3637297430496793 5.118337093194206 7.046416041605352 -0.3852970351098719 0.4571508838273804 -0.17093156614797658
Ni 0.6503812441279753 8.966396415348225 9.11762786668927 1.0702977955388278 0.04315570945186761 -0.5937664503023065
Ni 1.470332599707759 1.2153547429243956 11.252530009046799 0.7563717559727747 0.8958057657331023 -0.6355988129570602
Ni 4.168437636504772 6.74266353972547 1.617257565834074 -0.07538680157143146 0.7664684780871446 -0.25761476656883375
Ni 5.618582458707597 7.65586943211671 7.945329853873854 0.31244302726262324 0.8229386452597311 0.29193462289662625
Ni 5.2786571054316385 2.8587499305678294 4.9730509739140665 -0.182565293732163 0.16911148222010228 -0.33627741067805955
Ni 0.777061578481015 7.416747599059841 7.1268801729372635 0.4479915859256156 -0.3763228566357196 -0.4054524270118243
Ni 5.1359619163802295 4.5957922202088906 6.936232469558534 -0.03334360845745225 -0.0659390258949703 1.0885287167245574
Ni 8.04182869377562 7.19460082612223 9.042697550809315 -0.053933002573029694 0.2263190417793457 0.47000485697191313
Ni 4.61804660524562 0.19679608639800114 10.298221187990398 -0.35368095086648765 0.35692208351160465 0.1205382012970892
Ni 7.8489844302517415 7.164838067869538 4.37420225812155 0.8420851362811949 0.3702630235948849 1.025814368414472
Ni 7.478709727065595 6.194146193043598 6.909380108375732 -0.6721928100310101 -0.5619364502759032 -0.40977008055057174
Ni 2.2927250790314337 5.107814541307414 2.6940999694493653 -0.7993660001461136 0.28796329695370404 -0.3524694470568897
Ni 2.383339953384154 5.2745419393421225 11.452516251612883 -0.38206387288455496 -0.5237216297690788 0.5357528499019999
Ni 0.849837749304901 3.327923987207961 3.795442952925247 0.8981274718877436 0.006601564476917662 0.00750273613494837
Ni 3.7010504282982466 2.6191046772627327 2.4988028503484445 -1.1542684821245282 -0.33872458666697147 -0.4327344026562289
Ni 1.036128430341484 3.2504036435479806 8.07488899959215 0.37656479744319665 0.5529008224361962 0.405459883210992
Ni 3.53835697596971 2.874136680968326 7.263242879433818 0.5276214790441172 -0.4410719759876468 -1.4603649983438334
Ni 4.068879495496984 6.673833777083482 6.08933309323334 0.05465368278913813 1.2131932814851945 -0.48895183038806117
Ni 0.8647498116871771 7.176118676667556 11.158513805529301 -0.3367497223287878 0.7793923852376642 0.4587999893950292
P 0.2411315863203239 5.4915718281289525 8.08776784504467 0.6110077538812574 -0.05705046515608885 -0.12840192031588207
P 8.703585303815517 1.5004924353901403 7.938012799783108 -0.850383114623929 0.8906473614606145 0.7129964743109334
P 1.798679536113432 3.3278156933635 10.53719772680595 -0.49602236408159733 -0.7988522937344887 -1.0201952224554816
P 3.9107975560450767 6.210309049329399 3.8126535521562075 0.03671509603284645 0.1692464651360698 -0.3575211505481843
P 6.913181222316312 4.056064723902435 10.534014790227499 0.20315803028185012 -0.5016307114073102 -0.5012478741465948
P 6.341705580608713 7.906867490116132 10.404864453772046 0.9245743532253626 -0.7834249034358249 -1.1751134438943374
P 2.3419807292871004 8.366132659988084 5.882478313582322 0.35640837709997975 0.10320048134959 -0.3240446160572935
P 6.697080855694438 3.8956183688464634 1.6096625575425443 0.5562694817981129 0.42106545095873293 -0.40509144412797976
Ni 5.0583152299017105 3.1298455212018013 0.36038296294334077 0.6770676216248082 0.11591561492341328 -0.008178679156050429
Ni 1.6505606303519351 1.1048950215742024 6.983663368535033 0.11576854782258773 0.18821940669414683 -0.48593695482113736
Ni 6.9369607456625335 0.771261540661426 9.196586713583176 -0.6824301714883021 -0.6188179939542956 -1.2847488822359938
Ni 2.9316587613511804 1.7218179800072557 9.143027285458889 -0.5473287276650574 -0.8514339244859466 1.0887961114533313
Ni 6.336534549535702 1.9113412323009988 2.588183174874309 -0.4204046774462824 0.8431313181575222 1.521663954363631
Ni 4.047112432760327 6.692000069491811 10.430725926278031 0.8908664194499561 1.6417540123797079 0.36086461309912043
Ni 8.477521903503234 6.957365110856389 0.6504985624594748 -0.35678632926468873 0.9359532844862654 -0.2280709914734459
Ni 7.677131123579215 3.78772160181518 8.196379351449396 -0.040959987352129454 0.6739136493768587 0.014975904583541949
Ni 3.1750762502383347 8.35586279373837 12.436847736148682 0.1206166199435084 -0.17472008665613134 -0.07681762048068706
Ni 0.13798982150958072 4.914889057400189 10.277537063698352 -0.06256933809178902 -1.0240865870900877 -0.5859724081791844
Ni 8.619919284482377 2.3371797021826635 5.823054773780474 0.07761826200511147 -0.4593201235645573 0.1562791063421244
Ni 3.7216713811810243 2.6515567326528715 11.365196217477886 -0.20238798488504497 -0.744817218365956 0.24733858145380627
Ni 1.0124481763526842 3.34614442653852 12.737665474843672 -0.646037491791881 -0.1380633546650461 -0.6899863865690052
Ni 3.2073207424265897 8.351991288798889 7.994834579971782 0.1039134482562146 0.19619805402424922 0.3909526907337525
Ni 5.557928881322414 7.911975349779875 3.474548437915897 0.5061478825513734 -0.5186460150183843 0.011245491006832246
Ni 3.210325896610382 8.248877499897965 3.756637658660065 -0.7923319761174676 0.9446060750652571 -0.26676352294763733
Ni 3.3392587429282097 4.273266077942996 9.24940613377031 0.21328329164131007 -0.31398697471097536 0.4949458431879669
Ni 7.525655108639427 6.256875402447617 11.387452407412026 -1.0632540013181688 0.05141152170275662 0.5891130106906951
Ni 0.8083260113768982 -0.05024112424026119 -0.20354008556180828 0.03898049502825545 -1.792621717898274 1.8858931130596102
Ni 4.699456502819158 0.36955184177436984 1.6169931483638482 -1.5003970745650546 -0.9491718400590684 -0.19621116665037175
Ni 6.1318682079914995 5.733265639991769 0.298772789932085 -0.13051485289382686 -0.5528553139102415 -0.4976318746605623
Ni 8.309910105738762 -0.027982226960011836 10.964180501644083 -1.0014876187436494 -1.1434773050462952 0.6026282715683104
Ni 0.15284322472610717 4.699501625254351 5.905368924955261 -0.23288178259852796 0.31809482623176183 -0.3714714420806893
Ni 7.97165428256491 8.832337660392577 2.4803504817009983 0.08529917558913697 0.9197455643781514 0.3191199250621666
P 8.354473022734453 1.6660286011357774 3.7172241139684936 -0.3212369714051694 -0.622403911533341 0.00882762559395899
P 1.596522001965909 3.138942204136523 1.6957011145180845 0.48086493961486865 -0.6229250741441337 -0.021115956043008793
P 4.877644999392652 1.0585181826837902 8.117221965840647 -0.7206686461442104 -0.6676183032864503 0.3852687529750977
P 8.448688667415501 1.412070511387755 12.462167739432362 -0.2161541854312019 2.431537253933393 0.5168603838728711
P 6.564086990209324 7.8959929832348426 1.2327855396390932 -1.1991776839323929 -0.918093116376393 0.2777274781583088
P 1.8854770524489028 3.224016043447657 5.848269190565805 -0.4309937658160384 -0.22980957143110745 0.6928647365580649
P 6.956589004971086 3.956109505464956 5.989373362552342 0.6462282676464484 0.458279598115185 0.06329464629358778
P 2.455896829173007 8.474137720863828 10.290916768181505 0.40413653641387814 0.24229381994104723 -0.4156658772097164
