# total energy = -340861.5285543774 ev
CRYSTAL
PRIMVEC
9.31891855589962 0.00000000000000 0.00000000000000

0.00000000000000 9.31891855589962 0.00000000000000

0.00000000000000 0.00000000000000 13.63917927728271

PRIMCOORD
 96 1
Ni 4.476696664216464 6.040485755178012 9.855807584270702 0.4077818464759493 -0.7404406865648151 1.2869500036523707
Ni 6.48885620427772 7.08416736172436 8.925997571558351 -4.164574684510131 0.9840272571753569 -0.26952745884601964
Ni 5.546303502283687 7.420403263415481 6.272427115671369 -1.3306065640000566 0.8568170431747308 -0.5397545148622251
Ni 8.251799904453009 7.498309422838385 10.189053044985888 -0.15755745883391573 -0.9553093204153742 1.2503158973691049
Ni 0.06419989395888336 0.015707969177421732 6.4796742737897555 2.1112713881922414 -1.5218148781191985 -0.13496697512790948
Ni 3.32475718039549 1.8311022707517373 7.766421233951843 -0.6283619288889888 -1.2796221025323897 -0.33247834864694353
Ni 7.6292775047199015 7.735848657729509 7.205237820170104 2.228205159967524 2.655893772669729 -2.093915156301981
Ni 2.9240157242156926 -0.20518954089343744 9.234979363937484 0.6124637696014936 -0.19910957124408935 -0.32108373365675674
Ni 3.6140723269796355 3.853214415868456 9.064598779657967 0.0953213357118294 0.49982939653251335 -0.08611267262936782
Ni 0.6440649438405152 4.791340631531644 6.411219361602104 -0.3409958991996514 -0.3696822113907504 0.7350544825522373
Ni 3.369338886936061 6.639067853050181 2.8295703480770276 -0.061037989048927134 1.5379729759362994 -0.1524481626318084
Ni 9.043041325280813 4.434621746776941 9.578427176726379 0.5149456833486615 1.0568941205384121 0.17624860748551582
Ni 3.691410032368472 1.8959153495539252 1.9739575651882608 -0.07828906281989098 -0.34643146839292593 0.03917101377250673
Ni 6.086344153565584 7.1946897362166595 2.5910209424106103 -0.9864363808374818 -3.492546682191759 1.683021246559611
Ni 4.47363073999994 4.247796066859433 11.994485422586152 -0.053208979922811594 -0.7380924980476127 -0.8964320864631916
Ni 1.2776423766984304 3.298710802932929 4.264725746264169 1.147809870983378 -0.17310543387084382 0.326422886481483
Ni 4.202235873866781 8.983726408447467 13.405963312416628 2.735239815999225 0.7615373593341143 0.11022293541401017
Ni 8.581670984746301 4.18858365813059 4.52441605064671 -0.9311730894888027 -0.7520726143767887 -0.23522225780624648
Ni 2.7476085952832094 0.5108342285250411 3.959998972113804 -1.383365086649011 1.6568790409466045 -0.3160430859090557
Ni 8.250607082873328 6.470497934652945 3.5511649670293592 -0.543251215161574 -2.738633415061806 -0.555355711734592
Ni 5.539668432246713 4.59127276829596 5.343285269422012 -0.6048047103943391 -1.4438649438062812 0.6529547877370045
Ni 5.199695644200498 2.8915952064367114 6.9576723607666455 1.9725847981208997 0.3248300880730664 0.5047106358842146
Ni 6.19008235532345 1.182645320579163 3.707661294499764 -0.47130120718583346 0.5134775834435673 0.20036786913122268
Ni 0.893353471291496 7.285772846527601 3.056608093607666 1.6609773793856943 -0.1835268863144839 -0.5810096648572703
P 0.3515207919644997 7.249885691032672 5.563898552475838 0.16058493280632988 -0.8020263205870961 -0.5514064972788568
P 7.605523581230789 6.604755594797176 12.065122825507874 -0.2612549344245823 -0.21184964451857707 0.9967755579799609
P 6.773073902392449 9.18023444478129 5.523145057692555 0.07204668145460495 0.4197968686589545 0.5435170672284511
P 1.554293112917058 1.1586118295323127 13.78798306114659 -0.2545566964688003 0.7675521980696265 -0.04712549273289303
P 2.1763029721276466 6.91378957312042 9.742711324463496 0.24645720729011747 2.093430246245762 0.9335971255492631
P 0.9224555221601305 3.226377356827597 8.396674608548258 0.03280290546263383 0.14162947474974963 -1.0950922288746883
P 4.852975959094213 6.251391520735326 4.387069168989478 -0.06430766093913441 1.4134801608668366 -1.0534426716547018
P 7.458088970198521 5.260641371787314 1.73352573796641 -0.050289749393487584 0.2538712403660015 0.04856273940005185
Ni 0.9929866894099134 7.219207811030256 7.6854323762589525 -1.1499893951332 1.8401441889592696 -0.21790613512530216
Ni 7.557232945090898 0.5924055186298854 11.955122310456684 0.4887281444130293 0.9100003120659296 -0.8950637453607553
Ni 5.608581835229053 8.21427261928602 10.923195587821347 2.186698298972989 0.7160391177919991 0.4431666537331464
Ni 1.1539057756437283 3.5768618850447487 0.1669912935878776 1.216009667888067 -0.388536367982776 -0.8730121648773547
Ni 1.7261712474141906 5.365674903229365 8.528483256886707 0.2977381169522808 -2.867663712990306 0.20293048765207633
Ni 1.0685631191850025 2.139446649099228 2.17617157537551 0.1558042235882349 -0.3772368838095567 0.6367972041405355
Ni 7.419639112090998 5.9609953795945945 5.475243952349779 -0.1408707422068542 0.5307024319622861 2.0809411126398163
Ni 6.758331373181081 -0.3468818342897722 1.8183483987677438 -0.47424640585708644 4.59568132175495 -0.8192707094898406
Ni 0.1063456351796994 5.995093302720003 -0.2189358777073997 0.31177531177163725 0.9001499016344111 3.4188416391981256
Ni 2.2725487633381425 0.11464879164450882 11.951644490038428 -2.3677466418399935 1.9916623835776412 1.0063161504805445
Ni 1.1757306829844507 1.1888424014423484 8.691281037108519 -1.1922583311047403 0.2545656953298648 -0.848285608664952
Ni 2.88045909872016 5.347419141709094 13.26357023634223 0.5724841438847623 -2.3723167777091785 -1.292451135976258
Ni 7.930586099530993 1.4473585220823915 7.31276882179461 -1.1997461548413533 0.4794266645064452 0.29385729384063586
Ni 7.669292941150755 4.311127437605611 7.49659753749317 -0.4794886280926323 -1.2770633406662781 0.736601515324383
Ni 2.359550187306112 -0.4011813091373048 1.5668419686920438 -0.6591064091606971 0.5467168051126713 0.938967388722241
Ni 3.05187128728773 3.419446712201246 5.940885153274664 0.06763826797426416 0.007451828292354907 -1.1312342260128838
Ni 0.22642642447105157 4.548638715740962 2.1614141358943963 0.5815015168920243 1.2427378279115306 0.9980441402797393
Ni 8.36700969499671 7.418343782406813 1.4146696194479822 0.3185673949928062 -1.0821197278744201 -0.5513985268590569
Ni 1.8424433946772962 5.751711105872159 4.65552950765825 0.2582999655613164 -0.001532377484126393 0.36644519251069146
Ni 0.4361347089893892 -0.3075951372927536 10.311369442847283 1.8502324264332073 1.3836193687516622 0.9958214215968075
Ni 0.806251403002741 2.494525404181869 11.459761214360565 -0.7319868993705071 -0.8103420395416432 0.5408024965107654
Ni 3.6790251895606922 7.116382863294334 7.971240813777208 -0.5961233805702572 0.9394877800020851 -0.6154475348201658
Ni 5.911064613782643 2.294588005806464 11.119314093358055 -0.30105972512634604 0.5822180833430747 0.065576500349229
Ni 7.874737820413594 8.623447696790905 3.8016891830855406 0.7258895282235177 1.1744938080324676 0.5962699334504505
P 4.251188153226651 0.734266484452722 11.327079383350117 1.4727340614321476 -0.0842787047444226 -0.3459843535531783
P 4.808245149856183 9.054680654601292 7.887605383204401 -1.5800778755261498 -1.77217090624309 -1.277169270116523
P 4.448301919268905 2.6852743488262956 3.8135689405056743 0.15996118317940192 0.005538670430042074 1.1574203974899484
P 0.6037214814752481 0.023004682434375468 3.2775494025959038 0.9506314553237305 1.5917558260847102 -0.4358629209828816
P 8.008939567046276 0.09252008755771146 9.036556289833158 -0.161203026006303 0.07484224192187111 0.014705167420658544
P 2.2310795756070516 4.1468162650045794 11.438047202151079 0.15056920044154068 -0.37246414501126174 0.01067599165660742
P 4.499378912067582 8.541469169943621 1.886953345544714 0.10700828513145443 0.5445390807350622 -0.26113589234821477
P 4.511446911643259 3.6952494268280693 0.600857777792155 -0.01396957480621465 -0.8950663164639165 -1.1172463963742243
Ni 5.6217215104427245 1.3085159539912627 8.801430654857167 1.2047392371805703 1.4711541185395374 1.6409669977020385
Ni 8.280716508841678 3.0538189412733026 0.8405235899058044 -0.868530474956917 0.3390369757010677 -0.7254084748220411
Ni 5.465816002411005 5.393706210351864 7.492096499813593 0.01993170592692051 -0.3276313049672874 1.401392119354051
Ni 6.064659030003731 1.5250037517847395 14.110139940630042 0.032041344706260945 0.6458348888627716 -0.6605063748320174
Ni 2.672712446565282 7.4942650121697785 -0.2323569842625271 -0.7379698564268193 -0.09677709432174945 1.6095422035338536
Ni 8.996409456650166 0.42706460552451936 1.2261879676968082 -0.16264618621073276 0.20136828537127902 -0.2449394850940104
Ni 3.643939461064612 1.9609800391580772 13.261960859101519 -0.5339713325215448 0.5338553757689709 -1.5383380725852023
Ni 4.547380661731143 8.49524733373099 4.065389418137899 1.1517989375381132 -1.704814945395935 -0.5671848431590361
Ni 1.3305272397038101 7.010929980515677 11.808201171838794 -0.4660183615203394 -0.836666793479101 -3.3037469775141104
Ni 6.833348667840695 8.245705331694328 13.331875113940562 -0.9383480099706872 -0.5393703920499292 -0.6954558943240087
Ni 8.361930884364476 2.1810183449348224 9.702038904271959 -0.78075944078852 -0.6623565406668787 0.550407109480065
Ni 2.708217526397969 8.343404874205058 5.847266365215043 -0.6127728162014802 0.0832111827118567 0.43816997184950346
Ni 2.827229435726904 2.0452510199788088 10.324272417528736 0.7110208386418013 -0.21011877787039943 0.2168951773622845
Ni 9.168352823577438 8.342920290438315 12.89177986454989 0.09454897632217911 0.6636814301258892 -0.18574034902603498
Ni 6.265826525633182 4.039835079576956 3.3329513055127817 1.9337050903365667 -1.920585522235473 -0.23263238559188323
Ni 6.776820107666134 4.565953266483517 12.898667477280686 -0.5165572508101556 0.38676847744907583 0.9909736065862029
Ni 3.5027671633256694 7.880701928311997 11.087179666379827 0.05304571487206994 -2.3472467221144284 0.8445130289963972
Ni 3.0600532978108532 4.293896757130379 3.0872281963148156 0.14667937846883125 -0.695636128655615 -0.574400901291501
Ni 9.070830340519938 1.550984896817162 4.790393829402772 -0.8660359906698376 0.15450273116799199 -1.0949433620016498
Ni 7.055185524905553 5.322332612861431 10.29392535913631 -1.2853888298128378 -0.8445528810953973 1.0705970719468014
Ni 9.031485866227655 4.583528746946627 11.939355632092138 -0.011327252087361137 -1.5705624798365467 -2.2746536812380502
Ni 5.08244501048531 6.432486065719211 12.845979243457583 0.06657126016233052 0.721243287700758 -0.3069326389673553
Ni 5.072007821663103 5.1669023696778655 1.9131814419198052 -0.3022159502179763 1.3842919693386546 -1.4086115199206257
Ni 4.734998449728907 0.6641453496209544 5.752542353410499 -0.5813104839271407 1.139303890394896 1.3208620830187834
P 1.9338060725459736 5.825078951941121 1.3574244344337534 -1.411495012116008 0.2604481222525708 1.7090467240890954
P 5.763331797355456 3.7685427215483007 9.260457287365979 0.36193084958010574 -0.33918892789789973 0.01931412694757964
P 1.9772415520998197 1.3185524293140458 5.949478128107661 -0.24577175118731867 -0.4109345331723181 0.06348850747194873
P 8.255620661075424 6.149032518928966 8.338025994394187 2.2075437749634306 -1.172575250853516 0.679456690682275
P 7.33168715842672 2.9302128050788783 5.904646674548845 -0.39326514091701303 0.7212206619929385 -1.7775658520064161
P 7.856183853498402 1.926984624137174 2.5457934348116664 -0.013474380337350987 -0.6035574682507993 0.4286864578391004
P 3.374576119184347 5.182697936690046 7.136768929604565 -0.0011271716259077362 -1.0498552114137598 -0.8223030685582612
P 7.832625627299707 2.765836400047707 12.324376072608485 0.28791136066984613 -1.3742620959064784 -0.6201356843244545
