# total energy = -340890.01345236873 ev
CRYSTAL
PRIMVEC
9.12503405725356 0.00000000000000 0.00000000000000
0.00000000000000 9.12503405725356 0.00000000000000
0.00000000000000 0.00000000000000 13.35540971536676
PRIMCOORD
 96 1
Ni 6.315107449249442 1.6119098603417694 11.643446509431682 0.7955936775878749 0.4256612978595314 -0.03959678845601568
Ni 4.3826077734939535 0.427404724538713 5.998315472937855 0.792482385652403 -0.5285956700319284 0.20184856744180724
Ni 2.6761443120558654 1.6121653612904951 4.710172764807888 -0.237172696664398 -0.19768440876178855 -0.40586688884142363
Ni 3.3268231031555757 4.100507350999002 4.745390833079577 -0.18723158885958077 1.0886744982738024 -0.5469970553572515
Ni 5.259988906384529 4.744871618651631 2.5472103207983228 -0.5337417330092421 -0.8400097418094049 0.21289994015996236
Ni 7.354968935461872 5.979461327928665 2.571864337343588 -0.613592226778982 0.5040997417730931 -0.7297202148235175
Ni 5.0832735002050935 4.879000491698802 11.475087809282357 0.4954562071654822 -0.9350899080447057 -0.1372992228055119
Ni 5.878912579571173 8.09969032576045 12.576041397341905 -1.736982531267415 0.17478333579389901 -0.21515479763241008
Ni 1.904905573293101 6.474220665068446 0.5029517925599958 0.3913123880660164 0.7013830584417211 -0.9111819910788564
Ni 2.679639200033079 1.549303002870061 0.39415310106882445 0.18415654947868285 0.7084967866683669 0.3400584749870466
Ni 0.29855559609628307 8.911453339997905 4.942650340543345 0.3920482377907764 0.8644511626812209 -0.5519073481746752
Ni 8.82914553437266 2.3083780714666995 1.279999527892719 -0.378069149902865 0.5906811265087634 0.45576634477502803
Ni 6.761485856741213 0.6437428528451927 4.912667304210371 0.8031684046113393 0.030548047990186098 0.5622470395377865
Ni 0.6998855363141381 7.401086856706882 2.4953783033357375 -0.5361606268633798 -0.5413329150929387 0.6762901200288353
Ni 7.703517854693303 3.9108070216039645 3.9900752784427613 -0.3933276187238323 -1.1629541828239844 -0.007198060410335991
Ni 8.070106965911553 3.931648598992885 12.451208196311413 -0.9225475526033208 -0.4498823751904252 0.4763541962287086
Ni 8.133763202279814 8.81235547202782 7.08762186774906 -0.7822707352267236 0.4572143900754642 -0.06403358134214134
Ni 6.669843141453591 0.833551770143438 0.7764929332726329 0.38732640683507485 -0.30637368114009167 -1.5456680305877122
Ni 1.9767469650544711 6.591532100669129 9.251519627731637 -0.27713535310026466 0.4249120783983328 -0.04920140142531526
Ni 0.1840957335840582 5.022966151271917 1.498570551990385 0.030843467743417848 -1.076106946021437 -0.3092168070158417
Ni 6.078075569102948 2.052101494860821 7.061819921941305 1.8314093801894327 -0.5346894416344921 0.2672911133163332
Ni 3.6429416519665936 4.52517730288296 0.3899017477827044 -0.14437952669106102 -0.14175751568718167 0.13256607899590073
Ni 6.0243291195316955 5.4977051640722525 4.908487126188538 -0.5118580455622733 0.33690655962162624 0.1300235150797051
Ni 5.42451326729619 2.957532981907938 9.277121735297355 -1.006511554320802 -0.08550049296666565 0.5148430963325262
P 0.38887609397424794 5.6698854284118045 12.531340593858936 -0.5798578106410143 0.23333198276206912 0.40612605604008123
P 4.054644930702717 6.498392879824684 12.530312202540314 0.20119216480473093 -0.4530458605200714 1.9281895598349763
P 2.4295128962643866 8.385614137452405 1.6738067901773752 -0.049813581088017436 -0.09177964110715807 -1.5825906146456745
P 6.242207553557637 7.822344045918574 6.124950868160252 0.5708568926939847 0.6032203966263547 -0.4470042823116818
P 4.546429506796618 1.04176861829399 12.824358206891587 1.2534539287774542 0.3955832475272284 0.3580240583265318
P 4.023473814958168 6.1623817571485855 8.088516721770636 0.11671985599226349 -0.20593276481350983 2.1449006462109126
P 4.907890348972586 1.0745548650358423 3.877222334397344 -1.5072974012293139 -0.6000191160802376 -0.10763177764806625
P -0.05690462379818116 5.574264198351168 3.8612224999867784 0.9935840476258566 0.48041808188543716 -0.26141794236500787
Ni 1.458782666750057 1.0178427794525937 2.419466233959132 -0.34726861958224065 0.8208185135929348 1.9316592635511314
Ni 1.8080342135904839 6.199776146001384 4.688803760460527 0.9647627525187901 1.2569999942574996 -0.8223760878880418
Ni 5.919564605520227 5.5526013679127715 9.269842695768833 0.03590314165451236 0.5327991665903147 0.21493393987085566
Ni 8.634654562189013 2.4495970958410127 10.4574996182751 -0.43819388310890345 0.15349177340497439 -0.17757966759211352
Ni 2.6135739547196892 5.307566833050829 6.717703944170267 -0.5682119988719698 -1.5596327202979205 1.3106905418024202
Ni 0.6432336759545177 9.03686780568675 8.92973352037585 1.1798504443586906 -0.7236835217111343 0.43355149924088565
Ni 1.3120886220459052 1.2267148050359498 11.550439601578542 0.6486335346538313 -0.7676750968007359 0.5433144642993417
Ni 4.084356041025977 6.782674185417689 1.5330275924362264 1.4012021148304319 0.658468261356066 -0.23840965439529263
Ni 5.537399061463586 7.832892585087397 8.419704351536149 0.0754356525314959 0.44747222308703577 -0.8223974280442805
Ni 5.207100209998284 2.9148004482335454 5.03733990464452 1.3175507592573632 -0.15354576657136138 -0.7065951987702798
Ni 1.0001128386177986 7.326754330695436 6.755165858273801 -0.2821708586416431 0.16635268852804255 0.8319117952926188
Ni 5.236126942780314 4.543774121936646 7.038488122805696 -0.37033424315245256 0.19645362167848102 0.23287921149536664
Ni 8.095976436970043 7.2945155859865665 9.34343153151881 0.014304332437814076 0.6684413134083778 -0.3945895161553914
Ni 4.331023956952987 0.369747285445179 10.52461059247149 0.5454744480651381 0.13785843774309162 0.07268842880366191
Ni 7.771909983646875 7.180142411296231 4.573306381595797 1.3850031364730664 0.7957500006600812 1.2645063299368737
Ni 7.469040984034066 6.253613845911468 7.105037907418277 -0.35524135337507207 -0.2282018606243554 -0.11341007489274017
Ni 2.5712976727394494 5.217575748896043 2.523745296168021 -0.3598711388375996 -0.5891184100073338 0.5796007003248856
Ni 2.60842743560964 5.201862440549405 11.613290097454929 -0.7141287881431636 0.20113560053518265 -0.6868195588052494
Ni 1.0380547295035825 3.4893582066807283 3.908754801483663 0.21733072223780633 -0.05338150094493387 -0.49531556782255987
Ni 3.858228576369745 2.607688307865112 2.570529344886495 -0.6184035321246962 0.2050642461656275 -0.21926856269046752
Ni 0.8661546037042406 3.3616442324533513 8.5868202220706 0.17335123133306274 0.41697071206406894 -1.3299126232568257
Ni 3.7275672161981377 2.670614541522728 7.017199418756506 0.031169740734585033 0.7217045436078925 0.41387973184357113
Ni 4.17523225346742 6.923801959453171 6.127902816621424 1.263427495050398 0.5836291047579885 -2.506211602818832
Ni 0.797979650557086 7.704329982708896 11.669209217593739 0.02431235149311942 -1.0799345472976434 -0.203651682088817
P 0.008557456775538284 5.686620740553346 8.555582493578703 0.6731173787278085 -0.6422322591131778 -2.6437445389017045
P 8.60218769163307 1.5608461707321382 8.274691138073257 -0.5618253786193357 0.36630429605745296 -0.3705422453982006
P 1.8130621072600526 3.085931333676545 10.690657921538234 -0.13271854541336497 2.1106419821383584 -0.2613305248575241
P 4.134689727924962 6.240136170866181 3.818084814807977 -0.39057910944441765 -0.8817644571486879 0.366000391663789
P 7.004202632996856 3.9237280695823844 10.4205578311029 -0.6303504200739274 0.58665143652408 1.579978373833808
P 6.388253720856091 7.921149912804401 10.461078456564037 -0.4860865930251242 0.47480664923593063 -0.14683698709261805
P 2.396224772658966 8.618284251402796 5.604410572790649 -1.2240639056511113 -0.14194957709332973 1.7000540336721817
P 7.239710632484879 3.8686767401658537 1.7108945778917046 -1.024022823731688 0.5700148564086635 -1.3977853758393992
Ni 5.517561237801803 3.083412824324819 0.1822397016922428 0.06918967162178406 -0.8237729682355683 0.4969410192411248
Ni 1.8477463610495823 1.167420334863794 7.14867016943354 -1.328975456154537 -0.2542417363315428 -0.782059390546866
Ni 6.704846771429028 0.7864401327085621 9.301575001097191 -0.4113770200263754 0.18274012874713047 -1.0170096256386485
Ni 2.7640275133836636 1.912789602568069 9.244440426445156 0.38288431190332123 -1.3872371680099076 0.13643430370205534
Ni 6.35013845432653 2.083172235232657 2.7071009895041627 1.2377727705967716 0.5788021156829902 0.033995640219154355
Ni 4.210555259628764 7.036797254027164 10.452237211234737 -0.17976253417604524 0.18069790150612106 -0.4526285704769947
Ni 8.063828942600004 7.307099007711313 13.28345052409263 1.5624087403811606 0.23745937466688133 1.2587645423570901
Ni 7.40932676230329 3.9815716593671326 8.232074492329179 1.7401768698349966 -0.6639953618218823 0.9094480391068852
Ni 2.9498497033783977 8.557675776351479 12.574371516141305 0.9789012488027012 -0.7082155079825222 0.3332419662858454
Ni 0.45687037145051795 4.959382915174721 10.453211764853448 -0.2900569462579392 -0.823501973962369 1.0286222701769123
Ni 8.85314437348512 2.3572882530799277 5.804634803763024 -0.2602524613019969 -0.2102501612419411 1.0043356297154058
Ni 3.8166184218629686 2.789577608256245 11.54623204845506 0.04372855123620211 -0.2895872057103722 0.1631328960391642
Ni 1.3441448660771123 3.5383048884294883 12.884270441857625 -0.18700378911949084 0.06968718008349288 -0.00952388033003521
Ni 3.152872582242709 8.252470768064606 7.776106586729696 -0.5808001199496255 0.9831050024714036 1.191935657657999
Ni 5.762577522595978 7.853478661527592 3.651195245113826 -0.916467407847512 -0.13780238769417555 -0.6806908201996923
Ni 3.232981254702136 8.408855598752572 3.700917554742647 0.4070912481668279 -0.5319427321272903 0.2774094326972577
Ni 3.3675572544095775 4.429574322890089 9.264553826130207 -0.05779479952128111 -0.13125867303838684 0.0895353251576716
Ni 7.318587425370092 6.211656940117136 11.49976920092927 -0.008784945281481644 -1.5517908556559985 -1.374407363235091
Ni 0.5642902703219582 0.04472817858461933 0.37795251591283097 0.30581472331282816 -0.952476221841953 0.34611496559377164
Ni 4.511489752058362 0.1130199321654772 1.8495102300991788 0.2484701239550882 0.799484785112165 -1.1031099569728422
Ni 6.152262094572266 5.343364340974093 0.2641268432554791 0.514754650383778 1.5518103960400242 0.5117505734501316
Ni 8.2531733956736 0.052311994244834584 10.896438385642007 -0.3657016294764476 -0.2423915218611761 1.0747563455308133
Ni 0.289468887355527 5.0601597893792905 6.179267632349196 -0.852176459078926 -1.594186804123706 0.2544294268623167
Ni 7.91337538393603 8.969397305155368 2.6443043313276866 0.3123754072494814 -0.08430338733477094 0.16622439048029436
P 8.647338359286474 1.6454808599975652 3.7128841241768984 -0.28821320818098106 -0.331493616136171 -0.21616292718195032
P 1.8245140247832992 3.2926772263651465 1.7108416526951828 0.6842641393732474 -0.5134986664894898 -0.08097252318932506
P 4.542113365769928 1.0181074054352026 8.305608577875857 0.7983758683187024 -0.5036544267055584 -0.031447419876003906
P 8.48399112774573 1.4181488908687687 12.650591099159769 -1.3291975994676721 0.6844361461747375 -0.7189172106707424
P 6.550131821941663 7.6885345490573105 1.3169039024259985 -1.2176076085028062 0.42258471581673673 1.5623516618909803
P 1.8358473168660656 3.1405720365683374 6.144690141456099 -0.491654831141521 1.193687093131467 -0.1867453932517816
P 7.230311847585321 3.938684000116728 6.185811194146742 -1.2181035743026183 0.3884324954150601 -1.980049739039377
P 2.2756283248603797 8.678199223879 10.401313134643518 0.408708986275909 -0.6576480794476157 -1.0403133333615953
