# total energy = -381169.79957736214 ev
CRYSTAL
PRIMVEC
9.27622467806336 0.00000000000000 0.00000000000000

0.00000000000000 9.27622467806336 0.00000000000000

0.00000000000000 0.00000000000000 13.57669247150208

PRIMCOORD
 96 1
Ni 7.583183722171597 8.780373265703188 2.195907768943402 4.118736286019779 0.9206403082782789 2.0780825601450985
Ni 1.7896898357522117 2.255894330396646 0.404470292481432 0.6279202133658798 -0.9571864828334289 -0.04350023727547992
Ni 3.87783292095108 7.453641245994481 4.2619957025949216 -0.3396681815271634 -1.3321589960888414 1.1825035657108216
Ni 9.426221125449379 2.544301428629567 8.305771932574292 -0.08933272222856228 -0.13255425192135883 0.08689017422534069
Ni 7.5742321654576035 7.529177542701266 13.263111573997815 -0.08905915685220146 -0.1605247689923558 0.8814178724425465
Ni 8.676572312719161 5.40024689805014 12.97436218307811 0.5367877189244175 0.1960072781696818 -1.450223281924141
Ni 9.047908858644414 7.1742042569247015 8.864996552002749 0.7761538236957084 -0.7607966245133478 -0.7079483703640645
Ni 4.074108556714174 5.306445715156978 0.8732062688121346 0.36002771902012193 -0.3012466443261715 -0.1250412313737653
Ni 0.5745183308837544 8.989598510971707 1.3612126740730441 1.2020786596292716 -0.06978231090046047 1.3413054384747998
Ni 8.272193854861012 7.971922465397835 4.529347626289581 -0.3472246537181827 1.6785956066880896 -1.9116733073475078
Ni 2.774314693168613 9.042037008489018 3.0079160013729163 -0.5145263364230559 1.562065498109129 -0.059330776549833306
Ni 1.24065793188576 7.990215180257935 7.3342107822255755 -0.07233155968487544 0.017665792710879254 -2.789892727457415
Ni 4.465797139354972 7.664220820050816 8.801321763658848 -0.993068798552335 0.8690961176523999 -0.139962628570288
Ni 7.390377394399211 5.339394864844134 8.89015367304767 0.17472034376644746 0.6937995896675083 0.5245577525171289
Ni 2.1450898278591843 0.2782681847734439 12.316558197478379 -1.1417798627392142 0.43387005892256886 -0.26521314774138194
Ni 5.398567901402231 6.703157573052594 6.801434534302753 2.5296544072228047 -0.4071318715967763 -0.6880727144860602
Ni 4.384157086878438 5.098982952557536 4.184852763791905 0.21952593011691224 -0.19548148757319883 0.03792917094560565
Ni 1.9429979992881379 1.050949863121119 6.549409716471856 0.9520118806110248 0.429399424745725 1.7029390685294608
Ni 7.94482661341693 7.080226825764632 10.901174227137584 -0.7671932720683109 -1.6914269541248033 1.5949527357554532
Ni 0.20862600116103283 2.6787974087292454 5.8443313075752075 0.9946513125481065 0.9041927042452169 -0.8217649366666041
Ni 3.233673334077372 7.711984100382786 11.352884620885009 1.3755185940213988 -1.086368475848445 -0.8095187723093994
Ni 7.593146387364166 3.412444734069165 4.353909173787257 0.6173061852954593 0.30653411797735597 -0.03264092596347282
Ni 0.2669103754049325 6.542400601183677 1.1324850942599662 0.7052240294543661 0.7255239173539828 0.5022462335041221
Ni 7.953314358902219 7.038947626409948 6.401993810785389 0.28838212965867754 -1.0558291696090074 2.970751837131748
P 5.181968057597313 4.32123645559241 10.408435092098976 0.3330468195559038 -0.8645542639179884 -0.26011773549634554
Ni 5.353930708751727 4.238798647802504 6.428224191013535 -1.7475425661714483 -0.06287761336082719 -0.5326544134823342
P 4.596703220544479 0.605215213244321 12.619128235391013 -0.009313821201758153 0.15885509459941674 -0.17492166114397617
Ni 7.894326846835603 2.0201761877445366 10.316439990130387 0.4175782637410808 -1.2606681871377063 0.43296528772011245
P 8.467245028980328 1.803437200571008 1.1556144326129931 0.5024190116365606 0.09015598946080602 0.40784458139308466
P 2.088180190097164 6.260208573415394 8.476228124857872 -0.15001204238649002 -0.6510269745866722 0.2583251623722971
P 0.5339942162094005 3.5615322154238815 3.3735365377156166 -0.7255236602436667 -0.22088835768207765 0.9557104125085347
Ni 4.0944327647559975 0.6535053831320999 5.261334507430739 -0.24911187130414517 0.44802501026671226 -0.8348626503908266
Ni 3.642875428714045 8.015975255900171 6.5208445105184145 -1.6179571670704265 1.5178304395501536 0.7158002623083156
Ni 6.526259970424767 8.96063813785141 7.021566764425481 -1.4076550695446273 -0.11457478462480268 1.8938828161333061
Ni 2.628483166639401 4.423664527339471 9.570889413417001 -1.1740243245952167 -0.7117883129354451 -1.0694182211473517
Ni 0.7645835342944977 5.823567406488573 10.62761743682532 0.6628905587934777 -1.144402645074042 -0.11107217078818289
Ni 5.355990030607174 2.8843863739647224 4.52260010053439 -1.2415744037310488 -0.984055539310131 -1.1424743177030776
Ni 6.005715352225334 0.8524553544399033 9.200381234346214 -0.9390630337598408 -0.7916598897511075 0.3988963710608614
Ni 4.59883675219652 2.7571444014819795 0.4494442120839751 0.1609240613133035 -0.33930025666478336 0.5945372670300599
Ni 8.835093714465723 0.34453846075317457 13.12514535828497 0.5552803784119663 -0.2350404808127436 -1.9381968075593328
Ni 5.995298152028634 9.14852806659953 0.9916645842456753 -3.980903559308299 -2.1070030998341904 -3.3473932534491513
Ni 6.713648983045885 1.057276248280646 5.209553694235731 -0.37256107560044227 0.5990284700321942 -2.317421668333196
Ni 3.860439999874668 2.2069158646454703 9.213767754029078 0.5222103353308748 2.1523036235432027 -0.2427555900688142
Ni 0.20440253611245127 5.0310067788786315 7.433292919768764 1.7536129407352443 0.3694520976578153 0.8641140910567762
Ni 6.4858620124046205 3.1013665429771775 8.6920153713901 0.17772107826598424 0.31365607373411786 -0.24546244747701595
Ni 5.502433787958276 6.662073174413965 10.588122983078689 0.1382433318863361 -1.4342783285591105 0.49408323807735555
Ni 0.6102642622799962 7.621670777929482 12.23477250827603 -0.021080217709066918 0.1843792070124502 0.2539514587846336
Ni 6.020084224090594 4.313843304606863 2.560930916423531 -0.192010755415779 0.3425935827040745 -0.5387106469787433
Ni 9.225604216585612 5.2318741458058975 4.990561512113157 -1.030783282383973 0.7139025310649705 0.728083707661359
Ni 2.31535492991654 3.3178179671889096 7.390173317458581 -0.28608279210153953 0.273661021398419 0.290454438806674
Ni 5.725749618354832 2.326078245524184 11.544193766011135 0.42194245424704757 -0.1242022804122377 -1.5091745636473686
Ni 3.3370011996081197 5.621661102409009 6.536417436333391 -1.4307805998184973 -0.33675820696922004 0.2213555271264833
Ni 8.648196341747031 0.3426971301752184 6.334748603602923 2.3545625390495513 -0.6654292660549314 -0.3514415200130076
Ni 5.514826823989256 4.6149681067308554 12.522231576357479 0.13705805332898333 0.578369656131262 0.777144726854068
Ni 6.76117108153893 6.052059370197469 4.434799707318205 -1.100560451078111 -0.5677597418258996 1.6830032488374822
Ni 4.208947757123094 7.565289884968184 1.8343604228111823 -1.3619549964043511 -0.6631615530666772 -0.7649327581689085
P 1.6073285368502475 6.671943077360793 5.406591835658816 0.5070397982380236 0.4904998916014714 0.7575261812921921
Ni 7.594083286046148 4.2519059531256875 11.117193379284164 -1.791687893230095 0.7345083802407802 1.0156363994402056
P 3.4894559504832303 3.2743495788347405 5.66959970338543 0.46542212269723715 -0.6031383784355097 -0.8126436910916263
Ni 1.6954712227532163 1.8621278734512525 10.6287983002136 -1.1423997557114003 1.3863977028277479 -0.3361519408437888
P 3.708643860944318 1.8671092060475372 2.2690452339753286 -0.17008438765633288 -0.5698148245827154 0.16849313190981305
P 7.718653705851555 2.178799627961414 6.812824810457273 -1.8575045346145882 1.0872531924462436 1.3763338908338425
P 6.521603305688575 5.757158914762688 0.6403544795534177 -0.1486475579387956 -0.14265225958730918 -0.10426800338215592
Ni 8.210191569807819 0.2656005724950715 8.671555730469494 1.3760580114646366 1.0095539406915517 -0.26861728832692444
Ni 2.94685247024662 3.9690645896372194 2.3627248983265696 -0.6101598040586652 -0.7521849715849369 0.042786241927590826
Ni 6.317220249647729 7.0187811141858845 2.37216067396333 0.288554907791116 -1.872314088823595 -0.23475123170709894
Ni 7.406100595052287 4.64031075226726 6.671640672439677 1.1036563163946156 -0.4986603159250767 -0.8992692988016706
Ni 1.2938478035935714 9.085356977250001 4.826364916172168 -0.3512990808978724 -0.49876316005152815 0.590312687425751
Ni 3.058816500855843 9.381973534230989 0.717706133409352 1.406424796681952 0.4243556916742305 0.6222792130300187
Ni 5.011007238696901 7.166866763286599 13.221471529507197 0.8763008629309552 0.025599188625343012 -1.0642323060710381
Ni 6.862235548273602 1.3772039576163118 13.230052037238227 -0.14823618143298986 1.2916582077613175 -0.2898072921409783
Ni 5.226447554430058 1.9263564524022267 6.951537762248331 -0.25541415937308914 -0.32409500967925475 0.48870474737426156
Ni 7.441953203031131 3.8010072290284964 0.3937107995979492 -0.9237539142065961 -1.3456601158990695 0.4145201936410474
Ni 2.0786720599087256 4.566193717920309 4.57440874240312 0.7957260894006811 0.0018491373935968153 0.33949694605662173
Ni 3.4948639894099225 5.45751830857055 11.282421491397791 0.12093569384582399 0.11955501144821344 1.8122184090832791
Ni 3.6363449666138883 3.076960796122756 11.917430082729162 -1.9467434115777633 -0.28580305607759166 -0.9045925107867969
Ni 0.9145541122286673 7.33932105434344 3.499067046764441 0.6400761320021234 -1.4275042430600704 -2.302951242631163
Ni 6.1878725741866685 8.628484364527097 11.574401791336648 -0.41785825687534484 1.5832891833745957 0.13186956714950837
Ni 6.163401893760228 1.6557689815761263 2.1656181128416376 0.4179179064686867 2.4187339315211376 1.6583746516555244
Ni 2.0270962512768054 2.023608390836949 4.18337227834988 0.8725190272910199 0.36496526553105535 -0.5443938134064495
Ni 2.6312474815624785 6.781717918970532 13.11238312851594 -1.4887558907817007 -1.147429604825824 3.121676106919862
Ni 1.8881755120552872 8.234643697785112 9.528068505538105 -0.6359158299768468 -0.25403553385800764 0.35410518288809983
Ni 3.461961220845638 0.3030292110290528 10.414993382872856 2.4463591494375736 2.198613819463652 -0.1711328835255053
Ni 9.106144996520529 2.6150882983544204 12.432013799017287 0.08869817396835693 0.718516118577582 0.05197330774349759
Ni 8.259207140457292 5.36973739542597 2.8875857438203245 0.5209001011598835 -0.4110175798044276 -1.5028133973160311
Ni 1.6778092911641558 4.224856482267652 12.688247239937446 0.022264210714839076 1.0761555398711853 -0.41611839136610274
Ni 6.889006732394415 7.7580405553931255 9.01964884047946 -2.255059304045891 -0.39118768956269406 -0.5558740461319073
Ni 5.265491183662387 8.95778106068259 3.2665788855090283 1.0647465267032954 1.9233299177498298 1.0469634916882613
P 6.101965458406054 8.140842514891949 5.167180828003762 -0.8892430249139202 -0.9491353303941783 -1.3194410343015404
Ni 8.787877731383624 1.255351471611113 3.7342017148908404 0.17841913277427338 0.14855808354878286 -0.7958844693554165
P 9.125680725473554 8.771792757972158 10.448839543476323 0.7337123667020461 0.9918868624290919 0.5391983852484391
Ni 4.944923414831108 5.123249556043346 8.463859207010787 -0.6282724544989761 0.1963677468328941 1.1046770443496459
P 3.502850818768211 0.4106139360168494 8.201625904036108 -0.11262794531107699 -0.8582782011012896 -1.032860476627976
P 2.3387588445169603 6.547289171534221 1.8667001245438197 -0.30052493566879857 -0.6621151140800339 -0.17347258740227545
P -0.01304329937362289 3.7449881088255883 10.101778877261456 2.3358716475082675 -0.39305251068557473 -0.37705562103668616
Ni 0.4383210911971881 3.9260414600626063 1.2862533585347669 -0.4109237345390407 0.1455087551994978 -0.17875054797176312
