# total energy = -381165.63263025845 ev
CRYSTAL
PRIMVEC
9.29361715711273 0.00000000000000 0.00000000000000
0.00000000000000 9.29361715711273 0.00000000000000
0.00000000000000 0.00000000000000 13.60214812266136
PRIMCOORD
 96 1
Ni 7.9284869278001295 7.258138330604427 13.126032406284668 0.44619978413251543 -1.7202598191960954 0.5244137707400969
Ni 7.467123897014239 4.907698938282674 9.352619427904052 0.6802334209472994 0.4798956337230638 0.23705159770550144
Ni 6.268749153994731 0.3882213353084207 10.851753276255428 0.1409476181913766 1.5112098489098424 -1.5244338037992844
Ni 3.1981102026672414 4.930747108545329 13.525295487999967 -1.4140784565724678 1.3967798173930204 0.5164438651607428
Ni 7.366204509561749 1.156218896119748 6.612902016016274 1.2004840614486423 0.7595246997794597 -0.6639349408975921
Ni 0.47717704954352547 9.034111372746532 3.3832622881744006 -1.0519447469529366 0.1687913798765222 -0.33155455128109346
Ni 7.475237224691376 4.4832687416192805 0.4233549251717041 -0.6008842922940103 -0.4066703585793255 0.7147689928303238
Ni 3.1765304238971264 4.033745778944125 2.6073140379841613 0.5538382466488009 -0.6090424026247705 1.7439039409775967
Ni 0.639300481383816 2.534192788464183 9.468469011133543 1.4226062915378208 -0.6285624749355692 1.615430801104147
Ni 0.5323355960458992 0.9560808531333418 11.566123878652805 -0.08346880724861754 0.7627892294633444 -0.7604189294589548
Ni 1.2024174664325142 8.827570027618606 9.654165702599327 -0.26069443393542197 -0.11140795686104682 -0.8868357010240082
Ni 0.36497056419426277 2.1251992897065435 3.01786793504305 0.5840885608929102 -1.346421419545126 1.8996886241818056
Ni 0.48821879595040496 6.657937954837161 3.7171271161311195 1.0538638183525206 -0.14902551010350462 0.23559763886779422
Ni 4.627552146186912 2.5669620821521355 10.953034185410829 1.1428484132130445 1.7488335170687301 -2.3523498476689486
Ni 7.672457071926784 6.8842839978802965 4.758983407748001 -0.1347486884695163 0.10955393437144359 -0.13377089793727928
Ni 5.010356232121905 4.280147447562587 12.422379203059428 -1.4979691818498524 -0.9727863941542151 -0.487459819223567
Ni 3.753245829400791 8.857318895768106 6.440834413941691 0.2627973392110377 -3.3228651864008 1.3807919266051962
Ni 4.464170358599217 0.7643265820799767 12.143031662029225 -0.9745522278053862 -3.3662731210727896 0.08248098941405149
Ni 2.2825309326002916 8.847384019150857 1.2645034750775426 0.5941598290859832 0.509460234754058 0.521170838322767
Ni 2.41305049032962 1.2074174324007838 13.230972212469265 -0.9570216751207905 -0.7376564389514587 -1.0930037217767758
Ni 6.110701902588796 2.269064481507313 12.8904289913066 -0.02985513568821955 -0.07873129256363215 0.4338204366315561
Ni 8.238085192300067 0.6831087333935361 9.34881090364049 -0.06126681723028157 0.2068226236176309 0.00071270979630845
Ni 1.5927215013199112 6.862509053152312 11.274807088234992 -0.38258477838503147 -1.1284314664567663 -0.1510379125478431
Ni 6.12593414091964 6.700493427269701 2.535617499956628 0.4956454403581528 -0.5814372393129922 0.004029175764051126
P 3.0871908832782116 0.8455267728940389 7.978271904929169 -1.5989549149363107 0.8281965512245608 0.7920458123356166
Ni 3.9839784596874637 4.98738241079558 7.235158933107877 -0.3746192436810516 1.820104239589259 -1.727983155982282
P 8.907876172473285 2.7849159890068926 1.174901854458061 -1.0924452781701441 0.703982186627465 -0.14870875019403423
Ni 8.127258809081452 8.204330775205726 1.6891966811032073 -1.8377281233186094 0.4450425305996206 1.5842489761847038
P 6.153452540979206 2.394602660502454 9.095361885219539 -0.19715707550340886 -0.9502028524267442 -0.2968778258345145
P 2.5194252309854086 8.712180478432666 11.428973325164442 0.06302390913070437 2.0269273774275223 -0.11098475328069918
P 0.023606716646843273 2.26157382617195 5.656249605434885 -0.17901845692116913 -0.42930095149464775 -0.7308507288835349
Ni 4.3756672435140285 0.5215401304906166 2.1271723246044316 1.1869024661094656 -2.097246534668059 1.3535698576644497
Ni 5.04674074283896 4.103726715265817 1.2890088844922885 1.4341340896717625 0.8724539783810394 -1.2505228711735885
Ni 7.631137650560749 1.6556299950731028 4.147566565573478 -0.19297491910126122 -2.848826011458513 0.5084410494609244
Ni 0.20115476469073443 0.6066166889726439 1.2302276860671797 0.7069291850709309 2.01495529266731 -0.39134478396584865
Ni 0.7048065411000771 4.2887440433258766 2.935710501673725 0.23969340620372268 1.4663289292367518 0.030611040017637602
Ni 0.743484716502948 1.1585515939971376 7.342969537596561 -1.0182347562950012 -1.9115537510505078 1.125595796780184
Ni 5.243365798583719 5.4464313309381645 9.661238145167829 0.020206042634229718 -1.7840653436878304 -1.0866929490673995
Ni 8.68592601029073 8.399171456478538 7.6190661713856835 -1.0244676245785904 -0.20032570303937758 -0.32978511808549654
Ni 6.668690669754053 7.37848137767343 9.384312520738613 -0.28651165210884205 0.8197985569688526 0.35363209990642325
Ni 3.7784222379659256 7.3515763563385965 2.050237904012369 0.1415788240174723 -1.7295067917156601 -0.8733952592483862
Ni 2.290235341127607 0.9603745042064655 5.520744951524554 -1.2923223237078776 1.220522725267072 -0.6035803510689347
Ni 3.690588263307717 3.6098174376009675 5.202985032538866 0.19310450270059004 -0.19542132375922475 -0.39357573017889635
Ni 0.2827806031652923 5.136926002608641 12.729611312660627 -0.15014625397150916 0.39552771169894463 -0.2667753500221792
Ni 4.254432009209052 6.963893121456872 10.753884983277628 -0.6879287327090281 -0.6518839232703288 3.2464885101122736
Ni 4.781082699710731 2.043341110805951 7.4337375071547385 -0.44167747078212966 0.5358340967618965 -0.9115455450658625
Ni 0.4392646681848654 6.66913676337204 8.763905033438245 -0.40497703003730257 0.9574909014477251 0.20550107659272995
Ni 6.904088695795505 1.371933041267529 1.3699674412632743 0.27179182940016416 0.20513186617876933 1.2095615982698784
Ni 6.1912775623376755 8.324264903124908 6.119687900906119 0.039588046705267305 0.2754502520883579 -1.0948682857893401
Ni 5.466830820344022 5.974401715059721 5.644034075195679 -0.6713379182298825 -0.7880415762722299 -1.6837748368961842
Ni 5.92230169792567 7.763915557231137 12.082570177643033 -0.16585389451475308 0.0006962547360762203 -0.13056833183958158
Ni 2.562798541717591 1.9093271530690585 2.0082753643470697 -1.5324857275694834 0.13948543182355333 -2.008895716736792
Ni 2.61067925671485 8.437851490604817 3.7869063809630137 -0.6397148920079628 1.3073979870940775 0.41005752988400346
Ni 0.635424113715851 4.918665406391518 10.20828925443707 0.4090810249033471 -1.5682986235030347 0.3700678768649433
Ni 3.5711931651769366 3.7022703399287487 8.834880386783366 0.21015091665991548 -1.7084204033590062 2.5055724265729364
Ni 4.89553359357549 1.023162180938119 5.2564818803142375 1.3138859088112662 1.2473565576304646 -1.6356507276954477
P 4.348204605156711 1.6507322588922884 0.4237452570874426 0.7149343147635946 1.4887358361770426 0.7232986275678899
Ni 1.888091238129475 3.059914117261722 7.469211243401737 2.5302668439958227 -0.6416082523759337 -1.5854000590700115
P 9.117837568672446 6.245766039051365 6.527562448171975 0.15575177308374466 1.5232726936116476 -0.4561964903339111
Ni 2.8962628147798264 1.2539226920759161 10.201175919953586 -0.8887164629864887 0.5425549604254979 -0.013691638554479645
P 1.2042483089896687 3.270776994313896 11.582215776559977 0.02826927925833841 -0.21395126424261218 -0.4833419404004515
P 2.1594090940359125 5.569469526949171 1.8798171308775222 -0.5974765521640419 2.224491458561362 -0.5571138320762793
P 5.600166344036893 6.060200387585865 13.36257354722221 0.24501636107853292 0.7568191279228386 1.5630499735095855
Ni 7.978040493864839 0.3499093284169807 13.119312191802036 -1.4327094414100938 0.23705905390466914 -1.2574635641574796
Ni 6.093313545104349 0.15861880885398116 8.12562406184387 -0.36064889754388857 -0.26550471083987176 1.7199147771518508
Ni 8.462163592785101 5.899597391493545 1.9219832007560282 -1.501141151819931 -1.0858267444123624 0.6885599385351239
Ni 8.379589805372321 4.1609661026237585 5.943009735417303 -0.46609575172549406 0.5410994589258938 -0.28704644156638953
Ni 0.6454444916098813 8.379069362818004 5.608791750013011 0.325061230247266 -0.6982334570691459 0.4210489958985007
Ni 8.214999847569246 3.07150325771234 8.18720078027503 -1.5095895396976002 -1.7703299963796089 -0.6884367826936982
Ni 0.7083567028098894 8.429756750161763 13.107832716032506 1.023088999063509 0.12296763667418822 -1.9198437589734418
Ni 7.269597360416465 2.8468021848855307 10.8152172795806 -0.9971110869425086 -0.1369426107970416 -2.5312279223575116
Ni 8.38838156709348 6.485922397018012 10.827404928968681 0.6133808820991243 1.1365258134291265 0.3070599085738389
Ni 0.7857576629774299 7.15690296017253 1.2664384061455607 1.7409168333248144 -1.34560098052636 0.464072036427246
Ni 7.011671606666676 6.456693971422829 7.2340436990629104 1.1102979900808492 -0.9142750281818836 0.9199594801611704
Ni 3.0097378788552396 6.241221460318124 4.310316387202358 0.7439975506781381 -0.6664736481590456 -0.37159691191496
Ni 5.941195621370822 8.436550384219021 0.7973988476834791 -0.7970242393868144 -0.18770775716505095 -0.3157306968749594
Ni 3.390357964785504 7.555022926991739 12.929181515645803 0.513796914456199 -0.26703246033830785 1.4692255340582567
Ni 6.949432253340464 4.979343432054775 11.856910932899256 1.8804793982432066 0.9751150422873915 -1.060644845830096
Ni 4.115520315291345 8.580164648359673 9.418779758260028 -0.3220111305670325 3.512176540607545 -0.2857395498295079
Ni 6.377995622316311 3.1150438535512674 5.408159286600002 -1.532510924380464 0.9630442271657864 -0.5631569529465656
Ni 3.0460387470189216 4.64287732068817 10.940983152193255 -0.39969855524718256 -0.4818491579050089 1.0320631775376612
Ni 1.5323501650190199 3.2837787645548056 0.12507071005795942 -0.5806036876681033 0.33196361379405415 0.6442688299272324
Ni 0.499017978952504 4.581269933320773 7.818881725860753 -0.1883867855099465 1.6868221083629402 0.4738931362827259
Ni 8.35442269042423 2.784692942197899 12.573866090195844 3.0967942560765183 0.2077207099518681 2.324066427343223
Ni 2.8304825933608444 6.194586090004412 9.158775022378078 -1.965243784374796 -1.0818181374736013 0.06559655495388703
Ni 7.560032186577049 3.5020765352400938 2.95325778000958 0.04924151063463132 1.753779805330412 -1.2481068055329279
Ni 4.815385440210514 8.133717872925219 3.9706170264670524 1.1092736625813928 -0.6492477711990624 1.2015104458306276
Ni 2.1210078684208753 6.599852848328453 6.933504852454924 0.5379740259230347 1.511896333453906 0.0692403223540614
P 5.974587587400549 4.796584452935775 3.684250945847191 -0.5345526589463117 -0.2431109165257039 0.4469806281625979
Ni 5.1822695601536 2.594452601360577 2.940539465088433 0.7437003311526934 0.020508661476313063 1.6924985899224274
P 8.051627353598592 8.581883967512333 11.152808847970919 0.6484988088481799 0.18875419615169428 0.03519017474788778
Ni 1.4118026583751064 5.081768385467972 5.495771143810922 -0.5446915471525264 -1.6859170800501677 -0.9823902357925661
P 4.288418766729428 7.145945785680726 8.038556810591576 1.4631302197937963 -1.6502283683993062 -2.8310602028346596
P 6.818791878589598 8.817895372278516 3.796468583536903 0.9403827810125288 0.13182637261639876 0.0688752257051588
P 3.3392337774408 1.7674229144640237 3.8482377479042804 0.6408135243887803 0.25256614840133274 1.7993274120532237
Ni 6.091900915314057 3.994619651199859 7.601288411347202 0.19298623195517084 0.9622788097546716 -0.23602906997825804
