# total energy = -381173.47711901943 ev
CRYSTAL
PRIMVEC
9.23566473261048 0.00000000000000 0.00000000000000

0.00000000000000 9.23566473261048 0.00000000000000

0.00000000000000 0.00000000000000 13.51732889147362

PRIMCOORD
 96 1
Ni 3.5794481075331652 6.111183936924746 5.19664255563776 0.32387492324864864 0.24847140950666885 0.22658900761128076
Ni 3.5080287121869183 1.103449514778671 11.0117569412249 1.6911518460865456 2.4341140135216333 -0.8342095901878601
Ni 5.089664003953466 3.2358813796293293 0.7281037881102035 -0.20655779999201845 -0.04144129786392218 0.8255683695730943
Ni 3.857524736846514 4.497630187856165 7.142380999398651 -1.4337440533221952 1.2704514917767151 -0.1587126554842815
Ni 7.696541201576919 1.1811953404640068 2.740408285402464 -0.05166169004034974 -0.05038822264456483 -0.5715950564115897
Ni 6.737869967083745 8.01385093465735 2.6878398053337587 0.8780209309458555 -0.15058257017797938 0.2715624869981775
Ni 3.848409135759388 3.5738051163839915 11.020434771803894 0.24582754412591856 -0.45500298424644214 -0.1026680058848877
Ni 0.6037076963142477 6.410558009102242 4.991584938801648 0.43535898476326956 -2.2754550940934233 0.8929577547613461
Ni 4.26543634091449 1.2111373655141204 5.258146541331382 0.4487559748954658 -2.0825452239021427 0.048508489123348715
Ni 0.41131032868809986 4.663124064127908 0.37477034475587584 0.8231960126861758 1.316132795863914 -0.6242324801016474
Ni 6.62594294623787 0.6052435873586136 4.640687863802726 -0.3051989441057002 0.047460764585124715 0.9494957990573906
Ni 5.900241354523574 6.029060406158055 6.702594345652866 -0.3544880201488153 0.07623809382813321 -0.28188469485979195
Ni 2.0181682208284473 1.9445969156004377 6.368486785564061 0.4591702282502544 1.2070293187663277 1.157143232569162
Ni 4.729463843873425 8.666350647732779 3.538823189091482 -1.735898554174617 1.1762033345244065 -0.6339934161431533
Ni 7.372932745151582 3.2756870946095855 8.310143065514913 -1.0736672262316929 0.6632512845670061 -1.3724322417865913
Ni 1.4587178298936399 7.1727866548181405 10.015245341205718 0.20416744538297094 2.106417659644366 0.588925063049605
Ni 2.100781241825754 3.000676705986131 1.347521350127796 -0.5579360708672584 1.0059803644076803 2.483610577589865
Ni 5.783382488712627 1.9004966165213835 10.146539550987463 -0.326416972944212 0.7895125043908016 -0.6702300298776844
Ni 6.709488769372764 8.69691146231971 13.327964680677562 0.8771480414225991 0.08877042196718905 -0.477772416732474
Ni 2.3121209578102557 7.673156498484108 3.8164010925094867 -0.8023477084822569 1.695869306166873 1.6540251164375774
Ni 7.313898376206386 4.523480813431511 0.15104560237032444 -1.5026259638955732 -0.024456590380467557 0.1481078833852417
Ni 4.750003962229827 5.74766817320714 10.277373824665725 0.18481937987366234 0.3044697792491595 -0.5197590455769049
Ni 2.2370165322372992 0.30267212805207766 8.996620789126853 0.8381917147640596 -0.10588676993250151 -1.3849949089429503
Ni 7.512188097929379 5.654775857366904 4.391171604096092 -0.8712630433967317 1.3287638543643632 0.03502562414556549
P 5.482456824860727 6.772374410509785 4.170015300071563 0.4939803939509041 -0.988886385039871 0.7221657995150272
Ni 4.801317315461915 5.017090150516145 12.772483778443105 -0.21158379245170011 0.6646743901667779 -0.08203978811157484
P 7.329192636996943 2.4404782262083073 5.727575984590074 -1.01043402930366 0.512261451648279 0.004514600040901902
Ni 7.859892403631626 3.5436414353803913 3.7153730796098294 0.06756910529922557 -1.2221867432330564 0.20952716703298754
P 1.5442400852804548 4.785949169353529 6.901231328369654 -0.14415044139939046 0.9104057750344644 0.7697803160691968
P 5.341335867807754 9.122851083937908 11.308380632446221 0.5100407898478764 0.3560880176460835 1.4643905745634587
P 3.6759515682822825 4.915220768559712 1.1578069431053057 -0.054242820503964645 -0.1225986833705437 0.6796343539107198
Ni 5.422157169847712 2.3550575631335064 3.3823470158607423 1.9936387905777215 0.671670876089269 0.10993342919804938
Ni 0.3347697572498462 0.06898856838967933 7.403562827223977 -0.8923558595112889 2.3928933163089496 0.16970797815352065
Ni 6.710301507868881 9.154797248234129 9.53870628323895 0.6146890593875866 -1.8843401667501936 -0.2912586798755242
Ni 1.1686810147567568 6.900297602665593 1.9593370365072798 0.09214602330764131 -0.9961808618187553 -0.577242227395038
Ni 6.092306238219492 4.47744102475945 2.3620720504948767 -0.5540429064604394 0.5336645999144035 0.7847546779908421
Ni -0.05171325751483726 5.581398501098194 9.020667689380703 -0.2332049702659016 -0.7709833352383625 -1.7999650456372227
Ni 7.887377741863933 7.3784372013298265 7.816152295476987 -1.0448675283911812 1.1914870001563544 2.7194267602263684
Ni 6.8322399892805565 5.434634552896048 9.067599643265545 -1.0753644114284575 0.0392139511953002 -0.15395842862874776
Ni 5.709709591172603 0.9496479900533329 1.299672294735404 -0.3374704025448962 0.3505627169524801 0.9549455093180522
Ni 3.4531780993637766 1.7036938368196946 2.929935208430964 -1.4043779414552524 -0.25853445016962573 -1.1396785001254954
Ni 3.365725590048685 1.8129794575531915 13.542335541825988 0.5869941645754794 -1.6945636999815719 -1.2858426295208047
Ni 8.093720963230263 6.790217714765437 10.524457410282844 0.07795096275418187 1.9147578598101025 1.1170774748965278
Ni 1.3704987604060743 0.05924678923395443 13.396429586877131 0.36404095394457303 0.1612315652513933 0.17226236914425816
Ni 8.100158221546096 -0.06812503373755543 11.568914116607598 1.0069697249041432 0.5742859729801916 -0.7047337200815089
Ni 2.994691995242 8.383850135014432 11.804480828308156 -0.84511055337108 -1.774860794370427 0.9436673653010714
Ni 8.597960550417513 8.31681768041427 1.0879936298553627 0.26981567951039986 -0.31193472016763696 -0.3357397930070347
Ni 0.07238175161096613 3.2378116335576066 6.295871371635461 -0.9054790271568082 0.12150802140952623 -1.1496206989398716
Ni 0.557273544758277 7.37518624734536 12.447026341939106 0.7378107051411358 0.24170015222110633 -0.7068731350220148
Ni 8.077900269550176 5.796053820720263 2.104634361150525 1.1164748083155223 0.28406344767866565 -0.24193078017467365
Ni 5.932944843327539 1.939175580404751 12.50578641164186 -0.5027118602866311 -1.2885137485950648 0.30777853190741833
Ni 4.897497527945533 0.5786568793043994 7.974156047653837 -2.5216317940286443 -1.1260064019550413 0.6931732689374192
Ni 9.134875919414544 8.015651889279427 3.495810851317457 -1.4111108893037116 1.3379244378177086 0.4411030863358984
Ni 1.3332513245556394 0.7353482435233155 10.963554159873404 -2.449870505024942 -0.39094523453458474 1.805868298495535
Ni 8.227314853529428 5.42638710429341 6.653431978736068 0.7733901449076422 -0.8382076556036596 0.3676934630954958
Ni 7.607139967004092 7.650279756951372 5.687010174402656 0.277106042524226 1.1489509265663567 -1.8446168800186427
P 9.304562787473069 8.996959738022392 9.458831636833674 -0.997074320167302 -0.7608699009534444 1.4790340355082465
Ni 6.354368224893453 6.56541239960664 12.187832029163374 0.6145646179945803 0.6428570371813703 -0.44508341113988503
P 8.611472327915452 4.056830381689653 10.32229148007326 -1.6027686322554462 -1.7797183795730447 -0.20050362337813857
Ni 0.6686113301944684 0.6883036145287844 2.1666795567972446 1.139580026874418 0.8255251750399848 0.4605982189460326
P 0.8878419981230842 8.428033555076043 5.618113039093789 0.6628864450284196 -0.45266456592125265 -1.1753263312360918
P 3.5950286739303094 3.098704051415467 5.262418036268359 -0.4080428134468198 2.057236569934025 -0.3842022593837963
P 0.6578794877798378 4.793245344489121 3.301769535369618 -0.49860889386185103 0.5292862683410497 -0.49813632510080663
Ni 0.9676852432682843 2.696121425895892 3.910035955793902 0.024584631317899595 1.3795323431664823 -1.0548989444852543
Ni 2.81527997222426 9.013279157597825 6.747877733383653 0.07607585721865609 -0.8901526812123831 -0.6563699840661406
Ni 0.9805597598999496 7.080402300537978 7.624584290543468 1.7885375205265714 -0.828758851485934 -1.1730917854786183
Ni 1.4823518959341215 3.0618537491483626 10.763984375019028 0.09448906961852115 -0.44152346170276857 -0.06288789777347234
Ni 6.509619748981181 3.998664165228944 11.386159706524579 -0.6184806652195349 0.9068198574554188 -1.5494933178710733
Ni 5.4398619391324345 4.361561139409735 4.942814164069343 0.06671447060841414 -0.21325398106527144 -0.1863820963750919
Ni 5.235901519266083 8.355164160367408 5.869562323428118 -0.3141831498821815 -0.9973591983975727 1.146841850643154
Ni 8.298032338356302 1.9091596700368083 9.771515225451552 0.7830551788012321 -1.7911068239156445 1.2853546341407929
Ni 0.9189994366514813 2.253982448343733 12.99016654896321 1.7524641718427816 -0.3241369186607837 0.12142626032899731
Ni 1.9554672929859973 0.7913025182815249 4.431399388954445 0.9519023516163541 -2.343214461026584 -0.7046648145167864
Ni 2.218692973415761 5.155763656416039 9.199664107485656 1.677828903725394 -0.8712810411188606 -0.6776993416715361
Ni 8.971774080307506 1.0461514508024505 5.10996953642576 -0.5376079008328677 -0.6074151514339926 -0.05381987403393312
Ni 5.161277348259012 2.687199773768067 6.9985161263548115 1.514883698217004 -0.137305393453099 -0.020625389559835443
Ni 0.7838770438397323 5.245081770006308 11.27399255839576 0.42952746568315703 0.4464970036579601 1.6477089444115625
Ni 4.10875328879383 8.132326041795801 9.827990391700453 0.7220143615388275 0.24718842902918717 -0.01742230924150548
Ni 3.0073540915849075 4.382258264066523 3.4633558018946915 -0.1544022010343857 -0.6023508495372077 -0.2420526504645186
Ni 6.914114157099575 1.0174285334965116 7.399034580807545 2.3077797743680577 -0.12219219196074439 -1.3396910427998283
Ni 3.680597107640767 6.996893420061997 7.921803682139781 -0.5900388649390742 -0.6390206941544156 -1.5411732280411523
Ni 3.0304340177416726 2.7386054836474414 8.691817993221887 0.4024367801139521 -0.5791738972001123 0.35373468692255855
Ni 8.178596722086077 2.764742414829373 12.263812919319074 0.11542196311644637 0.44351426688055234 -1.3353384222580875
Ni 3.636108910643112 6.5839391430522065 2.5319574853450675 1.8223002187993131 -0.46105536108810913 -1.1978833906010016
Ni 0.5947066174697565 3.286677535636617 8.475838279277738 0.9381880873540552 -0.22487099647890949 0.2250489168176705
Ni 2.7411083487888916 6.969371139170776 0.14687292904594398 0.06240812992357638 -1.5366113197020828 0.004437981166695582
Ni 5.869551240630443 6.567555073823674 1.0680058042497313 -0.30486444358441683 -0.5223031521549973 -0.16628455429426847
Ni 4.60277823079125 8.402321464471628 0.13784876103963115 -1.8062555066316246 0.2586766321744448 -0.04042082701920781
P 5.735052255187875 7.356049950027706 8.415415789923834 0.23482167993371816 0.36056713646335964 0.5463092852616076
Ni 2.7647885931530163 8.979014841454728 1.715025073875211 1.1481685398743775 -0.34697525671153795 0.2663148654459929
P 7.847054829658876 1.4028512939503521 0.27854303038214323 -1.2123041940120216 -2.3385175697715463 0.5684626814301952
Ni 8.870357245922776 2.7923016383795094 1.4131287416603358 -0.3389053352192099 0.7527138475052133 1.3285990466517248
P 5.04807580568059 3.7616400656342126 9.2243067081145 0.48887726839638396 0.2525044419254619 -1.2202609869652532
P 2.9341060346223986 5.938347707193768 11.390471838386363 -0.24331994721271646 0.5231570155148603 0.8319053675347156
P 8.216296705508212 6.484701925543424 13.363028805386156 -1.073677253534022 -0.5759980705752918 0.6760625773990614
Ni 2.5711167037943223 4.1936475189791 12.93671883361234 -0.6914621997835834 0.4497741317473351 -0.7710645820982592
