# total energy = -340869.0565713426 ev
CRYSTAL
PRIMVEC
9.28563093344441 0.00000000000000 0.00000000000000
0.00000000000000 9.28563093344441 0.00000000000000
0.00000000000000 0.00000000000000 13.59045947705374
PRIMCOORD
 96 1
Ni 6.413157984762895 0.9208689962993265 5.139829661207609 0.5541596345439618 -1.2810899453271678 1.123622217993581
Ni 0.6580299337344263 1.8330020712370665 10.294405832528243 -0.9379620873861781 -1.583800832903692 1.158218725021528
Ni 8.586849846344982 0.8592411939133664 2.632458660458217 0.180449790051057 -2.2918793010877176 0.3501287147388551
Ni 5.061402295761082 7.10233749524007 4.231606765357203 -0.05983059900438727 -0.03426072095508293 -0.8226684223174799
Ni 4.703413375423889 0.9922810677527858 7.059863163296864 0.4856237944560927 0.7457088769422899 1.492205539893198
Ni 8.44298756992592 7.070441353789125 11.005214362592517 -1.8081576087503437 -1.5667438774214049 -1.0171878030877255
Ni 3.733817103468674 8.899534174501927 5.5449348002744205 0.054997696392118184 0.2962461057877866 -1.998188614731933
Ni 4.277360782063282 0.589667263402507 0.97367359239513 1.9343468376856234 -2.1335775078886092 0.3209130124068473
Ni 7.3065563712024035 8.378238867062038 12.540052974959682 -0.6568003867353398 0.42366355070321227 0.5852288451449406
Ni 8.185645600734807 2.6507318531107105 1.0627599333209992 2.0249715392527317 0.8507574672442122 0.9674420991231661
Ni 2.652124697715555 4.6938120332811595 10.22294733292129 0.35391749235732595 -0.10167453162336682 -0.2984179166281247
Ni 4.130397104990765 2.3506016976587674 2.7794799084410684 0.17241329289982565 0.8028660428795722 -0.3276423607108809
Ni 1.0189029709667181 3.2219559968189335 8.582973095528166 0.42038899371699856 1.3407588219427105 -1.492750099542758
Ni 9.039106489538067 2.8578478458511225 6.660765827292283 -0.5011740834858659 -0.813065094899761 -1.532521208793109
Ni 6.4653246580296795 1.1569431569375301 11.112103114694442 1.1008286171378332 -1.1991195770009477 -0.17506744269322108
Ni 0.45275249587240957 7.159796978005264 13.12907674415475 -0.45001195878975403 1.1839505825699932 1.2878797145554917
Ni 2.597766615603815 0.8067012382924833 11.78803853010568 0.828482972116728 1.6886720170874854 1.164411484095801
Ni 6.755649187463516 1.887341582087409 3.172842438925968 -1.6088420921430358 1.3327506069262531 -1.399344749906719
Ni 2.318491986701747 5.457898726606883 12.70090888412092 -0.32097883264777627 -0.9972738377726179 1.1677315496079694
Ni 4.453964192326896 2.598676607412313 13.598749516286812 -0.8518635558241974 1.3117032993376507 -0.451851325991338
Ni 1.7260966049998838 3.306808090146075 4.78521421050335 -1.1805166171877797 0.7607238622938834 -1.9237050417010613
Ni 0.012251461144214272 5.930323759678119 5.887440859984159 1.0595032760264849 0.2921588230922904 0.8281731541857931
Ni 4.347578721408855 9.12251002447617 10.444105056404675 0.4041085113894201 0.752561123977433 -0.9208709362318465
Ni 6.6154268782784476 3.2153353421305715 12.079145838207442 0.7652155795166499 0.2862640548744102 2.6092866143341515
P 5.690643060076438 1.8584261280908325 8.936433413773473 -0.38802548978462853 -0.012322526121094907 0.27772516416546367
P 8.167677905332312 7.616241440643582 7.643559766159936 1.1236975513162066 0.31655679232068057 -0.014989274319980636
P 7.5802039079008985 5.328670604169388 5.044466233929239 -3.360815183282012 0.033216595961284734 0.012255420328585344
P 5.654642669856551 8.813084952694565 2.837307102181942 -1.368193264004579 0.5149189438757842 -0.753528887207341
P 3.633606576965445 6.750263521658116 0.35916076693140264 -0.4266737982844458 -0.3446201262158 0.37290251810026104
P 8.287193258058688 3.3160658639529426 9.44871237380467 -0.15723709938001953 0.21830105657087562 -0.06552764938916457
P 9.081096111558788 1.8864223046482116 4.610793852017063 -0.21549469747033212 -0.29492918674857593 -0.5165297400063298
P 1.6352552798719104 8.996903298011274 5.893856302234075 -1.5712569348004102 -0.7117872844941806 -0.18033331907785072
Ni 7.398892682872911 1.1299034003421444 7.616759578836585 -0.798260940007393 -0.22667102580212575 -0.02441802383304827
Ni 0.141906722593861 0.6379943283752697 0.19126634970034864 -0.3442231478876975 -0.32570657714074874 -0.3295490908152905
Ni 0.04032563699946471 5.249018464033667 9.137993813666695 0.09660791573373684 1.860054297619635 0.3318851951476348
Ni 1.284174868774747 2.8448943910260662 -0.3518474041928979 0.4847509049328361 -1.4906479655980907 1.2431535752927105
Ni 2.469810624572079 3.963562178222463 1.3262768469269235 0.07540942727925078 0.14593375855205834 0.3546461429932344
Ni 5.318409982247031 4.520059311642128 4.198922273859917 -0.19690742138644796 -0.6901527369435404 -0.24170503731711276
Ni 2.3628958727041973 8.637586532484127 0.22469276309048244 -0.27773184903368303 -0.46828118941258706 0.4647029851430255
Ni 6.320422390972333 8.017826397112415 6.568527014744115 0.5577810333466329 0.5494151778804409 -0.04598983646655305
Ni 8.637512247438536 -0.2689322934295609 5.6373630396888466 0.1882947400167725 0.5087346694419431 0.8853501176174172
Ni 5.371468076060917 7.080627690665889 11.089040393727423 1.935589708953789 -0.9970686637403475 -0.24494102775590723
Ni 3.3764688916497088 8.630223027339849 2.9674628591262633 1.086843872822967 2.236238057574329 -0.13549996481324406
Ni 4.610974921815693 2.371355082270954 11.14315704944099 -1.6918794682811893 1.0656258439844548 -1.0754762544159735
Ni 8.255176403408656 3.9283046384584934 3.6723731565705533 -0.429871222175821 -1.991687066167989 -0.38445345616265403
Ni 6.983035712019768 5.155437877849499 0.8984748407426328 -0.887601118435123 -0.4058128956750366 -0.5058599189973094
Ni 6.299427579961973 4.553738294187273 10.384170953058208 0.018152502539310673 0.6981684081591654 -1.3319656491311125
Ni 0.8208543966038455 8.3830673950255 2.1294755453197576 1.4125967298206188 1.5715081315792676 -0.2822320508968817
Ni 0.3608860371152703 0.6965848009595984 7.9115087112984765 0.3727793622588354 -1.1988753222006256 0.4680045387124327
Ni 2.7154062709290008 6.659282912069659 2.9528537763475815 -0.35972895683278044 -1.9294524857077997 -1.4536467057833933
Ni 1.2339674635854438 7.1033217720941595 7.50762741835779 -1.1429034348206961 0.8348122567688656 -0.27167535842695795
Ni 6.896874344764074 6.061966146097344 3.0372908019824787 -0.1997250933409012 -0.8453069856526022 0.4016433376783793
Ni 2.7823649538992368 8.951607991461723 7.7966835306381475 0.02298154849683784 -0.3510831082323244 -0.44202225571605813
Ni 4.801692490741733 3.9380174081696104 7.9716470985203225 -0.5055107631880068 -0.319168776022231 4.084598720906119
Ni 8.916062597146086 4.74358301382761 13.301702190226926 -0.023782704241894527 0.7573847706183214 -0.503747757750313
Ni 6.8212243114596065 6.3362079631605726 8.839832211922932 -0.016864379855506442 0.5630368824289335 -0.4367746341638736
P 4.41831665607357 7.0644335507268945 6.24069782291716 -0.7122814505217797 -0.4259628882603503 1.8668777482993717
P 2.446782260438646 0.5480100669608108 9.59554326635819 -1.7022852369955455 -0.5591025803715338 1.4876145780884058
P 8.023035635934534 8.16104796501325 1.0526943096433212 0.3049950556250102 0.9458525458778485 0.017590459388253574
P 8.310741617511262 9.195235084110463 10.74781110823879 0.2454768456547192 1.0333392160366075 -0.47153106380845244
P 5.052023808755127 9.08079897137642 12.55593976052254 0.282960444422474 0.34605068801473954 -0.05298015174145714
P 8.638849378259186 2.516703059601851 12.532482400250816 -1.037501317834097 -0.8868002198003824 -1.3709643989918132
P 1.3930117461973146 4.3731606339845035 6.582811100448333 0.9792534899357974 0.6533589651539586 1.6184377062512707
P 1.07602817102675 6.375597608585583 11.298863147816583 1.2439986969018253 -1.0089335334987335 -2.3101055942877573
Ni 1.1243041650306684 8.579133487234143 10.988198444336664 -1.3812788935439437 0.40189864822229493 -0.039336592816093544
Ni 2.425044598972369 7.108596010331172 9.624056652545502 0.20318451264441137 0.1529559555061624 -0.6567777610275205
Ni 5.632152872303657 5.330945583690635 6.4602379895327875 1.1101056715643847 1.0275704318736303 -1.2930226922090118
Ni 2.800499790654315 6.105014330017745 5.249097391894608 -0.7891862313996344 -1.0922856126638285 0.22835895502750997
Ni 0.9225348384467207 2.409091885431547 2.570146507089744 0.4465034314158633 1.400064144571247 -0.49704257781599553
Ni 2.9717175351125285 5.530633071871875 7.914567398050716 -0.050964406863009 -0.5438096587682054 -1.2755595024272421
Ni 6.08739020295111 2.896243928791342 6.5981407481692536 1.0717466121702124 -0.47977530609511565 -1.8572960181482077
Ni 7.625257788052276 4.47240545489504 7.563552914931516 -0.0727737894286166 0.27103618218106224 0.1640978310555948
Ni 0.8076233014208904 7.522855852704092 4.270000062608213 0.4778086692870481 0.653103654610043 0.6696147648911887
Ni 6.598229890223965 8.754279053478019 9.414654537527005 0.7336498888952268 -0.1959255170891529 -0.7326456160004285
Ni 5.71367142420987 7.431940242530527 0.6743940007152122 0.19928954846537936 0.33041143881558577 0.4490357109194138
Ni 1.9517281453540318 1.7865367752194465 6.586724993787947 0.994996354592351 -0.07877911508243207 0.4419026994190583
Ni 6.625956783491073 1.2731342538736778 0.15062592982018902 -0.4907760280809935 -2.162034220567406 -1.2795763368961188
Ni 3.2616706393184063 7.469695616952518 11.76948676853222 -0.8749536048744416 0.30563217498837686 1.9176470084324393
Ni 3.585339868592225 3.5760635235239597 6.014525858856333 1.3185609456894325 0.08802917292579032 0.11855793764226678
Ni 4.656994507559762 4.872281855315263 12.723768249775633 0.7618844582608878 0.41221160011252883 -0.17057443991887397
Ni 3.0589653211600027 2.4189810821259448 8.964021951143168 1.6085096485042814 0.02385315246851376 -0.3502757818396806
Ni 2.2368434359657483 1.0807081288990283 4.125995716039456 -0.0935236203814583 -0.3490419094325795 0.2616799377771429
Ni 7.397518409529464 8.176378541297241 3.7288687908691953 1.1891886910404812 0.3484816660537353 0.3161490153593007
Ni 4.54479623182417 5.227540800226961 1.7270214538175008 0.9136970441912263 0.3370716244445808 -0.3378540111365601
Ni 9.091319590958348 6.487545172292303 1.858617412083231 -1.3506352005161577 -0.22178155892030837 -0.5706712590457398
Ni 4.62051126454353 7.540972118197772 8.399827958437132 0.19774380124481428 -0.2730125891811427 0.0027348824326598057
Ni 0.8847896782184984 5.2701247026124145 3.4324064595433437 1.6339566278224764 -0.6579967210362861 1.7626174582266998
Ni 0.49702359735586443 4.108585158478896 11.290722435382799 0.31930864403420495 -0.18109282295169457 -1.2676528459856555
P 0.0005432093958894459 4.402605368930921 1.7527073654569776 0.721415294502248 -0.8923700005786761 -0.2299568956422491
P 6.188798575814506 3.05576177856886 1.1585950706388761 -2.6553029331632656 1.5079885137590674 1.6094074777282026
P 6.864244638487911 5.746709698236788 12.195426077198297 0.30449497606014014 -0.0016277654114100998 0.5705820417660432
P 2.8081232934581655 3.3910194749549873 11.970313603600223 1.6912904285469388 0.008635049967178676 -0.4428041281874051
P 3.2453372149189272 4.494031688792929 3.2994510849432848 -0.4042463225188651 0.04387458989576315 1.3457290214637923
P 2.3991284036915577 1.3807547136746807 1.381102924825892 -1.1518511309322872 -0.04357968436316366 -0.05955909051055549
P 4.582133752864708 5.672823934765124 9.534780884753374 -0.3718799903730176 -0.13992277647128806 -0.4010360431116835
P 4.507867278534387 1.7846517921875564 4.873103633632122 -0.7906473893261932 0.5657835919361353 0.4675602520861625
