# total energy = -340862.18271604547 ev
CRYSTAL
PRIMVEC
9.41188074078274 0.00000000000000 0.00000000000000
0.00000000000000 9.41188074078274 0.00000000000000
0.00000000000000 0.00000000000000 13.77523883162329
PRIMCOORD
 96 1
Ni 4.261614891683247 4.4795187545521 3.648937220722493 -2.3366959431817755 -2.0163334039617595 -2.2453263930288427
Ni 0.1589440771675895 9.135566744244498 3.599084370824267 -1.0234229853641599 -0.9780047051303608 -0.3551104842241626
Ni 4.7955320622440745 5.3952100435281505 8.571311317309645 2.145253401564641 1.2968443799479472 -0.3036254289709932
Ni 8.961748130757025 7.098271039485005 11.956011868661438 1.2761577981328731 1.7062550202765712 2.141336583008738
Ni 4.982480249362423 2.0455405122868395 1.8866011410596195 -0.6488320238178825 -0.8063956532993853 0.6233850444996877
Ni 3.7727994536236107 6.349922990048009 1.9268670492371212 0.8168649282618254 0.17835434097460898 -0.588833017556431
Ni 5.046725747286697 3.980453778367714 0.5407445488488823 -1.323828364735959 0.4579188723416565 -0.3851466255749367
Ni 0.783841192891761 1.4195939718602715 5.411451184931333 -0.10800767293024625 -0.025996938284393936 -0.03317571542102028
Ni 1.6379778406468117 5.398428906740881 11.697203030912908 0.25333208003307983 -1.2767311541378399 -0.9418832768174553
Ni 2.745765615505433 6.019274207806922 9.302900571902814 -1.5109234280176753 1.175784501819433 0.44950879390109033
Ni 9.032459590748978 6.543741850105813 0.9841881334301211 0.2093165936840782 0.06416367916210239 -1.3080453908700893
Ni 3.2736121229896176 2.356772584563412 4.6616094700210615 -0.436969266673183 0.5097194019527157 0.9882358959400658
Ni 6.720487558503108 8.085756154737991 6.073888528170999 -1.7582039025400367 -2.218430082858631 -3.76461104852702
Ni 8.42310619606523 6.035688527815702 4.807324207621941 -3.7037250116749245 1.413620800209759 -1.016748915778094
Ni 9.231266747598442 6.290204606759184 6.923117821308745 0.6830204967741332 0.42046561259120496 0.9521692321244958
Ni 1.5103245021840335 7.827268262122659 1.6342940305255753 0.9708614092173602 1.2317491901105109 1.9222374560165993
Ni 2.584540098446715 7.645129546061929 4.005660677362848 -1.0504542784503392 -0.44949079617896137 -1.80192371202549
Ni 5.346710622080188 7.565966217166372 11.14746072407756 0.08888303628565337 -0.7483758822514919 -0.3871425729590429
Ni 3.63004004657477 1.462380381699672 13.608888716518054 -1.776454364109792 -1.5772748588597159 0.2982713637479315
Ni 4.873424787239868 1.5579768543654866 7.072028833608583 1.1507982641877406 0.45014565615414087 -0.3507239251206928
Ni 7.103936991689871 6.51398148320916 8.247634856319994 -0.33468358382837843 -0.492042810608559 0.5923708555063605
Ni 0.6129063796627118 9.270815470463633 10.88858223841156 -0.721859324018202 1.0770289436150742 -0.6989497664098802
Ni 0.4601694378424792 2.1569301208326612 12.689543735439132 0.8348091714450718 -0.13807543884990411 0.02245010147340005
Ni 7.5801122739170586 1.6307306924777978 6.75837979035824 0.6543059024482603 -0.2048415886318601 -1.0592541361301564
P 2.8658612137348105 2.9218430803702606 2.5076440916211786 0.16515069780014138 -0.21375997416741252 1.1027551447365846
P 1.6738465181430626 7.234376246851387 7.691418116724303 -1.180058960825071 -0.38797843859677694 0.23160522987894952
P 4.861001104664416 0.2505226179459335 10.523221498817042 0.8949508739319748 1.0150766702819938 -0.6800256758118676
P 2.2599713911630084 3.2123125437366444 9.863084419229985 0.9530585767079844 -0.27196872129766064 0.513937039578489
P 5.629255281864352 8.197258705852681 7.68980680274179 -0.9093076568742792 -0.036123999416066824 2.7414713987312336
P 4.908672280607346 6.112320060792473 4.560665166719359 0.10451380084437485 1.9359144392830592 0.6760440654563002
P 0.3159135417561411 6.737061880484451 3.2341509306152987 -0.33771388601427 1.4442639790169127 -2.2253435221490125
P 4.297248272161024 5.674366426246281 10.661759677354452 -1.0334132638076525 -0.09813926477659873 0.5154169665581252
Ni 2.286588189892842 7.730994134043638 10.973836936521385 0.8877862378627356 -1.56784996600139 -0.6572428735893971
Ni 5.399200680961478 2.282211665349217 12.811302412995088 2.7958548585781204 0.06908631327470037 1.0211763554218285
Ni 4.423122765164135 4.255403050395521 6.070045657265273 -0.3506933289930735 -1.8501524651248913 -0.3429694779862545
Ni 8.380940970354605 8.463125512967371 7.434469066609795 2.3047546143884885 1.3961504113391374 0.08695985112101152
Ni 5.795958513513157 9.15334578696043 1.289194246597859 -0.40859945728123825 -0.27263078036169175 -0.23924243470923315
Ni 1.2276198404273075 9.295446362357541 8.248461219448876 -1.644039465979775 -0.9268991447037973 0.29530945290613014
Ni 3.5348106372577757 8.355472421074925 8.12306579117538 0.18677830337224607 0.6235202845259713 -0.0193506366124699
Ni 5.9933538882517725 5.092392192632225 11.69773950811503 -0.06285755875616918 0.768549014765257 -0.24623814930077595
Ni 6.64493839181132 1.5481696746354698 8.904824134859604 -0.3027553676612141 0.6787658352628374 0.24499630647387483
Ni 4.117001344128828 8.07543132156733 13.602208163569527 -0.7107979239977177 0.5154179949993898 -0.09520846428304892
Ni 3.797590347490082 3.663838110308445 11.727687171438388 -2.082739085080503 1.5568474442432993 0.5753738067277316
Ni 6.239032211181353 6.735603038969909 13.493673178451836 0.17972679584210335 0.6023241100643303 1.0240140819809396
Ni 3.375213375566901 6.1779585170661155 6.934013955640262 -0.7366580795939313 -0.01814787455362036 -0.939373365911408
Ni 2.216535561552618 0.6457510198775284 3.3562682008274094 0.6881130808056923 0.2934482313276752 1.0905771146131542
Ni 2.7890696787854776 0.6299748253828509 9.866679757672275 0.7876978197795659 0.25539821853348915 1.3791993853070956
Ni 0.7002712214342146 8.98200249810731 13.371431671413971 -1.234774607200396 0.28512994126996705 -0.23641447834213475
Ni 5.109135928466869 0.779174782421375 4.4348000855969865 -0.723542882368212 0.14727561729193347 0.7435049273124357
Ni 2.8649764969453466 3.9582229160622444 7.879932440797619 0.8944705918614466 -0.031139144606965725 0.04429033727694308
Ni 5.462269693793378 2.64462554508436 10.663715466172011 -0.13715292703563478 -1.5765618919530913 -1.9973545488664115
Ni 9.323559650124874 3.192472299138876 0.9725070482449738 -0.29936459681211025 -0.6837568607195257 0.03277513754849194
Ni 7.281143882243375 2.882181414936201 2.4064381380349325 0.3847565892253696 -1.3888798458196532 -0.5167799083439228
Ni 5.995669210913562 0.053895252675618066 12.37141840170933 0.27124109910301675 -0.08885681103340826 1.1253461426632232
Ni 1.9542640928802164 6.879350693496343 13.402590643788438 -0.25056505881090396 -0.3252113826718851 -0.21889832383524238
Ni 1.0151089852218904 3.388822955115465 3.9318668264288803 0.46551339685946286 -1.3964838834191564 0.7014979867530307
P 0.19071952773045803 4.949792787555947 13.404712081707002 0.3010188445860816 -0.3692929463721317 -0.6345945400622619
P 7.927269494974315 4.589505992867814 7.2595370276309 0.6087289851494097 -0.5588866077059859 1.2858914804808692
P 6.115105977491211 5.28510045076283 1.7436977322354725 1.1163490813709354 1.2800195950811246 0.5478681451082951
P 2.5496031971436235 9.355465925830014 12.211625372899086 -0.10741014855556341 1.2150534746223847 1.1949862715588646
P 5.119253700261273 3.4543672925817184 8.136799607549698 0.8309237203477368 -2.0163308328585985 0.21554637664387397
P 7.4689579623897115 6.945817395275015 10.53331856447382 -1.4953263449103666 -1.2833059791418802 -0.4358842611391203
P 8.86422222253972 1.0802862593393232 2.1008889593485556 -0.3896350003635935 1.104045324302918 -0.7659568285580487
P 6.346544124862716 2.4412630379572304 5.0418202750455405 0.0456170265081666 0.6684569971376616 -0.44221303157062547
Ni 7.318057278501652 7.2679954848510215 2.35647516913206 -0.9241174681936021 -0.378862849448754 0.2571429691387378
Ni 0.21709726468952187 3.090202803029125 10.194654624595419 -1.5808471495920065 -2.2286903271340583 0.720169852130921
Ni 5.100194641764839 8.006065760521052 3.487174285273579 0.3191050126638311 -0.17913544211500762 -1.6157498750064625
Ni 1.0855098531494567 8.510796688910302 5.715332578350763 0.11077058038736406 -0.8355841019378836 1.1309645172912652
Ni 8.883149514705808 4.66986463061722 2.6697100896298878 -1.3548566947966731 1.1386287187047424 0.7351228738963275
Ni 1.1033453671498228 5.770960558270427 4.882564664625491 3.651856347830092 -0.828552649012399 1.7935198042325111
Ni 2.2455335661094136 3.557653271811279 0.59615605551155 0.3802237343520226 0.47625238054352176 -1.340976080159839
Ni 6.30703304952048 5.478175772242254 6.042508376599167 1.053522890073334 0.9644074260619004 1.008454536979786
Ni 8.113116492046204 1.0972182327887472 11.578115445110672 -0.9764784982938214 0.8735037598017924 -0.8857712643152358
Ni 8.647767789304671 4.99413215771728 11.215647917655318 -0.4736969611115197 -0.6904790099347077 0.12490264891337198
Ni 1.642034361245312 1.2064431087646037 1.1208307591866988 -1.1492473747608531 0.28630442119404237 0.15638837822647905
Ni 9.320218432462536 7.200004058392634 9.468383082619772 1.404837140479858 -0.36314749559602616 -0.48804063142770143
Ni 7.092492144711271 0.28225383266932885 3.2866202833589613 0.641344971412218 0.08719819238406273 0.22255031876553283
Ni 7.2950264063333705 4.535792389490458 13.544641336217634 1.5688994903118272 0.05263202437341903 1.7813713417954353
Ni 4.098318760861954 7.871287628338866 5.545442483883741 0.9069131885001737 1.766669002588254 2.158683558927618
Ni 6.508616711187942 4.535886508297848 3.7562458377798933 0.9513814461158775 0.29214133959079364 1.0232082982501927
Ni 6.944876207201117 4.0832032803951535 9.620736960893927 0.391933309479467 0.759021534890796 -1.9082593965699526
Ni 0.45071426245210044 2.6799389216170106 7.385787054675498 -1.8440157560995338 1.0615812416014363 0.6031386355458258
Ni 7.231910334097774 8.783270636303758 9.357768071858768 -0.8312898454379039 -0.28823814788164553 1.0997914341225705
Ni 8.37784446159148 3.769533531007184 5.276109281092882 -0.24122038437121038 -1.4224047170499763 0.31033420844973647
Ni 2.4233616407916916 1.713470536054166 7.769923555156204 1.4420397176720843 0.3247038469078472 0.27777504356679256
Ni 7.5872276557557266 1.2100478590876331 0.28021333692511813 0.4475856087364485 -0.017165970256325276 -0.0023214490443250343
Ni 1.7851325960007558 5.019741885208043 2.619623825089335 1.2854420516482765 0.9644611621179714 -1.223097427972784
Ni 0.8947733840336686 4.729752427759347 8.80630339084819 -1.7000136673525499 1.2304448694767904 -0.18314482038471683
P 7.759154481214665 8.387068104715679 13.56991882431831 -0.04487886279056142 0.22912797198305057 0.3244289959799058
P 1.6871831531501964 3.957912323997858 6.035180286255797 0.2174975868329738 -0.7809787558881776 -0.8111933317983449
P 3.4745746005283076 9.40142413947845 1.8354814520139264 1.6397477805829568 -1.2828925457535454 -1.2957755723638007
P 8.177700817677081 9.270081343765993 5.3341448201055774 2.5646705182866736 2.0369497946605306 -0.6997606923469497
P 3.4769181588323135 5.381111046181159 13.668149682402964 -0.3453852865165987 0.24864855851448145 -0.09036861969224437
P 7.249755259978879 3.3030242502989284 11.79568236264907 1.0459196238047794 -1.8892640864143724 -0.9803724340315889
P 3.218298499886636 0.4860078740351995 6.288865296130028 -0.9584807761648203 -1.0365386968105115 -1.994452030507636
P 8.898989709989511 1.089095779711008 8.948739970387683 -0.4183048574944603 -0.11318587469707604 0.3444188088382713
