# total energy = -340886.8537147745 ev
CRYSTAL
PRIMVEC
9.08961613832444 0.00000000000000 0.00000000000000

0.00000000000000 9.08961613832444 0.00000000000000

0.00000000000000 0.00000000000000 13.30357201092088

PRIMCOORD
 96 1
Ni 6.6816858640394425 2.0191400410563736 11.311947188727206 -1.0118188254663283 -0.4458740253619805 -0.029669244929658577
Ni 4.795735967000495 0.6230104648934702 5.67988019354331 -0.2818690111305081 0.0005101068671991214 0.5859731795101327
Ni 2.4812833900141302 1.6859328958034687 4.6210889931291765 0.5807324999364837 -0.26673035571685677 1.4314521719642253
Ni 3.7794987130977926 5.081049925272726 4.728381912051398 -2.3807489676369316 -2.3861032899703103 0.6918589210013698
Ni 3.7099449710639876 2.889688928869449 2.370682759810401 0.001705926947513191 -0.5546617709913609 0.4896123467901955
Ni 5.036947108185949 4.849619210959773 2.6225860163584214 0.3217666186563942 0.3196279750468366 -1.11013986723643
Ni 5.229837850436259 4.21875440883533 11.738353803212917 -0.18814947268815982 0.6065443187932651 0.43702120295704083
Ni 5.710587643453503 7.805107870433341 12.025990158386563 -1.1325136069459398 1.3418132313491538 0.9961080995992909
Ni 2.1508485776572406 6.215234037072795 13.212947672025898 0.6114677242368115 -0.18817055573408237 0.009824442289589532
Ni 2.7618343894748456 1.4112537883126746 0.30432579920766023 0.5799807093721236 1.1441753595545843 -0.31905539037281827
Ni 7.927345027107493 8.457860468012228 7.178514278891971 0.6644460762060557 1.1999104483333596 -0.3233594170648108
Ni 8.876355480685833 2.067487708839673 1.5640347818080753 -1.3056689202181124 1.9996855109924334 -1.7043482901721616
Ni 7.135003195810213 1.12473091110546 4.7304843402443435 0.5777271374512566 -0.3021257044970152 -0.2926434760381928
Ni 0.748734398285365 7.001603990623578 1.4574990279030287 -0.6414845823138758 0.4082215051165292 1.2855775487848762
Ni 7.825795836568853 3.85568787484993 3.8562268890818436 0.05302874559120545 0.38689163329050147 -1.6677962020797408
Ni 7.8635722808830835 3.683748697600654 12.535011384211927 -0.51345084397069 0.6218984326518322 0.0036062292940195954
Ni 8.727276687808619 7.432315447271756 9.270846635287969 -0.3523241797282771 -0.07142190338641248 -0.10394070194972421
Ni 6.855488412579482 0.6362440369043192 0.2906631973191327 -0.7526081751652844 1.3671604518646905 -1.4960557668772234
Ni 2.1150082215621944 6.638428381245547 9.122392299033562 -0.4207977991196431 0.43109352461869627 -0.3673635905599028
Ni 8.902842621862847 4.556433645186069 1.2970609418449934 0.4884720625381652 0.5223175503327004 0.863465401729184
Ni 6.603560614068121 1.942396412725033 6.88700665624156 0.1412597501151567 0.5138059133172634 -0.07694823252128037
Ni 3.6403912290301825 4.233652289545393 0.3504810515990946 0.5777785595144823 0.8655665072325869 -0.6278770188327703
Ni 5.915458499661022 5.7304757233763945 4.637638457075981 2.4872363472679098 1.9415415556618498 -0.35494619073215644
Ni 5.415893201415082 2.9943558577140994 9.300394250189864 -0.21792413284743115 -0.40072031164347766 -0.8589844831396948
P 0.06303466940094508 5.638079776202632 12.65701857359995 -0.22672913273357084 0.965773967392124 0.3494915953754884
P 4.289480711339908 6.094878430921513 12.385931682373108 0.02592160496176826 0.34274630623185487 -0.4685580972230575
P 2.592004003149752 8.32220703804457 1.468354756354541 -1.8334521216510746 1.2610643941348603 -0.9200507543233961
P 6.365976229687619 8.042501372876739 5.670554247473434 -0.42320589434050343 -0.1072445695119766 0.9113185166567209
P 4.820932382698053 1.0020756320928923 12.394233228713867 0.8374671778932092 -0.10938964087943741 0.29558301828249095
P 4.334074367693522 6.229959215077862 8.082798367722331 -0.9730273065204275 0.6762371553037128 -0.13252391290405566
P 4.570377116210619 1.3233753803170094 3.644407021402181 -0.4349226685567994 0.062250264189473443 0.6948007772385131
P 0.3889492156949214 5.898151870697044 3.4137361989912187 0.13342765566524764 -0.5230433727551315 -0.18771675602611543
Ni 0.7107588913795843 8.569826358547044 3.8041161202528047 -1.157535582911574 0.4590522146151513 -1.5145872500225077
Ni 1.9173363412682636 6.724570672575184 4.760311006359049 0.375853630308785 -0.7934123536658401 -0.43418039107413614
Ni 6.363803811451069 5.73107563803586 9.064801400686466 -0.4965291285146868 0.07839936314551015 0.1344779513066329
Ni 8.983458426632556 2.8688737081092013 9.954623910377284 -0.2287176239185093 0.7568764635233352 2.1163516309286257
Ni 2.5159875441026127 5.457814510649258 6.87161430041824 1.6226322039485925 -0.7695805413535649 0.44020808532545475
Ni 0.5418729161623466 0.8033775341466329 9.349058236611791 0.4882144380014043 -1.9918228204149049 -0.8735086448977988
Ni 1.6515014301965614 1.339754868443632 11.297712849988976 -1.040498195678892 0.15107416510241725 1.8501750908327104
Ni 4.174188021329874 6.931832097804513 1.1085795723417553 0.5065384331215728 0.004990511236055922 0.66008779923736
Ni 5.650596177506939 8.039947190765984 7.959394104347037 0.6840327400887316 0.19807007423598144 0.1292007620680936
Ni 5.372526643228558 3.1899007678517433 4.589519847617205 -0.5216233524791533 -0.7656688650039846 -0.026520671998347872
Ni 1.1139506264671832 7.23017147587999 7.004517212568407 -0.9603826211732235 2.081023130830661 0.46354213206570494
Ni 5.178408802811159 4.7344810444226315 6.684845414579295 -0.8269439097643821 0.29036110776191926 1.6936586716687994
Ni 1.0568769272734742 7.662219106087886 11.581038909230523 -0.6458464588269974 -0.41783563116752553 -0.36076331163456576
Ni 4.802325938638565 0.39171609482130537 10.002756154260139 0.6717819477458365 0.6333791795979221 0.7742056988304021
Ni 7.998471272718382 7.283709314429272 4.584091528910647 0.6524315682436829 -0.18620109071253738 0.9114897521272625
Ni 7.200712030253805 6.1621688585582435 6.886833044574957 0.3341238546701665 -0.16643110717446175 -0.43911099560653405
Ni 2.524304542790659 5.368236344451773 2.466003745429861 -0.7812932018048028 0.06221632562774446 -0.11518439318434356
Ni 2.699097859480423 5.4693128749556825 11.057383401560616 0.45575528903143436 -1.1741662494897198 0.2784569001251656
Ni 1.2553941418602887 3.4181955646265796 3.586896111676346 -0.49693870524827966 1.1839549534453675 -0.5570325852163825
Ni 1.7357621710033273 1.1883764027051336 2.4050196934103623 0.7574570186171535 -0.3655499343899318 -0.06366205693533553
Ni 1.277509177716045 3.5876078286132578 7.949589135511195 -0.039673664440538124 -0.5130093855578972 -0.04797961320307221
Ni 3.8630686430845675 2.8800539358537884 6.911671329400045 -1.0017534708105262 -0.9294782182848831 -0.2726138110808273
Ni 4.246386841634959 7.271611035463382 5.938980608081707 0.04225736600731432 -0.21408419027605066 -0.03779033137489621
Ni 0.49389701367559447 0.13192396050131175 0.3893327974923373 1.8597686480584166 0.5322988299151283 -1.0716928761141413
P 0.29420451173319057 5.50131741307657 8.299912027790976 -0.5534219850469888 0.53420144625448 -1.270765680583024
P 8.754018338235104 1.441413134374902 7.469636501821756 -1.1995669489510115 0.8038309778960027 0.1416749832757044
P 2.0184128717721728 3.4063881533743694 10.339815478796098 -0.9531897029692099 1.264352320857513 -0.2951279330229434
P 4.21929978579848 6.725525082260697 3.595569423313651 -0.3692019293202222 0.24184027734339641 -0.944566222966257
P 6.8260016981051415 4.118150538366151 10.413105053027483 2.561863387855181 -0.3153725422045924 -0.14843312793514438
P 6.591662306655385 7.712112008600113 9.975989052908707 -0.23714004365424968 0.8682173145918725 -0.20036581224869363
P 1.7081660966679078 8.734357498713525 5.566839910391087 1.4040781508266464 0.959186029761961 1.5977549810909386
P 6.803450360678863 3.900263351971438 1.837130478182522 0.4705072505296284 0.6496763740960488 -1.111985147975285
Ni 5.488964624861208 2.676791941687564 0.4363133870213395 -0.27852117770419776 0.4099361738147908 -0.6937756784081084
Ni 1.7351077186475468 1.2123548098516546 7.166953196234783 0.33160365935147407 -0.21791487687605052 -1.5539009600204656
Ni 7.358780453406951 1.0061205112362592 9.21152598300608 -1.6360317651839502 -0.4183927892225763 -0.9501434599437185
Ni 2.879926681229053 1.850645828290999 9.196253610114653 0.5033968021687976 -1.1243804363158445 -1.7965128254225637
Ni 6.329790468182577 1.8947304661456716 2.4913328695217847 0.9568818071088164 -0.11821315270833835 0.46200949747126235
Ni 4.178296527785608 7.238870238442241 10.136763454760684 0.32612489562508995 -0.9165193441313699 0.2025571634730576
Ni 7.991490447590055 7.670517925543828 0.021343327452898304 0.09050051728441832 -2.051795344313795 0.016693915715913183
Ni 7.748134157016208 3.6687780999621706 8.182800505608833 -0.18148157374968096 1.0944813347635667 -0.7483036342526596
Ni 3.2166515078942792 8.649251423613874 12.22095424205845 0.3239553987775969 -1.2297552996089336 -0.11695151238709536
Ni 0.30896423027925596 5.382816088599999 10.461636331055045 -0.07062588984767837 -0.8379608297001762 0.5936440657918293
Ni 8.927839066007248 2.992101632933077 5.822069057452721 0.11878110939666642 -1.8256925323103137 0.03518528965188134
Ni 3.7798895665880505 2.482283247779906 11.205438703670318 1.011162165718936 0.37653574397747414 1.408488106968884
Ni 1.2297341557440533 3.615458412198148 12.396055696732395 -0.0334888757860649 0.2262146549909975 0.211199669639404
Ni 3.3578768725021244 8.608084552512057 7.839542062925063 -0.959679938679244 0.18511891339195216 0.656302878273631
Ni 5.886398997141148 8.437017978403823 3.467443104399078 -0.16616139845284286 -0.6388126919086676 0.9416284804941718
Ni 3.1325089320961963 8.593895661854091 3.690051437371464 1.189508793384061 0.22068704030454897 0.11427293711366769
Ni 3.4545540288366188 4.3836036855636475 8.975135065213273 0.3646469629596881 0.18588870167844113 -0.14312997055467608
Ni 7.225563040541367 6.166668218504236 11.589060495396863 0.978531009947476 -1.638420834241417 -1.879319316496834
Ni 8.027876180648251 9.00795494189407 2.170172192423271 0.10080138498979414 -0.16759735956842103 1.5313865809680334
Ni 4.644530203966994 0.2987465928746297 1.7075398221218896 -1.132641904993688 0.4026640656334098 -1.647948314115878
Ni 6.208934933148407 5.716759492753157 0.3583008482890688 -0.18049375591511496 -0.6578658518853767 0.8319994699104187
Ni 7.953768540972139 8.80666539441124 11.265158390096913 0.4420718780070709 0.4606668674004389 -0.22648564926419704
Ni 0.22704315664440597 5.275285930698808 6.039795357643303 -0.3153272907889537 -0.1573075476066388 -0.7634970541636464
Ni 7.59175640244883 6.610023331081455 2.41596813594561 -0.6093054264781701 -1.1224423387528668 -0.24437332817789525
P 8.934847159983734 1.671998514394971 3.5982035940456685 -0.19595637032708832 -0.7672948306431818 1.2923161530602905
P 1.8864225570736777 3.4635800175767613 1.214033661936553 -0.7621474821142874 -1.1429175758880832 1.0217317137046662
P 4.908356309891092 1.248113359402228 8.010320496204434 -0.7056742296179073 -0.5452883001962608 -0.2479762150378052
P 8.639752774839003 1.5782118559651748 12.19587690033118 0.5552130155091406 0.46018529977833 0.6333825220320317
P 6.205708119449766 7.895522281307656 1.2491204888608463 0.3057080225316348 -0.8097213752385086 0.2748092760702493
P 2.145394808025735 3.7207343453183164 5.60460817405087 -0.39432494964009507 -0.5152501019629577 0.6573850555942162
P 6.919770177302833 4.157135901615365 5.752119008159026 2.3536667667081597 -0.5727314840088782 1.5548455833219224
P 2.297782221146062 8.784204953145489 10.09283424934051 1.3005459971692506 -1.3198426406153334 -0.8366490528672882
