# total energy = -381164.85296465375 ev
CRYSTAL
PRIMVEC
9.30393203105271 0.00000000000000 0.00000000000000

0.00000000000000 9.30393203105271 0.00000000000000

0.00000000000000 0.00000000000000 13.61724498330401

PRIMCOORD
 96 1
Ni 1.1838974051149946 6.899767884044925 9.832168071772548 1.1251628230078234 0.5093288513825164 0.24021456881451533
Ni 6.672919419786329 7.089865817837546 13.556225857362024 -1.1471028176140246 0.5288257837648634 -0.8869498580043692
Ni 2.3152089879024693 7.016588051267916 3.8276579961696546 0.28657438702597743 -0.22345586129893774 -0.9308463022770034
Ni 5.3017059564760105 5.2985984432669895 9.129395586013661 0.18984485811271176 0.7942993842564836 1.408805895319619
Ni 2.890610647818513 8.882407831059709 8.527635887411513 1.4406608350466865 0.09947675264109965 1.4319769341194437
Ni 1.2177358049389846 4.094781320246258 9.912931781839122 -0.7602060421172003 1.1752090889319373 -1.5710936697496682
Ni 3.0627799051027944 8.339262902567853 11.322153667189847 -1.0231422208989476 -0.7804735341169848 -0.22318666679795113
Ni 6.739963552074387 3.6247932072111064 9.949126867578816 1.3310608779286561 0.2541658887882849 -1.4454055488205237
Ni 0.34455157460594815 5.0707823701049834 3.0727044091149613 0.5055004787753616 1.2910072044408798 -0.19719641338177651
Ni 6.578884581452243 1.6134413267740442 3.031933649733959 0.10766648754074361 0.976709383357705 -1.3109479092288647
Ni 4.39618218972609 2.758578552162137 9.284945229988734 0.45776357771071485 -1.1908930753260973 -0.3879113328042674
Ni 9.49522060059694 2.1834094905401815 4.415432024544852 -3.2241952459317114 -0.7902079877959294 -0.6306813210507847
Ni 3.469324507442377 6.050998101052591 10.64006568252766 -0.889782699467474 -1.59375485879261 0.5522019965969587
Ni 7.270278358664323 1.518131849788355 8.727728104704527 0.9761427122209575 -0.8671613625235324 0.8067823472148428
Ni 1.5499419924878932 0.5599431772909246 2.502944653420327 0.06523505784941024 -0.19073523113746507 -0.11267319672671561
Ni 4.915388101790362 7.516479000991081 4.619255118475045 -0.04836579289789735 -0.39861663503691347 -1.2597904125184434
Ni 7.209784194337795 2.808103380939453 6.914673713123291 0.25881752862768326 0.45622220136552405 -0.6319686724036407
Ni 2.3891659414908375 0.35564558284079156 6.374259488604034 0.7239398606963146 -0.8900356960185446 0.19073523113746507
Ni 4.700206767963241 0.7460934528362756 13.207324694656624 -0.3991108010645127 -1.184671777006734 -0.9655034873395565
Ni 4.071930863835008 0.9231323880055933 10.942858420199316 -0.08984334331639365 2.414025727412191 -0.11095312871181537
Ni 0.8792327163725127 5.538630578834521 7.596489092584807 0.2460031504718344 2.55974094219554 -0.24392621333814762
Ni 2.729187431721119 7.897530830298567 1.6675269429018467 -1.3808225227328155 -0.022198390473910156 1.7724642691137926
Ni 0.7430250161406605 0.7781268898981389 8.757331354789754 -0.21850854459599142 0.8394551548575157 2.5955021589555494
Ni 7.80761763373573 3.5656388090585285 3.3802495951314344 0.2447191415530882 0.7798374431948828 -0.1315558925638315
P 5.752472146487691 9.014188720558469 3.1382571211413253 -1.8380430834558668 -1.5962094909806896 0.07795096275418187
Ni 1.9583566851119467 2.8915875606536847 5.361694917307779 1.9152147448418628 1.9962302054539813 0.772979796843101
P 1.106460781047063 0.28056564468856426 4.671491112968256 -0.36083247430960436 -1.2609067855110736 -0.3742819149462909
Ni 4.822116185860887 8.389718124521522 6.704068983330655 -0.812083447712782 -0.2445990710354562 1.1956565581530116
P 6.5113380368489535 8.906170072783786 12.045528779445913 -0.6446246706047543 -0.057097516343940384 -0.14008809840455874
P 3.3350501642309878 2.124180660933495 6.856718591775033 1.6014211170886161 1.5545887301161097 1.0820755049000461
P 1.6821787746430672 5.3698293448486405 4.993239681214947 -0.8262088313705708 -0.9704654593305222 0.5676715529874675
Ni 0.6204615318400377 2.2380700896509707 12.904382163683572 1.0035421872798331 -1.230343825122552 1.0205788310471455
Ni 3.7762053927309336 4.3954006594579536 3.7835927145511836 -0.0725480465710557 0.9785754900321664 -0.5764063617573041
Ni 8.505691633954031 8.046114620562278 12.243645772025529 -0.5086840187096658 -0.9471998039343623 0.6290766955678262
Ni 7.912305473939067 8.83219451133189 10.157116262152723 1.2506542545451298 -0.09176755692230001 -1.0044047923904444
Ni 2.0768887757794285 3.8335827399166758 7.74140341216098 1.7687603378996442 -2.8481917203086238 -0.5064574433719923
Ni 6.023272384397246 6.387037508488078 6.308978451385165 -0.4829246503573747 -0.6475927520941428 -0.5788057152274161
Ni 3.9993788039429337 7.726868809959979 0.0012764994379574942 2.505877102297549 0.714091507147325 -0.49722564036107914
Ni 3.442380321055169 2.9731272186293367 1.7043202714539365 0.9153960291602042 0.26906543160793667 -0.8578786516700257
Ni 3.304151806844276 9.158176368530992 4.194533424649038 -0.49914394042971455 -0.19128827542745766 -0.28613369994413296
Ni 2.421999516684365 7.304535435417672 6.103643468543398 -0.6150595553531278 0.42112201522828124 1.142445007127039
Ni 5.067228268171312 7.2189485671248805 11.665648315147457 1.9801047606470286 0.47423663566507357 -0.6210018889794917
Ni 8.82033199833338 5.718484883755486 13.164348903447662 0.009490713099254623 0.8834948095762333 2.650959825703221
Ni 0.8937105645897552 8.087312430411227 7.864462796024599 -1.778819521907859 -1.573510249610961 -1.5225561271605972
Ni 8.714657941363107 9.127780423459512 3.291370065387527 -0.3208855016030216 0.6569240567973977 -0.460147247451543
Ni 9.123193585100086 4.324262797193938 5.922548019125178 0.557523151699556 -1.5129047201137622 -0.9790935673191653
Ni 5.336288670841084 3.3663765024788224 11.704907185616884 1.6934337001421869 -1.538905515052898 -1.163355789137777
Ni 1.3424084905704015 2.8788876937964547 2.65447779005308 0.15183649718973852 0.6490091728256953 -0.19654283895817762
Ni 3.6009286222376304 2.208809224254642 3.8336087909256142 0.05736748217587539 -1.539845253258348 0.2854050493082246
Ni 3.2348189073423868 5.992634537099914 8.387174429577371 -1.4063016408405264 -0.03480656615622393 -2.2209405079853104
Ni 6.528113025818613 9.399483142750128 1.2177972108886237 0.19418925112433655 -0.8204742428796387 -1.0674819233565873
Ni 3.8322243658791995 5.603367336045222 5.696842077687142 0.5324209573152895 -0.988524373714762 0.7530416631582773
Ni 7.072430249712675 4.928450821986369 7.76268708646325 -1.1781388609842225 -1.2181357130921344 -0.6415943684188627
Ni 1.809158835351842 2.135857095296736 10.801130697252155 0.7198847167903344 -1.26454643914619 0.1905154018171751
Ni 5.4155023458758516 3.427298647666473 5.170059043594645 0.448146366335925 -0.5207507200662129 -0.11502112813360192
Ni 5.01226994324409 6.835347460514185 2.003042538979046 0.00016969280864486904 -0.1903084280126916 0.1341992437239495
P 4.552571978739411 7.518404914866133 9.087209698611424 0.07683767508534509 0.07571975943081798 0.3862915378126573
Ni 6.683851539608486 7.3225664551754095 8.463729971307297 0.3831139114156241 0.0021854376870930102 -0.21787913854210864
P 7.762716859044893 2.0913005660811494 13.415274082323945 -0.7000393999296332 0.47413199176640924 -0.5798724659290335
Ni 4.490207724128411 4.980236506182226 12.964379498053928 -0.8385750662454073 2.4746559394997383 0.9741449650646384
P 0.9202397956203091 6.665420450784915 1.3209080346580402 0.08212977672221985 -1.3848416711945377 0.36504599817031974
P 7.298925164564258 2.127362605596625 4.938266469996903 0.4068225678864736 0.043379138316583354 0.5533479372759438
P 8.779227227802066 3.565629505126765 8.492176742674314 0.11728575579806252 -0.7087693236034631 -0.3863031077768831
Ni 5.709543805330726 9.199811463172827 9.838391471729178 -0.7259013552980594 -0.0064066748572921915 -0.5825281583843258
Ni 7.225210113201743 5.721480749783344 1.6406869605503906 0.39713156585095477 -1.267049922294334 0.851160616219902
Ni 1.5133031092030782 4.481248037840124 12.12461778179505 1.3803494397511389 -0.7283084220776554 0.4119763441732711
Ni 7.149513324373593 5.710520718165896 11.16720226602717 -0.46394862347550414 0.1531865834597297 0.5837653732255366
Ni 8.289003063181218 6.309461325443693 6.464623925857403 0.2568418929585512 2.3645481895073535 -0.08755788971632662
Ni 0.8132864480325512 9.016496095635826 11.016554863698307 1.1544381749331731 0.9715576639534365 -0.07945840053764379
Ni 8.54262824305528 8.088326558973453 1.1571346453971758 0.0419010111091601 -0.7985219069782635 0.46847530770126417
Ni 9.25650962333983 7.232495091772593 4.571499897519153 1.3556933317653554 -1.3500836988880618 -0.6029661145237035
Ni 8.555635139660705 3.6855850973540676 11.841637766813847 -0.9349161014710027 -0.06470952436324338 -1.070710457596214
Ni 7.063442651629097 7.379162272093016 3.347187143216524 1.1491591859224208 0.3817915930597747 -0.06648975619211775
Ni 8.658648272146605 1.5654423428059485 1.6826151290427773 0.4475264733637389 -1.2115811998030683 -0.019139549042928326
Ni 3.427559157755852 2.916140636577663 12.776896899480038 -2.069390688798055 -1.5565242565759259 1.3047404948665724
Ni 2.3920780721328248 6.540189529247687 12.76639834287806 -0.9738073792195615 -1.1962484261007396 0.1831489341497749
Ni 8.564985591083062 5.662633381378963 9.175067656647697 0.17688546973856634 0.7045429442269414 1.4392102186430888
Ni 3.933413927739445 0.4813417009661979 1.9229998836241473 1.4825515617432017 0.5901550788019643 -0.044388039197071946
Ni 5.349639812921762 1.2540955702708931 7.326309426923882 -1.0571404322212632 0.7188051105729104 0.1793717264955298
Ni 8.179867943594909 8.918507086302238 5.527457487179688 -0.9922434744375622 1.102945663480836 1.2675332896886558
Ni 1.6784199862105977 4.197831668459211 0.7549042762163466 -0.9754009489589267 0.18625559809955664 -0.7563961814528071
Ni 8.645148267157712 3.7291461058709556 1.1093087145598821 0.5070760507925977 0.945325726840101 -0.3250848843963498
Ni 6.336079874219177 5.320788320523029 3.9387469414263054 -1.0516007333499569 -0.06984376026601519 0.4609391472252191
Ni 6.735060380035002 4.195133528247785 13.36652427106253 0.34287794671371274 0.7232875718242963 0.017550350178937517
Ni 0.4786389087888899 1.5002124772117795 6.746568413233323 -1.9491965011039465 1.0622522995265318 -1.0547223096980738
Ni 5.402421017816316 0.8782027711262891 4.889204046628235 -0.3985667556355845 -0.2830635456592415 1.7429395201817983
Ni 7.153383759987224 1.6847931794686215 11.14832924044483 -0.17474014126078938 -0.9700299144550003 1.4785964337501953
Ni 1.1942061615089954 8.382042380816603 -0.05302682869311183 0.2501624240558466 1.709000187121876 -0.8099949406148694
P 5.242858588071629 4.332664247576413 1.3520845796044818 -0.37990286067749407 1.5788563444142227 0.9355776463144017
Ni 2.8749335227969506 5.542110249314085 2.0340488219742148 0.4928696773852285 0.42376330950587016 -0.6014972432876609
P 8.048654593933724 8.93873383395617 7.677225821249267 0.5879303032365036 0.2522568446910301 1.1970578093759126
Ni 4.756244348975034 3.9372936672848406 7.3514737711647244 -0.35404167664001607 0.03352847077474871 -0.8346217380246141
P 0.11084239106491696 5.781044520933519 11.228466795903717 -0.587101122466989 0.3743353938920457 -1.4360724443450559
P 3.4766560056720452 3.799790859751504 10.777450330127598 -1.8890591694924175 1.1743680810878807 0.23787023695205486
P 2.406750372523925 0.7468796350702946 12.602732879225652 -0.0012845231393784331 0.4617238479100435 -0.2896165162864109
Ni 5.666187483312636 2.2927213848299965 0.8457776385371807 0.6881269647627632 0.758359732937081 0.1553231701867583
