# total energy = -381162.37987367774 ev
CRYSTAL
PRIMVEC
9.39942000428520 0.00000000000000 0.00000000000000
0.00000000000000 9.39942000428520 0.00000000000000
0.00000000000000 0.00000000000000 13.75700128421455
PRIMCOORD
 96 1
Ni 5.636155537637004 5.12273100787464 9.408660773256177 0.3201241979569648 0.8650445732908457 0.6516790063483744
Ni 1.8632658657315175 8.05847071879748 11.545934776984884 -1.3195603334882242 0.041697379738786254 -0.31381805323327894
Ni 5.96982555543233 7.65229357355425 1.188974018958538 1.83559025104 1.330719435428837 -0.7527606415827487
Ni 8.03469958510345 6.048489303113365 5.108470207542263 0.13394573295224674 0.20988326482082562 0.15564738629539646
Ni 3.166185296046027 4.449365943933702 0.2976655387067606 -1.1805104465401928 0.17789179951589362 -1.592065644015645
Ni 6.659066240096565 4.656745351878103 6.670590869207775 1.1494227239964525 3.469183067765154 -1.5159957003342601
Ni 6.656669387944736 8.731863980999028 10.379382134979188 -0.2373835271236234 -0.4709512800455825 -0.26983393434284497
Ni 8.535058920783289 0.8959047967311686 3.66658504923274 1.492176229317159 1.8467053871165553 0.1984256578031873
Ni 6.243771657256178 4.005882499903755 1.445530253464345 3.7607307396360063 0.708084895941929 0.454512674873585
Ni 0.1400212828838395 1.058205525322782 1.2377626494655498 -0.6290692393686586 -0.20709541766304332 -0.11323061189208242
Ni 8.25646010595883 6.030545809945353 11.235013235965473 -0.7320354932202554 0.981393933317568 0.9473481565867684
Ni 0.6068228085540199 0.9494636329913324 12.568355769651856 0.836676563671114 0.8026271873958887 -1.26828945112839
Ni 1.8187032145478887 9.141255727951773 8.861874881366402 1.6825635901969023 0.5317403863084972 -0.11907267249515623
Ni 1.465360210267151 1.8932970132809153 5.200201969131883 0.212703250768124 0.24847398060983014 -0.4991495968566693
Ni 1.3927214909364012 0.13598517184856207 2.9013650912975177 -0.1003450141786659 0.005687537303080527 1.2548474666908713
Ni 8.959912713970386 3.929784793938208 6.223048755534063 -0.007698654195838354 -0.5713803692976224 0.3427146816629711
Ni 5.83162588018388 8.264007840382043 3.6328110525584063 -0.33507079196446815 -0.49723103967771787 -0.8632124051781134
Ni 1.572335011600389 7.509262596321329 4.364133881414632 1.5971317456846428 0.2275254033826211 -2.81215256729688
Ni 2.438801764196985 3.4530086035483336 11.931392780274079 -0.6692082734813893 -0.6020371749515309 0.2478366041361474
Ni 6.118148406239683 2.129448046467478 2.842485243260292 1.167112942187364 -0.3594587338905293 2.272553604175912
Ni 8.54450533808756 3.365086426967092 0.8035122559012596 -0.997317803636676 -1.1304114730012724 -1.1861203365278024
Ni 6.657449539821606 2.6771334628707026 5.784530085255475 0.1491576648059947 -1.5177900732305214 -0.7279924334991333
Ni 1.1981158950482231 2.088062399312549 7.660132690003763 -0.24998990303372434 0.012610489675158928 0.17419661005249354
Ni 3.3156172784373643 5.181486783565183 4.878604566645617 1.654692831928563 -0.8223593757174935 -0.3539596584491711
P 1.4759533568362186 2.6798122976286303 0.8438216694429159 0.8567023719737376 1.506295956547993 -0.6277011553765383
Ni 1.455678807457799 5.729660969818978 5.860056306472664 -1.6079298647414115 -0.8329986005988944 2.1140584640190756
P 2.6746144182562306 3.3611856675827414 6.651771350076819 -1.7361356098860874 1.55262157908741 -0.9288590966436454
Ni 9.054057306726182 0.8369751317668654 9.456948414666353 -0.09870130792765582 -0.421301478228939 -0.6180088677894389
P 7.197634218902634 6.719513911423694 9.190571665932186 0.8428898915706773 0.4661163205507843 -0.03360174721484535
P 5.027477283534861 0.839541173482354 10.998915779474068 1.4456408047597813 2.1457799634920725 1.3089288219163069
P 1.0010100533859791 8.724118858751547 13.919608898535538 -0.33382046449713476 0.39266761654233023 -1.1603067178988082
Ni 9.789496141689414 5.173017905962052 1.4820695595624762 -0.3575314349608294 -0.13847858782559377 1.772301261173367
Ni 8.04099719663963 0.014389572389162095 13.346341080165116 -0.8083298942076208 0.7593629773906149 0.4309526281654578
Ni 4.1209877997128075 2.6116852999954423 5.34694759722913 0.48582973981931166 -0.07046545301041414 -0.5759345643272081
Ni 0.13355166195793952 7.7317092748515455 9.357760093029492 -0.6071834950391607 -0.403342322647357 0.7279518100691851
Ni 3.8578228328620923 8.767158803862248 10.350932909849998 -1.1572733303891232 -1.049463632402296 -1.7548468131423454
Ni 2.9114234108570205 1.6241634146011332 10.269972883813306 0.15973209788773135 0.3928185402978977 -0.21584770993437666
Ni 7.964720901690221 4.623358611316143 9.482398284808687 0.45013922839623766 -0.6934851437508831 -1.5483136957406753
Ni 2.454245011590932 9.177001722984748 5.923944165594184 -0.0410952273784131 1.5162492111059627 0.5398151928968316
Ni 6.113899868307812 3.3008037921970357 8.156622284385923 1.10824444998593 -1.9420766022297136 -0.3475061895143435
Ni 0.9285565026332336 5.446898211844477 10.392259340657647 0.8503823432929806 -0.21701576210054882 -0.08098280760197021
Ni 8.208795646108127 3.490916465228058 11.587068519678366 1.8892743708270172 2.1376640192531573 -0.24422934640086325
Ni 6.536995969916901 0.8439335225433346 8.54005753244738 0.02045312564802929 1.145106613119602 0.4142417431686802
Ni 0.44919077197736307 3.0669086198592543 9.673070223341803 0.05799303157501626 0.010303953029169352 1.1735682108944046
Ni 7.909066934666752 3.868133996825062 3.391059844814745 -0.6624462721672075 0.2754507663089902 0.789391405431905
Ni 4.880310561412507 0.6823715883796971 1.5716544935776733 -0.0780520071084204 -0.8434146537258957 0.05659975077191543
Ni 6.36127380921706 3.0309182399009935 12.730852946125717 0.8773290470851536 0.32851782133729873 0.7407481905029049
Ni 4.420490925069304 2.9697750114788235 1.6263666386967761 -2.2172185790490335 -0.27760406520656705 -0.9773734993042651
Ni 6.062823418923328 7.078346177103132 6.531714435704692 -0.13193564450075343 -0.7262998762880589 -0.5457603547366731
Ni 0.44990888768089177 4.699832294089821 12.789732794162942 0.23556241475448464 0.3594605336627422 0.15187352107526103
Ni 2.7563893740245433 0.8875233337359267 0.43893130482551096 -0.6732497905406147 -0.19192308079797912 0.18728892446007744
Ni 4.333057518338633 2.3351731564561056 12.975383562423481 -2.170293118142088 -0.16564306405552764 -0.5016651641896714
Ni 1.1775781619041124 4.619580044394435 8.07756094123029 1.478239307521093 -0.6763497696221772 -0.0601203623306642
Ni 5.389589946865235 5.198189553266366 13.642584486595124 -0.5678209340811382 2.008349614425335 -2.2330195506370316
Ni 4.7623572372818685 6.1321817406031425 2.2885181943352326 -0.7783377187209047 -0.9937889645478111 1.5473328198846448
Ni 1.6085603770637311 7.01444891856141 1.1315548408208975 1.6932174703663228 0.28848008868912256 0.2994324739355682
P 5.324846740505219 6.205384425146087 4.6415164112647895 1.1194878841102334 -0.4873811434668316 -0.31070136198116816
Ni 3.9485836343447165 8.018015614242675 12.517785009074306 0.5271864483892276 0.7181757045190277 1.1786841919647313
P 4.101004632360689 7.064049658973983 0.6209990141045681 -2.7658847945785916 -0.09573528332079642 -1.2958956428814328
Ni 0.37982869052946794 -0.11786214975466736 7.011682669195591 -0.6097867369899627 0.4314352242288311 0.1514189500363457
P 7.8078257796575 5.449295063996307 0.22533982006877928 -0.5493146477468346 -2.0553421811247894 -0.5272342709080274
P 4.9131239373420685 4.583787052260442 11.441973429768808 -0.3972943166810642 -0.8538592460979875 1.2851898264281543
P 8.036231690596582 2.466661645679431 7.795088625340069 1.3206885335553964 -0.19615280260861054 0.21630690895898233
Ni 5.659503697421887 0.39500781421570336 13.133478990416158 0.275066643496694 -0.2516042987086957 -0.7350925348790244
Ni 3.124470669183984 7.308293592955548 7.355978731530698 -0.2841686057979622 0.15058591261208903 -0.05245307559339354
Ni 5.684139577774617 2.8534007899423317 10.242775661455191 -0.5258649013643267 -0.7579920651850172 2.1245997298700314
Ni 7.421067836554193 6.1585753125338805 2.7474524052952893 -0.8722868566755558 -0.6351162168936868 -0.9400089426128779
Ni 8.442540427722657 7.320324850815712 0.597488244350168 1.0006039305871155 1.28712869532208 0.6272599540740617
Ni 4.0613390791029556 0.5502016411916361 4.017622375737619 0.6501219462738997 -0.22528880074261845 0.8062136191955663
Ni 9.047261525919229 6.230941448678736 7.632494634838115 -1.1670995724509254 0.21283591969124638 -0.9341154599465783
Ni 7.718879066274104 8.412058108003501 7.6372817595476326 -0.44087580081644073 -0.5860369428685327 1.4942166567859556
Ni 2.9788172537143542 5.80557068738046 11.897921444930292 -0.3407968958149679 0.053093794501185974 0.5543092727479486
Ni 8.72504940135167 8.361874603538327 11.531228444134872 0.8430482715254125 0.24464535089235928 -0.6941186635698239
Ni 5.071814348633612 6.680478119319578 11.020073874351594 0.7356149830413976 0.4641959635996199 0.05019436146620388
Ni 2.7010079901869686 4.481370969725782 2.4326507836159754 0.05627913420770307 0.19981276795870104 1.526366759155939
Ni 0.46407475386921637 2.8890621901934783 2.794322614138817 1.2838425683716406 0.40236067546037807 1.0919773373947903
Ni 3.9881457939802134 7.702834255987149 5.268491576734587 0.26670155936145035 -0.10206945306894036 -1.1288335869911914
Ni 3.3059640738886222 8.509633489133487 2.3299818566778483 0.7456687677329739 -1.3740029287078208 -0.5653035669759231
Ni 3.2820613483117467 4.350014072385303 9.957523937010869 -0.16971929100743027 -1.3886260779376345 -0.7734181699321002
Ni 6.596682288207567 7.614272918832086 12.478549949261883 0.43511678684547644 -0.5268951424010538 0.9047989703706482
Ni 5.293565470068788 4.359657877513842 3.5294822863220108 0.28223410777941066 -1.2905516049606998 1.81058524435523
Ni 5.743562712299591 0.2752732999565477 6.419663947461697 -1.9590656805885422 0.0978934673143798 0.5642563566583315
Ni 2.813575446541143 2.146601988338417 2.9655283534309933 -0.5727481961794264 -0.49907092109993406 0.149328128945588
Ni 3.212270653302583 6.5652130293670705 9.501438690314417 -1.6283621644538342 0.16236053664951391 0.3596821627552451
Ni 8.626148701973028 8.00864439230003 3.362692394641323 1.3734925647303056 -0.8886146473013018 0.15239185547257628
Ni 7.434499608024643 9.360111827964346 1.9037209702863243 -0.8190879040550733 -0.6861891243101021 0.43456528521738064
Ni 5.161249831867577 7.5038955273852705 8.659881341198467 0.6879680705873957 0.7853072080602023 -0.25982617239785577
Ni 7.42934872575326 8.65287125361088 5.292276809558922 3.0970331115602017 -2.984713955738795 1.1114243903758083
P 6.659263627920834 0.8774443354519771 4.5411315434360535 -2.44995560853958 2.2340320510619462 -1.0065259524985053
Ni 4.500113413611072 4.934902393953009 7.549430078617916 -2.2837993522930606 1.1097961107437662 -1.684530741225602
P 1.2617405704040519 5.145740788532207 3.8150366720968782 -0.9511896418200458 -0.05237877071203237 -0.8635512765747708
Ni 7.604553918341921 1.504161016866185 11.224310116180028 -0.7116944676700582 -2.4761597777387743 -0.09486702178323017
P 6.908658444173781 1.6683688878170384 0.8360145110220929 0.11707106868409517 1.4112700405893954 -1.3054228656455775
P 9.608745291180831 7.55198296114512 5.827011704806104 -2.128468211686502 0.1306004706290977 1.1994335086969408
P 3.919125851427717 9.514093129734059 7.898361934997266 -0.339729373782402 -0.45650450849263313 -0.05659949366159929
Ni 3.9861437174769208 2.705350522320872 8.097990581042064 -0.8081483743244339 -2.14739127384325 1.3227796117564703
