# total energy = -340892.77293404425 ev
CRYSTAL
PRIMVEC
9.08186439562724 0.00000000000000 0.00000000000000

0.00000000000000 9.08186439562724 0.00000000000000

0.00000000000000 0.00000000000000 13.29222655192518

PRIMCOORD
 96 1
Ni 6.5048488596559615 1.929405708148416 11.508316635127956 0.1859979735627958 0.38744904845586825 -0.5902975179170995
Ni 4.595968164453966 0.24666342992247903 6.049983694425204 -0.7244150005605202 0.6462966589905386 -0.10554995541837305
Ni 2.729163745792136 1.6583120637012143 4.584927342224336 0.5384368244920662 -0.6396030490204468 1.629620719451284
Ni 3.2656385421452563 4.110733245553814 4.629416670065324 -1.1046060819023944 1.0177842990211439 -0.3427452777905904
Ni 4.908565928000789 4.684470930455238 2.463422043880034 0.3221062613840001 1.0311764040573337 0.9406985124807347
Ni 7.3213811003581055 6.1003971222418345 2.5586208683084726 -0.3137856573334467 0.22448353123250372 -0.5994136212857547
Ni 5.074110147464227 4.5213061593953245 11.642594720931816 0.5709021441096233 -0.3187892811956252 -0.7810877706622161
Ni 5.663541293591941 7.9622610068139075 12.43707074639428 -1.0369724419138207 0.282358549172417 0.525583622678482
Ni 2.0058114311210895 6.6491960082269435 0.38758126659586467 -1.025262095455428 -1.198062339381027 0.37865561853395435
Ni 2.8008832268708477 1.5333456131955696 0.29244056609789343 0.5927642342900372 -0.1547369586659851 -0.003238561541955713
Ni 0.7642506734328243 -0.32120010525604936 4.4390716960204335 -0.39314275640653584 0.5624061908234701 -0.2560944732695654
Ni 8.543554802676137 2.321269981870622 1.5773753987112975 0.6093779315873183 -0.43915778968406943 -0.08836213078517685
Ni 6.9227326741266175 0.5568653977103354 4.734810795172371 -1.1148262169685057 1.2034865957203917 0.7656742643206232
Ni 0.7210182755882008 7.497878047969057 2.2917393924473553 -0.20676888756156003 -0.9104060321447806 0.8841103316730451
Ni 7.635241243019776 4.047859500143161 3.8290519638973484 -0.010018303467950488 -0.5604737496874477 0.4074666292283756
Ni 7.798315195438334 3.7832593885529033 12.795681774584041 -0.8689837604442519 0.19602887543623657 -0.4519881086795184
Ni 7.9794257300301625 8.655089176125253 7.345775895612699 -1.0787294712459485 0.6671799301974509 -0.2861301003997072
Ni 6.8965496598237275 0.7988825459410492 0.3264330753709732 -0.9632997948200183 -0.9769461819588594 0.828526937980786
Ni 1.7822704272878092 6.308508038908757 9.583230261562425 2.0409625153643494 0.6961408362061753 -1.2635290536252692
Ni 0.022358641315395843 4.701099823687494 1.4939666503036746 0.02481294527862178 0.48171520343030594 0.4102076823086226
Ni 6.401806029173618 1.897764493500039 6.898718408979305 0.1790487959384723 0.2717938862826932 0.24021199771135404
Ni 3.4016757850321784 4.204676048172302 0.5660880307400216 -0.4129847308331274 0.31910655532572785 -0.2981088700281382
Ni 5.961871448581762 5.672886531787459 4.694800642723053 0.30090365916445594 0.044680373626510145 0.8404152047779397
Ni 5.247782635329012 2.791020322419602 9.274770195315773 1.184962054553643 0.23853409578829887 -0.6191404102907209
P 0.03231599715365085 5.61403605218887 12.79770248935421 0.9119816041620165 0.3325197434078402 -0.7249119948015966
P 3.927043461547479 6.134145329369667 12.690540125299965 0.5068994160054173 -0.04025216265182745 0.7745530548674918
P 2.437663152632275 8.613539647704954 1.4378198416582495 1.761093822493322 -0.3217313945430846 0.30996345537387904
P 6.2333828587792 7.9304472367469545 5.973181093989806 1.0679521781247865 -1.0742655219373238 0.16348539428257652
P 4.769567997405667 1.0432246513904728 12.635989000183164 -0.11789305036475826 -1.0922447321235642 0.01980083677601106
P 3.9233017335236187 6.243381991192479 8.399291207255203 0.034041920076057504 0.23063695242840923 -0.15296752547038817
P 4.796977063366862 1.0544225898696487 3.9809552234291368 0.20265383695192196 0.8471851765119217 -0.702106566871307
P 0.19498671480458882 5.651253531416495 3.6138372131035714 0.43190085101134 0.5021207636698515 0.2708600616145142
Ni 1.6341088957798813 1.2275138384297566 2.5781468761999795 -0.4939927352460783 -0.6785568045758249 -0.5535325424829242
Ni 1.970419406584716 6.525164989727264 4.928079221282507 -0.14053315636177735 -1.6320799796250536 -0.6652467177304802
Ni 6.466096545389422 5.951381895505161 9.330929718570987 -0.43892201952417953 -0.687894537036983 0.6663206675209492
Ni 8.579746031256443 2.5024713351038073 10.197622911266793 1.2236741264118602 -0.21663986681836883 -0.19062184548805236
Ni 2.7273201273726118 4.957362784001287 6.9604877997110695 -0.49202481288643 0.441216214874995 -0.3010209014686106
Ni 0.5228674393187742 9.422343222027715 9.212761951557242 -0.08471784916437022 -0.8221757989517776 0.10390599205704686
Ni 1.358628710955192 1.015888240342363 11.332606176951147 0.8110940872163193 0.842555391049394 0.8120443669447306
Ni 4.267967559333191 7.106377048812274 1.5363553429701022 -1.1959308948603211 -0.4711834506610466 -0.27744414258993505
Ni 5.516769287296758 7.926278661108721 8.235676883920577 -0.19805953271302018 -0.3292654981366007 -0.19113580900999338
Ni 5.268689086569128 3.219502672336486 5.009906817144125 1.2931674453169923 -1.0818410202917368 -0.03806312542030864
Ni 0.6583579539847344 7.478833378876736 6.518520697925671 -0.5736637660151604 -0.3811953542366725 1.2185301203170757
Ni 5.233124506614178 4.779730603373387 7.529274960472187 0.112851888396425 -1.0853248650752794 -0.8743936186059134
Ni 8.534309464986114 7.177996629385495 9.272616885329226 -0.4191538357583168 0.5982512255465374 -0.47475497006238887
Ni 4.502906302656631 0.08143707570378753 10.407799952024561 0.14126849186590512 -0.13239895729041715 0.07677262617536455
Ni 7.8187675534716705 7.520864246096223 4.485834214454559 0.9669764723406572 -1.5910749979676018 0.47956781806999993
Ni 7.280821495128584 6.269828379555301 6.946769643934269 0.3436837304444597 -0.5344238466779312 0.09537018667189381
Ni 2.2572882490354282 5.487289556312651 2.5491303202867868 0.28244211002515873 -0.5812935146462762 0.6408186665951028
Ni 2.2703570515265348 5.1319071308230875 11.648682294461898 -0.3382551032297207 -0.7302244081534457 0.011147789086703382
Ni 0.907686002844594 3.260107686886685 3.6818667327839956 -0.19075759973496825 0.6216048126708134 1.2200612122496215
Ni 3.8704089567979736 2.663510949955994 2.5421381930888 -0.8424340349801813 -0.41246793909770896 0.10022725765387899
Ni 1.4055183754872156 3.512874129508277 8.344421308707242 -1.3791672465175797 -0.05103228398646695 0.28923984967328253
Ni 3.717688329493982 2.4957507556434746 7.055287930303956 0.3351456110664615 0.6844032360542729 -0.34083751924491623
Ni 4.188691967293673 6.866906455285179 6.145979906524747 0.18478364153972046 0.3519583117484261 0.6571878519817456
Ni 0.6667250754128485 7.39126604488143 11.487181320911624 0.33525822538492583 -0.7213026801837835 0.7508048034079586
P 0.5452169987700345 5.768391415037267 7.9029864041601865 -0.7134772706020938 -0.4371595283071181 -0.10462795782473594
P 8.417643838300393 1.6344085972963556 7.915321392029138 -0.4049664885143413 1.029071184788873 0.3781329132612649
P 1.8682211894669822 3.093282924580131 10.515626200347118 0.07524461956661234 0.3189674586447023 0.2355300188546524
P 4.0009335081545965 6.252236808724675 4.03639727941764 -0.5683194709841116 -1.5477650223260568 -1.5624496209214254
P 6.987559020326421 3.900161143706149 10.430051427343159 -1.054268509990107 1.4223581800827567 0.3338451470874831
P 6.534946157401288 8.032282179299264 10.421875933248305 -0.40051822293500056 -1.3154033738970572 -0.9563989539351271
P 2.395886577608586 8.62886983436582 5.802814404670373 0.5234316093324857 0.1256942915767319 0.7482606968298662
P 6.776196796298959 3.7999064455134297 1.696566691813124 0.9556577048937284 2.13089173352633 -0.6173563218071045
Ni 5.442397901890455 2.9170765966215173 0.2404868541238679 -0.5362477872605474 0.21745773473397387 0.47988534931041865
Ni 1.3140912492342849 1.0610251050962187 7.166211094296746 0.5362904675730248 0.36424972752126944 -1.83983334258707
Ni 6.744655482156073 0.8195673996962568 9.245859897212968 0.8382529070192983 -0.07379323183206646 0.17614242092495472
Ni 2.8226252096114375 1.471280153692984 9.083655079192184 0.018070484348465653 -0.0019455537621450364 1.0475856986532925
Ni 6.409107847938627 2.0183807310847386 2.6914894487984893 -0.4467973085071983 -0.9301153376482498 0.8381006977121502
Ni 4.21039762257772 6.61318641692935 10.558852240886845 0.26877978204671776 0.730968999628954 -0.2916250620760074
Ni 8.049519557428605 7.484654853787646 0.29544484675394483 0.6429125730096541 -0.7301544741474586 -0.31065533923458116
Ni 7.507377677854879 3.8890267782759222 8.20963736307103 1.0832073045116442 -0.4897928382321177 0.47631203013686363
Ni 2.8433409417047057 8.211812469531502 12.264205636251146 1.711483358555046 1.1356264415433086 0.1900646874330017
Ni 0.01632646715654052 5.211073740492979 10.473343765491077 -0.8121562099322465 -2.5759193517276153 0.2939778785789002
Ni 8.597918841391747 2.4373543692516653 5.761954189737963 0.3332162552542326 0.1744732607526479 0.092795226855866
Ni 3.9832874461391548 2.420652821106325 11.15257638419145 -1.4567166029579686 0.16906237414972172 1.1098485612482565
Ni 1.1037552758541445 3.1095939525676406 12.764870642317659 -0.04311919978697735 0.7635376775935947 -0.12410714959527012
Ni 2.806114380612944 8.204174621793475 8.009151579532343 0.39621213936047894 -0.12782753586965082 -0.05101968558097666
Ni 5.52797630764007 7.882022737176017 3.5292723433914888 0.16000077816808575 0.33230274230102774 0.41727873022279105
Ni 3.0468927625755646 8.202866833357952 3.722966708929584 0.7497203120945282 1.3498852097240108 -1.3551773113608856
Ni 3.534970304950155 4.312114500896268 9.381400362131671 -0.6379274610902368 0.3343729945664951 0.5055575572655422
Ni 7.295307068424842 6.279409746218343 11.637024813657462 -0.38470619560340846 -0.5562052042190808 -0.363357040503671
Ni 0.682078874920468 -0.021126232352197006 0.38851669860182986 -0.5562093179841388 0.5692193570905616 -0.872767138746084
Ni 4.61029934605992 0.49629208848522643 1.8057089022489259 -0.2721700386751893 -0.8559629227045517 -0.8229738693730408
Ni 5.9574849082042745 5.609785739773416 0.35023664127034054 0.1759238771562454 0.004548024381998619 0.5628144820054823
Ni 8.269373324422839 9.049587190446779 11.182085177140793 -1.2370631461242567 0.6044334430978493 0.5307723659682729
Ni 0.13596912890590554 4.977025019854827 5.804196664391808 0.10611945476859788 -0.3748832959757157 0.06390451196344478
Ni 7.954396112472492 8.947779493486875 2.3542389650556217 -0.38828208588012486 0.002937742472085263 0.0066108204482982925
P 8.636961775310626 1.3345526891317572 3.7286692114203173 0.5879860961751034 1.8193876731382088 -0.06601101678348631
P 1.6967919220436865 3.250889594789067 1.6943734216243802 1.654550649923744 0.009691773366467179 -1.0733759202435191
P 4.835865605595435 0.9115103758320886 8.210940610574486 -1.058192013414229 0.6562193174208891 0.05492339151075702
P 8.577175863706072 1.5984807427759826 12.65345524128872 0.39917687841575766 0.5588817226099794 -0.875146180501222
P 6.302132570285576 7.753832224902239 1.39030080394163 -0.518949405191416 0.3612158257909521 0.5075223943013969
P 1.7849314134795353 3.073112104334997 6.118278404538387 -0.16171081888065697 0.24751084536561244 -0.9177244201830645
P 7.040161177399727 4.122912025359633 6.144357885590132 -1.0096958655860548 0.2406727393978565 -1.5561720154428298
P 2.2855873376819105 8.384958209276423 10.218372246257365 0.10741169121746016 0.48726081583888337 -0.6281971211763504
