# total energy = -340856.98687604105 ev
CRYSTAL
PRIMVEC
9.39568747851501 0.00000000000000 0.00000000000000
0.00000000000000 9.39568747851501 0.00000000000000
0.00000000000000 0.00000000000000 13.75153835545176
PRIMCOORD
 96 1
Ni 8.676945489165954 5.197149312745313 3.888357307198066 0.7638333544571426 -2.9571751268885778 1.559465855702753
Ni 3.379966997931359 4.630711507231581 1.9755738732190815 -1.6529416535654116 -0.8023271396569666 -0.6297950617910896
Ni 2.70551637021407 4.5239295200757494 11.711497892111963 -0.219743445444357 0.5110849148416746 0.591980304936161
Ni 5.152247322721757 3.45598750458141 0.2318442236922494 0.0165285937826425 0.5767385482857422 0.40063417968757453
Ni 6.834169321909196 7.637735485701753 6.049576809226403 -0.05269115974612861 -1.805376446460781 0.272381383355047
Ni 6.228156881120465 2.229070458495195 6.412892067821899 2.251424021286148 -0.612746590949235 -0.9310242226157643
Ni 0.7355940029584053 0.44090484503921296 5.513211780332968 0.6107362453874255 -0.44083517738649236 -2.1173435625282506
Ni 0.39352897052660013 3.39822281852474 2.169649312752157 -0.49290130195411236 1.6684358925462683 0.5506819604080064
Ni 8.317419511293727 9.30411701795072 6.8359169197632195 -0.5934368348770296 0.040618544852310694 2.3749765839295294
Ni 7.094082222102046 4.64792440652498 2.0554146663607784 -0.6153346633913854 1.9952966378961186 -2.4348544912320844
Ni 8.45201273311575 8.679144080014566 0.9054764870381111 -0.6542048580940217 -2.2127793123307566 -3.5265150687174036
Ni 0.23133873571081662 8.282476949900632 10.844972166706338 1.0254760112384467 -2.2309876078086672 0.22517850041699927
Ni 6.095865602708314 7.656536256163594 12.951281392506244 -0.26895873082674326 1.1738762290531268 0.05138092557513732
Ni 6.050324705942427 3.2800814453177525 8.410330645159796 0.3491658366049535 1.0843303623724938 1.4065402392138937
Ni 6.609706350228351 7.315143954948714 1.8582320730087467 -1.0875460410963143 -0.7001435296076651 -0.17955581748187788
Ni 2.007614106778263 1.8022431718682632 1.9049314580294792 -0.591210259539356 0.6963089863529234 -0.46061441689594856
Ni 3.3299537539691513 0.9804587702318733 5.721506653157873 -1.1440851138336232 0.4261984013099241 0.10773693576736283
Ni 8.685890183558595 5.441841199370855 11.47435262159584 -0.18357290906107093 -1.6968722935100904 -0.7900722335490135
Ni 5.3999552249986 6.281063996797938 9.425070520392705 -1.3785653512675227 -1.0904899542159865 -1.6398868772639823
Ni 8.435100495818741 1.1745454845898138 12.917548995648625 0.16724486132500874 -0.3376236402933088 -1.353254897527192
Ni 1.1062012545351274 6.6176644974453325 12.81064392498802 0.011995224688663212 -0.004311225780844187 -1.6267706515969984
Ni 6.424902575008991 2.367017940714456 10.656301126558395 -2.2496826131150094 -1.1295542672072998 0.4347588892854254
Ni 8.627862418255082 5.901901032286408 7.349936185343615 -0.9346960150403968 0.20485187304450528 -0.9353020240555118
Ni 6.54710288516726 5.437040003115983 12.842987639249811 0.019553496651895357 -1.0476700308369828 0.7146239826120272
P 0.11505676903776114 1.6003486412915375 3.7035507132724894 3.1913766567397936 -0.261462165339382 -2.980696864159602
P 8.656678991471706 8.179782086758244 5.038260722477401 1.1198486098837617 -1.5893230482735017 -1.1936346426269766
P 4.4113128110524515 2.255115303932587 7.302218307810107 -1.7778332467351898 0.028005484073990478 0.7063954240546481
P 7.2065110173776 4.313428539852325 10.105524052781693 -0.685722983306961 0.5433604870459287 0.18463580310794653
P 6.127200220144714 5.865107520478028 7.22089111692375 -0.02666182556190247 0.28948744690771433 0.9860926243448179
P 4.984205453801208 5.7580530583879685 1.11668120424684 2.951716417766852 0.1281275836085729 1.2864712642437393
P 6.244589938360724 9.545454644179022 2.5213721722492926 0.31522033289744417 -1.8849083805488376 2.183529157216388
P 4.308636739284839 8.978594032732866 8.87554495217598 0.9514539512250257 0.9530166677264554 -1.1071995536611836
Ni 9.073894489901505 2.3309666882096676 6.97059940061542 1.0267247960438834 -5.414347307781256 3.2315023211160865
Ni 4.5355895681232985 0.5070204180456493 12.431720550504865 1.056471945399329 -0.13565448811323735 1.1517675700795453
Ni 4.93283923085524 6.0118869488412825 5.408548520682957 1.186545596990679 4.006913095998184 0.14034700849290022
Ni 7.500924881656346 3.1333114126418855 0.16762000255686182 0.8293604896256749 0.17883925103082748 -0.7450285630458137
Ni 6.523209652141543 8.670734939802998 8.831746955420423 0.9097300891236783 0.1908732993772261 -0.3652249469503452
Ni 5.352723104503011 9.293124063707664 6.573331886077442 -1.147615495584385 0.5112939455286872 0.6845479891622533
Ni 4.9778821561896045 2.0658391815169064 4.45042423893926 0.12537830299820987 0.28118535479992224 -0.9474898243709552
Ni 3.610706288786871 6.773755052009328 3.4249854944785167 0.5643905682433505 0.55123294781547 -0.06408757450852834
Ni 1.3902234885636011 6.298258104716563 5.498552628871417 -1.108394602410549 -1.8602052213752027 -0.18931675352338365
Ni 8.66774711121386 6.980892376148127 2.87481444253829 -1.29462268970628 0.34626228980491336 0.4427640189780891
Ni 3.8344363968515114 4.36754769920275 5.974479898646518 -1.6261294184685735 -2.9669306636134447 0.6841024169844023
Ni 0.9017755257762826 7.899677854370244 7.44600427017179 0.20486395722936332 0.1120173083102716 -0.2100691555793866
Ni 8.147667627268705 2.4602325552831315 4.758637549283626 -1.6562223811992118 1.6211592189474917 1.645642805911153
Ni 4.057903425669309 2.2485477184489153 9.921762259293574 0.16442796070150392 -0.3689566460786355 -0.38217700142365146
Ni 2.9206400286320107 8.275627493795342 0.22727885919079602 -0.5688414049258526 -1.4734925368647267 2.7244339836329723
Ni 0.6996545591335247 6.709995917399609 1.317951861181054 3.5149430476090884 0.7828425485697937 0.6576699338244868
Ni 8.544099865197957 2.748060042703432 10.931895429000525 3.107653824498841 0.6593696901244128 0.24583062944971212
Ni 3.4996868466194004 7.1679605120278085 8.034969175765136 -0.1338266908758792 -0.19796440189605263 -0.4292952950676929
Ni 2.3076841748641197 2.9814583130895285 7.353002937706805 0.2248558269702579 0.3552025297173367 0.3654046670613191
Ni 3.2323137706410927 2.237836634827477 12.383329002185693 -1.5656676136380907 0.9544117483017693 0.006100713581099171
Ni 5.011265033476421 8.885698871535356 1.0000741467901864 1.2116814728263585 0.2807202422380456 -1.2125196524569375
Ni 1.6352536199350844 2.418637847219879 9.864363065476269 -0.3439858350659108 -0.5524513936036034 0.6406541159927804
Ni 3.2709394414899813 9.350804188577849 2.446536461778771 0.19046860773963972 -0.9281713265480015 2.49774213189524
Ni 9.087029660868849 1.4013855651796263 1.2459996871696724 0.6768997285883762 0.6886550693520914 1.4773689891009976
P 2.748971424379993 2.588286378683643 3.7851250107371293 1.9262985134598503 -0.18367549607720626 0.28646434381067437
P 6.7921330165387435 3.577107310690148 3.6619249994408594 -1.5461028041322857 0.1818171027122288 2.1494412143937436
P 3.3905183548672144 0.9309106127953337 0.4689641258524266 0.1736942164947783 1.960842055762675 -0.4943568034537163
P 8.365929445273979 7.061347647244948 12.771686586374363 -1.0534259594841535 1.5299048542161846 1.2804034607831047
P 0.9286753787659124 4.3835955332601335 10.657524445056213 0.1727436796560509 -0.42493341855457134 -1.1510661731371468
P 1.722473785950709 4.728426656058738 -0.01699491934601553 -0.35309088269097255 0.8826972533756025 1.4090874311157797
P 2.404253049830035 5.439107054341173 7.353635267467965 -0.5730235613280001 -0.7782317892706598 -0.046972512094796526
P 1.8168816528175622 5.673501267590315 3.333689479274313 -1.6271560599608752 -0.2383718591788217 0.2070373107315983
Ni 2.683295569543279 8.028436354324798 5.845971323976463 1.6884565586425695 1.0463276578764755 -0.41243194365345104
Ni 7.182702345538368 0.40667635588754636 4.961073271453857 -1.6568633572173206 0.10841159323688426 -1.799807951234068
Ni 0.3653325126775331 4.0885897406759915 8.545081714529923 0.11313933772985678 0.41088156844719553 -0.14445357446210608
Ni 4.901373073795418 4.6279397794523485 3.675332645342431 0.5318617423777098 -1.0113295445347357 0.0012102182580172706
Ni 8.716351002067983 5.26952429268912 0.4797212483420624 -0.4207975420093269 -1.1622633274045466 -1.4533037206216777
Ni 5.4074435878462195 8.26476607917571 4.2392965663671065 -0.661689339396525 0.7312039984578955 -0.8428286993154388
Ni 1.3796627359403584 8.083156837668005 3.6690751175425382 0.0482367235192008 -0.618400961021535 0.5453201818754608
Ni 0.8242554674192306 2.9821254068940215 13.38434459685208 -0.9419511539409132 -1.5143923604028824 -0.47297011024782415
Ni 4.921799298175249 3.9640123216087537 11.784133132596395 0.704656072766038 -0.428857436199326 -1.73561676126814
Ni 0.8998127666810909 6.391491510660013 9.410769344620606 0.990931697604674 -1.2114385035776167 -0.3860061453617546
Ni 2.226843680584422 9.08952891371385 9.20571974221925 -0.05913871514368525 0.19073163159303924 0.5272121594208404
Ni 4.967537504376268 8.630248922851438 10.822007227594478 0.6116037355940435 -2.0516292510495764 -1.1906099968680397
Ni 2.9113007153691073 6.909306633944847 10.500619284395745 0.3021935816204731 0.5451628303619902 0.825941436641797
Ni 6.916419169296978 4.569179150532634 5.618864405864854 -0.35496573111618224 0.24166467099748054 0.48929532977040885
Ni 7.958382109165637 0.2554076680906751 10.733488577581939 -2.9755492585203913 1.4859503030121055 0.3666935610760717
Ni 3.2680267783999413 4.640670935862041 9.339907070346143 -0.40191458906189487 -0.08062799536571276 -0.459161486499506
Ni -0.04383933778006073 0.3669091090211096 8.946420380412786 0.7788144012470071 0.9238739847242283 -0.6965874368252907
Ni 3.344902292602229 6.044076573829921 13.671833839526439 0.6477771001908069 0.10031853181610464 -1.6107076845968646
Ni 7.017357038897954 6.9500369387684735 10.752713093544944 0.6008665516821975 1.2276320826183438 1.4406430944348738
Ni 6.728787292174062 2.1251729473672425 2.1691400664957694 1.9210503776870331 -0.1710002146023829 -0.6916743157943895
Ni 1.150595877439773 3.6789847490298464 4.982361080367095 1.7378047700583943 -0.13663742085179695 -1.4728818998639215
Ni 4.535335884563843 2.1663448494980697 2.0431213489833313 -2.348925138258116 -0.4392572913764113 0.6321165108354145
Ni 8.655241451301462 -0.22058161322118086 2.960390363261151 -0.6962007429098332 1.9914219854320605 2.6111624912006257
Ni 2.0988932097451696 8.755343104724973 12.194671116000091 -0.47740217787724876 1.8053674475997163 -3.674010772439943
P 0.6787275446159547 1.0361751964381272 11.437746083966466 0.7211394151330419 -0.28884775644118643 -0.2615614099214076
P 7.536196292107995 1.4042982282696668 8.368897542919603 -1.5819298411332239 -0.07608614163130122 0.5104724780686564
P 1.2421568510282965 8.885473375038062 1.6514226583597627 -0.515226447813874 0.17662038900263777 -0.46024906313673
P 8.36395635092266 7.120643830345735 9.162608570211699 -0.19924558260132136 1.4283722474873206 -0.5400244806941602
P 6.350723623086837 1.266632616672022 13.240668564032827 -0.024192280975487368 0.4009545391414708 -0.24167264141728054
P 1.6240445648821231 0.9062065319480986 7.314745577803496 0.3544602522346734 -0.6166785790137895 2.157285907249143
P 4.6319799250288565 6.118283712814237 11.528986664615084 0.6231292197351397 0.4274978368476379 0.5660347887149929
P 8.923319203833811 3.9842130494912906 6.129748330564131 -0.864941214943762 6.497048876301075 0.05152002225616288
