# total energy = -340871.4311790142 ev
CRYSTAL
PRIMVEC
9.27592324130630 0.00000000000000 0.00000000000000

0.00000000000000 9.27592324130630 0.00000000000000

0.00000000000000 0.00000000000000 13.57625128834006

PRIMCOORD
 96 1
Ni 7.91080391539079 0.3816699081927555 7.76979690036389 1.3612674834190235 0.7392386958369139 -1.0995237822834805
Ni 1.1604179601790128 7.969910096384081 0.2759754042178573 -0.4715354346838267 -1.097353256994723 -0.33334018242660657
Ni 0.5689953168436199 2.002773798562836 12.228387067175534 -1.5820643098285592 -1.9426185907761124 -1.0557733766704074
Ni 8.548310271499687 6.665446328822015 11.141187677155411 -1.7466858745981082 -0.8263492136031769 0.6726610079166803
Ni 5.756387328554521 1.1826430715506269 6.7027986153292005 -0.3382702727383723 -0.07293062672145505 0.4028540701570288
Ni 7.494982841698505 2.071962907795253 2.9597447960159156 -1.0025258302001767 -1.6435224171340406 0.10117085251407092
Ni 5.684072233290287 7.3267639791257935 12.860958632278713 1.6313276748400616 -2.668086715191495 1.041584229654219
Ni 9.257157750963794 4.225720904102564 5.783931254141696 -0.5828112368423833 0.12163786211917117 -0.20454796865084127
Ni 0.20978520087293823 1.97035444787678 4.502522793054649 0.19144382716871544 0.5387890656251625 0.304046832779128
Ni 0.054894911977133476 2.703764571294157 1.5595442277583462 0.4869617965412258 -0.526037679496765 -0.30529484625361614
Ni 7.268613218195639 0.9982191715963572 11.290770282943187 0.9933840157999086 1.0266556333688448 0.9358949204445043
Ni 5.0962106167727415 6.532346110511795 9.16421393066645 0.48819386917611407 1.2034506002761338 1.1341796817944532
Ni 8.833943766685877 2.187633666895431 9.578723388854584 0.35914300242232344 -0.8344849553364337 0.6085464368249583
Ni 4.377094690610647 3.860156780915874 10.121827749579486 0.557481499828343 -0.31877462590760586 0.5515746474256049
Ni 3.9352824808318596 6.791515397541383 11.270352121360885 -0.6190419370396435 0.05643622861085763 0.08746481578188808
Ni 3.5429387681085047 7.8186105172595415 13.57896608564911 -0.3326400710357884 1.3852895573652335 0.2327483423444572
Ni 3.0742078299489055 2.0715825949545863 11.935112994261132 0.9147229143525795 -1.430444042414685 -0.772829901528798
Ni 7.212169227087011 3.0029038102854675 8.057246621262335 -0.8880438623994964 -0.07597378442315303 0.22592643432661735
Ni 1.6535816793706788 3.5743748709625947 13.218923919390436 0.5241368629296264 2.4438448676561526 0.5831153983463635
Ni 7.965188651606054 7.044098779281388 0.4129316236955158 1.6795384302173333 -0.0676881473755931 -0.12729454618431624
Ni 2.1329057215312726 1.358273396554859 3.1730010472541537 -1.4410606415882667 0.7984974814982312 -2.1259991813207195
Ni 2.460206662577767 5.351502568012124 9.507285795900765 -0.18091438839230134 0.10386279752393725 0.6377536545165339
Ni 1.5058440546562812 4.2306835228771105 3.72958610679223 -0.1523730864194989 -0.7378688120725808 0.16790152107240114
Ni 1.344647065751478 8.233717344885209 2.7139875659697226 -0.41361773643143607 0.93369894123445 -0.007869632556063866
P 5.233679794789152 5.544822078068806 0.8427556306626702 -0.8467424325475481 1.3431185804241386 -0.3344246737400369
P 3.8371153883252687 0.3991104985103301 5.7929186958812435 0.5349141560507884 0.6228535974762499 -0.5511735553324443
P 4.9900198509203895 3.1204297539742614 8.300873171808503 1.7181450868459378 -0.97134889037674 -1.6558781104859157
P 5.425051361027787 2.256544498439555 12.012348039054373 -0.42832701761715264 0.11908218557685299 -0.3389109916461647
P 6.6193078881031475 5.564644725398163 10.559811785959665 -1.2594245445385923 0.9254166466209998 0.8168525869666513
P 1.9989892220020606 6.303156606434231 2.9920695322879527 1.4826389792506853 -1.567838138926848 -0.7564856558428198
P 2.401193240813907 9.027764176581485 11.989323343125065 0.007553129756909573 -0.22080916770471004 -0.455950435761376
P 8.630726846848933 8.973509303287424 9.680586009061697 1.4294302564381898 -0.17597709899168404 0.435777817468243
Ni 3.393865410490304 5.577009530681285 4.904447606585909 0.39748740652847675 0.22798074575248478 -0.22885080706226393
Ni 4.647701190629052 7.970114166688829 6.856278036345364 0.35890491826958837 0.5812107251244829 2.070864959350737
Ni 7.162478107880945 5.319890222622116 5.587835460348152 -0.5489827183287126 0.37861628065558667 -0.11043787963829366
Ni 3.2211662771360845 -0.05800049097847587 9.704589314861499 -0.15270244473445957 -0.4720077463345549 1.1393753670627795
Ni 4.768399499964378 2.19043499562424 2.257784689337044 -1.4104208052152225 0.2601755853174745 0.7105428705641181
Ni 6.873115691671638 7.7850873317432585 6.22154796397333 1.9433325861240014 0.633882858707218 -0.17275344984806376
Ni 3.537929769719243 2.4190864961711043 4.582433014024675 0.5017577239034778 1.1713622043820213 0.2940526976808936
Ni 1.4206447024241131 5.4398000785072815 7.159775103935331 -1.8355457709553096 0.7976027375981037 1.0460720902222436
Ni 6.2433825589890395 5.2142374603004615 7.84359707089131 0.5672092686390683 -1.0001475597759872 -0.15940402512435128
Ni 9.281210219155195 8.838943489152197 11.902054532484298 0.18258817655029844 0.22990650202028795 -0.7026943210539769
Ni 5.422537585910214 4.756665457441384 12.237496951097931 -2.4708262813410027 0.11092870323178315 -1.7454293764831876
Ni 6.754087048466065 8.14944558494735 10.626891550314825 -1.4230577772529427 -0.9722770586179641 -0.5664405087938439
Ni 1.0807656098668053 6.641134134788209 4.857243362320882 -0.4441781257167963 -0.10721165939151213 1.220347890252105
Ni 5.815781063159046 5.473017158566441 3.3527906961060623 0.47266800562637296 0.205245251828182 0.44465069447784067
Ni 3.195824455655596 5.525435399117773 13.575653653566137 -0.3346159638152366 -0.30298548139414916 -0.3203820796040418
Ni 7.3657043036408325 2.8958596595223516 5.663292310713205 -1.240888690517934 -1.2987061157470343 -0.6561468123117409
Ni 0.6424828887678582 4.19430335309436 11.104273214211139 -0.08758180097572658 1.0005995597117412 -0.4673751326585499
Ni 6.2440782532097705 3.9020654007726985 1.6164696392677194 1.272318369782125 -0.2539784553678271 0.07860196607461946
Ni 0.3825325690264617 5.002477415432942 1.7424570798651884 -0.011904207636753691 1.5348760821785308 -1.3103452426478595
Ni 6.160594946722072 7.815707153378359 3.9173048145758806 -1.0449683156351035 1.530032123822668 -1.2611271290519959
Ni 3.5381245641010475 9.001309244347826 3.8095093140543757 0.4309688261153739 -1.2060170754517294 -0.16054559492796222
Ni 4.961644802637514 0.06034451670619159 12.278768315048568 -0.645152003863134 1.8639052959346092 -0.9489844066386107
Ni 5.578873991192843 0.9459122421203423 4.148657463883769 0.07561948640752783 0.30308883974123285 0.7344387033451093
Ni 8.220962950838477 5.1075086909174106 9.380075788659399 1.5888890460598766 -1.4064101413939327 -1.7777352877047445
P 7.851271041942118 6.133806081262463 2.354352612728248 -0.5044715232902152 -0.23104987159611176 1.551959520023379
P 5.3917879013539105 3.420709931487571 4.074341552040714 1.2043183475930677 -0.43779021991258155 -0.43261201814575173
P 7.278955872277171 8.836327678882249 12.95231348697591 -1.969918049922014 -0.7730821267489201 -0.8243388680413675
P 3.119047641455743 7.267027035372373 8.636151406586043 -1.8923725501363668 3.0280776674364107 1.3774754606374535
P -0.05021891922152804 0.6918771784397466 2.62343415101481 0.27902331415159687 -0.11904824701512401 1.008886739421198
P 5.386203795742178 6.6356427884059075 5.39240567782192 -1.9894293804820644 -2.84408901099416 -0.4327963662424159
P 2.035805360163136 3.8926039593707595 5.887856839611349 1.8058981232922058 -1.0785744337253231 -1.7260283462487562
P 0.9082325155332667 3.858746840628526 8.830577534249834 -1.2398515075026713 -0.278233728370766 0.09357452822405175
Ni 2.902547599964311 3.4895094519563776 7.872745731147637 0.4993385729390239 0.7312034842372632 1.0174168883793961
Ni 7.467776559706459 7.268381320122062 8.333388064500873 1.1115897123090792 -0.47788014595493183 1.6089462218210675
Ni 2.4149587104614345 7.995687886242894 6.436853266589694 -1.7075832521696914 0.5199148544284787 -0.1517025427150355
Ni 9.31404698637369 2.179684200933213 7.179379767075526 0.8251711341346757 0.8151813699118154 -0.6653729588956994
Ni 8.322014855380365 7.568661497635372 4.02011821688466 1.543812208325896 -0.9732337661042788 -0.7657321141417522
Ni 1.2967925792881403 0.32324921790495825 8.227167615695102 -0.6024156413368722 -0.4379915372901102 0.18264756903332413
Ni 6.350000017296773 1.7359982547199235 0.5991689665851571 0.36502491512439716 -0.6877649534376542 -1.1008106194157041
Ni 3.6454748203212852 4.476217203180376 2.5511672905498806 0.04134513860569009 0.35055551786362854 -0.3215275060623946
Ni 6.495891733345499 8.632767549896409 1.570243077280892 -0.5997044130532962 0.3265077328858054 0.150627821593618
Ni 7.312145124567502 4.993349907256954 13.08993571772088 2.9390110543850416 -0.4815305982233256 0.7149723670903815
Ni 8.626357887142744 0.5485753000767287 0.5654166657721804 1.2151444916742944 0.7168541574941267 0.3597130159931805
Ni 2.3902290998951896 1.78146882898689 6.499603030115025 -1.4611296444239998 -1.4455718991950588 -0.025421011176265898
Ni 6.901629878798658 3.267582995543245 10.658524302735309 -0.3037701820789736 0.7833621685186896 0.21448091149383708
Ni 5.2896228860588534 1.218503789648565 9.855977942846291 -0.1604959726369494 0.6374237819809409 -0.5741880139497466
Ni 8.165316689102955 4.047057352295945 3.7244676525122395 -0.01605525369064977 1.9770849999840983 -1.534445936619648
Ni 7.78047719804055 0.29590286947647104 4.982049977927696 0.06896470009517154 1.174230784179068 0.1106232561762224
Ni 0.7021085214459611 7.0708227132803945 8.889661453028062 0.0572389270178111 0.8209393554415152 -0.0041878128291024655
Ni 2.4589265852116227 0.8038755996467604 0.4080126017588017 0.3136360191294598 0.7280019465808301 0.7984604576127088
Ni 2.004248670310786 2.302107831935952 9.956510395703368 -0.3303715867165859 -0.3587208272832403 -0.978618941675592
Ni 4.225850767023767 3.229356917094822 -0.002831011682227296 0.03180248922257749 -0.009085764351352093 1.715302732301136
Ni 3.553244318498264 5.770236281508535 7.4111396294006155 3.163596658413048 -0.9294792467261477 -2.123044212457453
Ni 5.019461630341718 4.047882909437879 6.220244696799828 -0.2004681421545128 -0.9397248357135558 -0.7092367501581849
Ni 1.4404580738305268 6.826365040038526 11.268681527638835 2.1431633518048314 0.5713356321026161 0.9219505424492703
Ni 4.349962616002146 7.304585247368895 2.3515151078999605 -0.4864041242655429 -0.9038754301151142 -0.9948253762321253
P 6.092945640698207 8.933492971710987 8.418619882463341 -2.1784401727292546 -0.16398341696491758 0.5440197178964825
P 0.5560878700683273 0.2725191953292666 5.854241822457929 0.2202404396854336 -0.14997347583907075 1.6874083198837133
P 2.93750855353677 4.562177181093876 11.483335660464595 -0.9018206044686147 0.517751785338889 2.0052606910873654
P 0.42705143359946857 5.818118595740702 13.005301269195947 -0.016102047768185173 -0.20761375206035854 0.08358784932498507
P 4.372809214210946 0.2191956246986905 1.6365900437235492 -0.13190659103503088 -1.790212337125833 -0.11842758271198958
P 2.358895032193473 2.9719500554244176 1.5267983645846934 0.3646893861618493 -0.05972055578908425 1.0101491510733893
P 7.998090350285151 2.7746418985022134 13.124867915932215 0.5418144827150475 0.5045160033749053 0.21416749401847632
P 8.761619395498702 6.332366487781984 6.663060561441056 -0.2572360430731764 0.5818499013703785 0.14663412705319262
