# total energy = -381170.24835961394 ev
CRYSTAL
PRIMVEC
9.24767464470043 0.00000000000000 0.00000000000000

0.00000000000000 9.24767464470043 0.00000000000000

0.00000000000000 0.00000000000000 13.53490661179766

PRIMCOORD
 96 1
Ni 6.251270687545836 4.319255798456335 1.3183447641556953 -0.6781276874582063 1.0942067409459413 -0.3721499562049526
Ni 2.2633683107072864 0.921550174608513 0.1709876502198798 1.5100500242737864 -0.549391523731357 0.10129709367929006
Ni 9.116329685762251 7.799238906255919 1.4858895051944665 0.06176715390546782 -0.5024074416723346 -0.8888306199668499
Ni 1.122149803041736 5.986925914669155 2.4587781442642322 0.06094388667322407 0.1601604436744016 0.617093297953705
Ni 1.309637153935626 4.159086077755823 9.076372334191651 0.5065034661185793 0.5916609739235295 -0.5930120886347852
Ni 8.613052749274765 5.2461871948013155 1.0002025701933814 -0.32282411338663114 0.778778148692433 -2.5365480490188443
Ni 9.159775260118543 9.187823456589943 7.5823901891250705 -2.2961820422281294 -0.044244571640672185 1.3424331243213397
Ni 4.95690144405343 1.475457203697801 9.515499078096724 0.6006564925539204 -0.6212605419575171 -0.041133022594884
Ni 8.08738719305195 2.3905238337807293 3.5313650363305413 2.139001250007342 -0.11645374681507041 -1.2572090249445123
Ni 2.7758096925304643 7.105515363064835 6.756746721006912 2.6672806743504323 0.9650196057246024 0.3511101048155179
Ni 5.152369537959128 6.399677366402753 7.075859920781786 -0.5517206860851659 -0.35144691932964633 0.6362184488189301
Ni 9.148844508971429 3.100421559506755 10.564346265197083 -1.387412003024875 0.6668649700601934 0.6193250154977011
Ni 2.0404901098641552 3.2606745092769147 6.305059785724504 -0.25403399119611086 0.11704381499058551 -0.3641317138861664
Ni 3.606075148316413 6.294207639809835 2.85476911090559 0.2928180539428441 0.7409281677241949 0.10242092287108813
Ni 8.561839128417985 3.848956068898297 6.864065057713456 -0.03255890777262779 0.26695892678789507 0.893381472562326
Ni 5.8837588590031675 8.438734086734081 7.523296624907499 -0.65807616812397 0.8596696821321775 -1.2808827144123682
Ni 8.465681809951246 6.53667241504348 6.66522433695213 -1.9116627658245464 1.6642311104363015 1.5556549665970951
Ni 1.2553995435482994 7.810141914379816 10.282955254089035 -0.24145229787635838 0.8021417631190378 1.432733866890126
Ni 5.3351498225807 8.629051225996005 3.5258561966872795 -1.483020273849504 -0.3308924922170624 -1.2949767306115891
Ni 7.09480655610345 0.20485725772944235 9.041845217031868 0.3724114373964554 0.7236074170575603 1.933699948130244
Ni 2.3335766547926378 4.13015010454151 3.604778624364784 -1.6550849251606592 -0.67767517330182 0.6188118233067085
Ni 1.1566343808992539 5.8119229242224755 6.027391888332047 1.5401879813097472 -2.5433743279120584 -0.37748679503683374
Ni 7.045044820128308 2.9754022492209455 8.766085114869234 -0.3883098537942667 0.2578109417400399 -0.05314058857872138
Ni 0.39018065281248226 8.893876877941764 12.783367353293553 -0.394014874598844 -1.3642743885661472 -0.125466491836642
P 8.68430608056792 6.665020888115213 12.855778493422257 0.02291212871148312 0.6963339260535878 0.16102613410880656
Ni 2.8234259680435665 2.233775752610194 8.785995357863934 -0.8288856068717854 1.620821118881783 2.1813830574076625
P 4.05346838837242 3.13036552923125 10.658508860294589 -0.2558499613589271 -0.45042539217808886 -0.5763279431108849
Ni 3.2693210848459087 9.154531828730715 5.055909820539335 -1.4314328886905154 -0.5948301156801304 -0.6211816090904657
P 6.2935510549270575 5.038586152075809 8.469657385178103 0.42856407332862323 0.3539827983776226 0.4808675107180299
P 0.26526121741025077 3.721837536522475 2.191625777438089 -0.3085267229273525 -0.3628348494516138 1.441465076115537
P 4.26316865318794 5.579436389672196 13.337500025638333 1.6541531573750092 0.4509609529665846 -1.1302800896297307
Ni 7.888118304965654 5.0731447113285695 3.042254612264599 -0.7988782618764176 -0.4051611210236506 1.453416334940142
Ni 0.05598634561737684 4.126386301058536 4.731424646702397 0.9503280651506988 -0.5327585431603664 -0.749587900281722
Ni 5.625813476814982 2.2054501259066335 0.2852112254048936 -1.5224286004437975 0.5113713357338419 0.24761420371269613
Ni 7.356839410378796 4.643867665432626 10.614614773729636 -1.7777082911215514 0.25193365702365644 1.0218191312121498
Ni 3.570887747204089 1.1106919344535184 2.55491696738216 0.8777707626082625 -0.16087418191197456 -0.7072035217782401
Ni 6.494234837197369 7.1109437479407696 9.388785593859856 -0.040957930469600425 -1.0289362018729054 0.4137930856670357
Ni 4.54387256208767 7.381697159180353 11.534027810783074 -1.0637803061352842 0.7195733561975027 0.4881087656614755
Ni 0.1997627138995398 1.8192764904139855 13.36095582700004 -0.35305360169513395 1.8111341748801646 -2.3224049804804006
Ni 3.401035711401185 4.603936207350362 7.665819008540297 -0.23210222412002607 0.6372116659701349 0.6058634906761565
Ni 7.300373110459782 5.196148028594014 5.337355392926373 0.38405236406949345 0.27587705521313133 0.17761926258079733
Ni 2.0671788981979704 8.32366527410842 2.37066630253014 0.11759737350121038 0.169412815510605 0.8496642341800335
Ni 4.6754114828292455 5.313297567960878 10.176828017845896 0.7339247398231682 -0.5609774287967435 -0.6280891348435763
Ni 3.513561413565378 7.615496863496192 0.5426859009658469 0.23252697036227052 0.09087666967691446 0.17257758639183182
Ni 0.4623818707321845 0.9054166818409545 1.8135013177478498 0.8799495154271362 0.1043155687906397 0.07072462020907175
Ni 4.386134979755763 1.0367290345595985 12.044564171678752 0.5185490844292038 -0.7343075770838837 -0.2291652529788892
Ni 6.915956533104149 1.3419762713311045 7.012651141453838 1.5594244609418562 -1.5439996417463537 2.581015278193284
Ni 0.3360503154482574 5.755280918489761 11.011525883974326 -0.13489806956318703 -0.5548432908745478 0.3907883972417463
Ni 5.964528047259418 1.5757482326237275 3.331170456036272 -1.0831918778926763 1.5081309528742026 0.1185355690447636
Ni 0.9616841567602538 7.0870755003005845 8.189430656277688 0.03344490992200692 -0.8792404051752535 -0.22214794112079164
Ni 4.45256102500933 2.0861828691009467 7.28700374757198 0.8834014785314787 0.8740166948824689 -1.8062717045815406
Ni 8.553183305174585 5.453501559620258 8.971437123179362 -0.23143013775366597 0.3529633559741727 -2.311956788563883
Ni 5.331339780725698 0.600561546464235 5.55486069494 0.7544292875344233 -0.49492373170077997 -0.33032145020494075
Ni 3.35213400914574 3.0482184374886034 12.667332158692533 -0.7901254553844521 0.4352291440536247 2.06927550337643
Ni 3.7564423341472626 5.208882076250169 5.02456297860755 -0.11848491831248627 0.561989929221658 1.2550223017058386
Ni 5.74958435105607 3.978543730340345 4.411418121579966 -2.685509795763949 0.5805538082667744 -4.40036129946028
P 2.1015894946602454 7.191454001313671 4.440708280724004 1.0289786250750665 -0.5354474028464392 -0.8257151795636037
Ni 5.86634548809791 7.36181465920887 0.970548977445214 -0.057656988391836195 0.21548749838148049 0.27696334629877456
P 5.749519617335233 5.723653872023493 3.054598408060848 -0.1347944541057872 0.7468563602831718 -0.16557570115270195
Ni 3.861606887484804 2.3520904989521307 4.813662365654216 -0.2612760174705049 0.5550754614900117 -0.39439462653576596
P 1.2534575319231775 0.7491106395069946 9.260610052299505 -0.9369902103912122 -1.162895818782223 1.4703629900968096
P 5.425157437567886 0.4715925544399045 1.4959592978544427 -0.2281499243404974 -1.3566986331014181 -0.15418674258946993
P 3.892558853719481 0.09633024997811884 7.850949127228266 0.7591099808395443 -1.2123689858116862 0.30053753407428885
Ni 7.034696672468731 0.4216689841626694 13.33887977865961 0.7293458622032343 -0.7810576887552291 -0.5672951434846553
Ni 0.9022160617292659 4.196049032353972 12.913166786479485 -0.6323206564264208 -0.8628161981809592 -0.3895406408775743
Ni 7.583684863541818 0.30781531595386935 2.1120541630173295 -1.0355537071894232 0.34429436744526515 0.30287723795105903
Ni 7.742356460988664 2.479708405745841 1.1033409580687126 0.5411141142139132 1.285917191512482 0.6358908902761822
Ni 5.512501722326334 4.274145642707079 6.557675733152891 0.20959761525960674 -1.914937837031392 1.3244685694231189
Ni 8.630308909715131 0.7519413526424696 10.712283162194208 1.4363902326957907 0.9363731456325035 -0.20547587978174936
Ni 2.0185453785002805 0.8452744313458174 7.173472823199926 0.22198081941530803 -0.09163385955791316 -1.844573428375217
Ni 2.653629418287095 5.0586998439074256 0.995329970549207 -0.7082260495054835 0.11745647704797191 -0.971273042833482
Ni 9.267556905312798 2.1656943736380714 8.379934598562599 -0.30902011762400333 0.6126681723028158 -0.43100816399374153
Ni 5.488855418871878 3.9201539141450197 12.1769899443958 0.16809358247854922 1.0501074366338816 0.5644139652821183
Ni 2.672892324073421 5.073033739235705 11.513183552673436 0.8501995378582131 -0.6502715844778866 -0.2482150705214886
Ni 6.185806400430426 7.296775765116104 5.201951869050806 0.5587338841782056 0.36505268303853905 0.13033976076854326
Ni 1.7167382766075612 6.633023934672731 12.87610858083496 -1.4097168371696622 0.3047564572516429 0.6867293130842883
Ni 0.16001528453794234 1.775821668383287 5.761714525573557 -0.5391911861595875 -0.45883958438371303 -0.2457067022773381
Ni 2.033147456386314 2.8479415528921264 1.5250728264173383 -0.22970698441497214 -0.5239615136940265 -0.5869208881353827
Ni 2.991335992221349 0.17126415568459952 10.356301334100118 0.8562673413188479 -0.41758237750613897 -0.34891901070147
Ni 6.869718161077443 2.52195178242944 5.3605541089396125 1.1474548016368042 0.2968310317569791 0.020702265544357897
Ni 7.271955007012168 7.5092595799276305 2.890744413877249 0.24851511826041067 -2.0780751039459306 0.9890594202826257
Ni 7.923777337472651 7.9331729746684765 11.225540188899936 0.10027919393773697 -1.5195371378286153 -0.1412345533041761
Ni 9.11118797879288 6.767642330991285 4.3491035923670145 -0.6960858145985237 -0.413927554362371 -0.36124770747015206
Ni 6.609294402148626 2.186464650352468 11.036592630217443 0.8707681060381842 -0.9054018940619697 0.7737380151653643
Ni 1.670666362720151 1.5819719174985223 3.672656554499989 -0.2814931158483281 0.7606863241877286 1.4885962252753848
Ni 3.993830136132374 7.408099269607603 9.117288669598084 -0.2744413512078693 0.9126302934896089 -0.9149088051111404
Ni 4.035407680258788 3.8066387108194553 2.2222559246034606 2.5240602009644793 -0.8725699351336134 0.43602952846773296
Ni 9.277636870414618 9.067964348622315 3.8238948712598217 -1.0270266435550182 0.5819928547061461 0.0008014128553728134
P 2.5065266615213306 8.542187820306633 12.324262858370622 0.9825231618260047 0.5481926183272495 -0.7730211916039977
Ni 1.6627226104059625 2.0042762168928387 11.334360347929909 0.8721184494184916 -0.6569713650955654 0.015188020594348036
P 7.967833258339697 8.598487662086352 5.619030307638664 -0.23118819694618892 0.13187213825266966 0.36393888114906997
Ni 0.9510215881708952 8.318551310162265 5.8770996086638805 0.7078182725441036 0.10127626774368363 -0.7513267373496997
P 6.0952346773045125 8.93576884299796 11.56426493178622 -0.3816586670263363 0.41979481177642536 -1.1194194927661432
P 7.818104162042815 3.502593671720643 12.469411581534537 0.28491576837663185 -0.39811964079583695 0.6004672593612498
P 2.4612223046095636 5.947530821702401 9.532607275746606 -0.2799602241435694 0.002337904104557264 -0.6562992787292052
Ni 6.391881576879051 6.171259808590824 12.319985808958151 0.6852684122680457 0.23321628311981124 0.5506601060311355
