# total energy = -340887.90826120734 ev
CRYSTAL
PRIMVEC
9.11599926649656 0.00000000000000 0.00000000000000

0.00000000000000 9.11599926649656 0.00000000000000

0.00000000000000 0.00000000000000 13.34218638584528

PRIMCOORD
 96 1
Ni 5.129518076682693 2.9501379062371496 10.068880967206368 0.373056527179622 0.4835903089658316 -2.03111081938125
Ni 4.515473483836014 0.5922236254644873 6.427958163315432 -0.22166920171216017 -1.2104162329606896 1.2240122264775695
Ni 3.5144000272309848 2.739831803756814 3.0136126089493547 0.0586337504828087 0.033164402567110625 0.5803910574366649
Ni 5.076280641117666 4.786337169271566 3.308595405175651 -0.18586196220556378 -0.0711784199170387 -0.4736766493965455
Ni 5.03142992485398 4.673818390645004 12.277613743606677 0.7475199620090996 1.078245846741311 -0.5637403362538614
Ni 5.926912762255293 5.618235911969787 5.47443284714938 -1.6130512451283767 2.9686777282115386 -1.5293980897830952
Ni 3.694267808247001 2.692127779730824 7.459255715402626 0.10413610578998195 0.5079170586366543 0.11964397161759395
Ni 5.305921777987287 7.943727318243454 12.988538618382693 2.79221880448743 1.0017442148391458 1.2324739840916774
Ni 2.204166572380699 5.709587340359707 11.841283732755386 0.3591987953609233 -1.3947069940243915 3.2614050222127893
Ni 8.06190713239842 7.36784229821787 10.012896881070152 0.6707838454986254 1.2932278662412824 -0.06736264571537431
Ni 8.054222345038607 0.05644626729771285 7.453559127477184 0.25994367181232647 0.7215309941445057 0.08431701418152575
Ni 8.40870709150806 2.5479400197424638 1.8697871622363587 0.6506852749765375 -0.013498291596750946 -0.05098240458513801
Ni 1.2363391650060902 1.2647446186397584 3.039269588811986 0.025288342253143546 0.5181366794821334 0.23152166902620772
Ni 1.5877609357307074 6.84654388164492 0.9721930594109259 0.8990114171545937 0.02145277055713725 -1.2461342551875894
Ni 7.553289070769125 4.0917344911358215 4.3144629657813045 0.3853996221260072 -0.35764147817613245 -0.16113566310347732
Ni 7.652963406465701 4.124716176388264 13.258291063510818 0.002459260173769958 -0.5530070089967573 -0.5217164264135918
Ni 4.398715765562579 0.8273179530798258 10.993935194544221 -0.9487774328341273 -1.6876140081366162 -0.857401454923291
Ni 0.3731834841117459 0.22323623580318339 0.834949867644045 -0.03505082095654609 0.29110235680331803 0.26523037413256256
Ni 3.3194088034748357 4.5650918677025265 10.024224421726506 1.4411794265543179 0.033646484409851726 -1.123098227169311
Ni 9.070091068411106 5.254562238265821 1.838206606067194 -0.7550234694749965 -1.4892929942320932 -0.6313066133396096
Ni 6.2298100690222675 2.4249196099907464 7.536414444574875 0.5833167157238922 0.15908546544266794 0.9778213854749611
Ni 3.24970787328131 4.508381236426837 1.142750670402531 -0.12204795307339625 -0.030903374447075815 -0.9394592407569949
Ni 0.43891804303569254 0.10229974347786396 5.252992463196592 0.8253025175062173 1.963571795989012 0.15130839260041037
Ni 6.681006451435106 0.8849611510778277 0.8467031254649334 -0.2258395310397659 -0.2301294166643714 -0.19962507742792718
P 9.271153547661488 5.856418740127837 13.011473560872084 -0.8104916777456299 -0.19205112173541117 -0.4669604137186345
P 3.874564041227325 6.327032200923124 -0.09838533340395603 -0.3024049263003308 -1.296986047732134 0.6445028003149094
P 2.401181547968259 8.66088297850041 1.7578062275649917 0.3877028163378871 1.4330346859599967 -0.2832273249306154
P 6.638480314977769 8.074086107383843 6.1852911751309385 -1.3707209155224394 0.1056707972669535 0.3293572865194586
P 4.407184528857084 1.1062994358391207 13.226803490533905 1.4204195682991474 0.43604186976290715 -0.06773622700470915
P 3.978030632607984 6.339621395874375 8.864014789578404 -0.060780878732798554 0.4436111974697327 -0.07766145653822108
P 4.658312075936767 1.2746445938150355 4.442988527474412 -0.16096674162578084 1.0130069322371587 -2.06554971778541
P 9.294125865747764 5.8969393567522435 3.945778227294788 0.9948238335702286 -1.2205314670178207 0.7247073349899583
Ni 2.6116699704334057 1.675511544420595 5.351044151028343 0.10365608082976986 -0.31643749313399694 -1.0836014546262691
Ni 1.7735632322523458 6.926053627021318 5.272818849944945 0.6550618067776783 -0.9040206974437269 -0.46651047066540946
Ni 7.1695419667373885 0.7021097035103675 9.712951334857282 -2.6333161444795294 -0.7948735115923988 0.3208405072976991
Ni 8.086347126362433 2.7538066305926336 10.766970515051636 1.2194809142661192 0.8490309714714087 -0.779374130405219
Ni 3.4594852478056906 4.511799736142057 5.215113663152106 -0.971329092882398 1.3148367027603096 -0.12265884718451779
Ni 1.9674240721026626 6.863435828237727 9.968454561572445 0.3130989156790673 0.9442602616900642 -2.59657070942938
Ni 1.4486507873193544 0.9379998578594092 12.184791904539251 0.08193540132322663 1.0270284433272312 -0.7023616203049065
Ni 4.143057566860325 6.711399192903222 2.0580188725556128 -0.5643090642731378 1.0961762059674864 0.7161584169786828
Ni 5.590842334251824 8.076611239173488 8.187633170724745 1.21574381582119 0.1616776516498764 0.5086169129171563
Ni 6.709393673070293 1.1192076907637916 5.535753439241034 0.25398796844952387 -0.4918921439633076 -1.0096156471674225
Ni 8.30163968042737 7.4242885655155835 5.032925860329361 -0.5230695980073766 -0.2974599235902297 1.0157816667688184
Ni 5.083719296497986 4.704502844088819 7.841496856359819 -0.061669709095655084 -0.19982022415786876 -0.15028355088032183
Ni 0.7766886048975313 7.644576687164362 7.300057551064715 0.4775834406501195 0.15314467447820077 0.9809077377097688
Ni 6.149106127745354 2.0070148568045303 11.860122856785983 0.7410500380140398 0.12188957311866104 2.260802377177255
Ni 0.9460310531903661 7.938914070644425 3.0737864083365434 -1.4031294137601318 -0.9007006319315585 0.6867293130842883
Ni 7.753148238119749 6.725328439742839 7.536133671798265 -1.3433263255595704 -1.1855968599241646 0.33172655808258356
Ni 2.0890770819682922 5.501997805653066 2.9486766115588834 0.4181071396613573 -0.3159728947927526 1.657536214914629
Ni 1.3198599500483454 1.5434662954206966 7.443205175539726 0.21579654498146708 -1.4750120588330466 0.018653610545445294
Ni 1.0861804255151462 3.4427938531961764 4.322921701476645 -0.7917473072585912 0.42530237185821596 -0.32023886915795813
Ni 0.7448117787530476 7.802046458046256 11.827514927502405 -0.44588816642936757 -0.47384145710918396 0.5521690864764941
Ni 2.3489924523159003 5.407638097513753 7.558828863507631 -0.10537100663834756 -0.3203849078175192 -0.07301675867735812
Ni 6.075558245872299 2.2327452299999386 2.9257143210717693 0.1693858189274115 -0.827948953990129 1.22613672901974
Ni 4.075918232453404 7.017505331402883 6.7914394894354215 -0.35279931959248273 -0.06196744284173198 -1.7329343293399704
Ni 7.962132520710199 7.48544780442068 0.6184412392804145 0.34325127089273144 0.061580748926274596 1.1327650608351136
P 0.41806975277247077 5.907805627847024 8.620906587030666 -0.37841162084394825 0.1264118864690468 -0.3694901499846024
P 8.50036846387216 1.9288633953149807 8.600253379151193 -0.29628441522488974 1.0173814071557703 -0.8814420408122627
P 1.6574800979227147 3.5641278030883856 10.750693898407569 -0.509796020826922 -0.32894385313112384 0.2602977127176356
P 3.9045739107273367 6.669374436404118 4.537477682802942 -0.12472524279524326 -2.401821986257147 -0.795943604728126
P 6.73436239499026 4.484834610388402 10.859032079782397 -0.3987937840447261 -0.2894650783102112 0.7582743723121264
P 5.954032859996039 8.168108523551256 10.897870794546916 1.8153335576734928 -0.3426151799706293 -0.4360812076412748
P 2.381573033601757 8.785425760125305 6.37037330771257 -0.35205215701381304 0.7319791860610232 -0.7393207140277589
P 6.75300461343726 4.040593735396131 2.0113750392413032 0.6699657204727043 1.1893339583690936 0.3101393188301111
Ni 2.588524448361556 1.7632530371112423 0.8759053174322289 0.08015311261182324 -0.5085238389827177 -0.05844991660677676
Ni 0.7088054049525784 3.655378955486658 8.346845009061514 1.1518318476585776 0.674082313744239 1.1525191035335893
Ni 0.40309945881957926 0.6362940121931796 9.955579124245041 -0.6229572129336497 -0.395956314595931 0.05206226791287808
Ni 2.6008401633355884 1.9402310463679924 9.548082107391801 0.04308706099746128 0.32136835477671105 0.5967435306527593
Ni 5.209611246010488 3.2028334051862126 0.7520936389464283 -0.19493487104110943 -1.130898697050336 -0.07671477635423563
Ni 4.163942321120509 6.850664313301666 11.085569218910598 1.1023766783512434 -0.2676788356730551 -1.2472884233966908
Ni 6.981415090409401 6.244313623814041 12.194491327731235 0.724814549991784 0.26843731110563446 -1.7955905707186108
Ni 7.598340339016105 4.366180764272925 8.880465521807967 -0.06322959738360724 0.017997979239317393 -0.7941070657400194
Ni 3.1677459241091945 8.298357920700758 12.605991179851015 -3.017634617726216 1.5840407168286397 0.40523079791932143
Ni 9.31208438425172 5.445870598328773 10.763328673355023 -1.5270293324406023 -1.6758242145905395 -0.06312881013968483
Ni 8.422162306387166 2.742201963559367 6.466878010473193 0.22483577236559985 -0.09097951380336589 -0.22582384731048205
Ni 3.6541665275876603 2.9951618264864073 11.968514822556331 -2.271018141367992 -1.3833699717450176 0.5383252386148665
Ni 0.8854506802370471 3.264849548019924 12.737625297285163 0.2264069735074617 0.8627066691862884 0.6324157872433883
Ni 3.0439233064243054 8.60340660328851 8.41339636151742 0.8022515492240249 0.3503079206291967 0.36912968132139007
Ni 5.422497176275908 8.293043293143496 4.291674790879686 1.5472261191034515 -0.49463396837450296 0.15421271073139894
Ni 3.082885087178573 8.588547524526355 3.991635349874636 -0.3822677613652449 1.132519777593527 0.037045739899387815
Ni 5.265164145382624 3.205805220938644 5.432724415823923 0.7564306342351682 -0.8094668360255414 -0.31937549271639837
Ni 6.124657017782099 6.2077402348608075 9.615740142155513 -1.138493992899091 -0.21285211764116246 0.2631300399601081
Ni 7.996034921885941 9.254288949066401 2.95949730265746 0.27947428564608645 0.7518720683302083 0.7812505214923254
Ni 4.538773977894953 0.17762798000260405 2.029026348570851 -0.05092095521958327 0.38135707662551743 -0.17935989942098787
Ni 6.059377347220258 5.861952151666872 0.9607269555661159 -0.024105120578319778 -0.3083331188593077 0.8419334411946789
Ni 7.775345696270577 9.004328249889515 12.148141029592473 -0.690919697016552 -0.7428009592668755 -1.132647818530959
Ni 0.052408791234057006 5.096390535442401 6.239112946247286 0.6508778506033177 0.1187075758462536 -0.4550163539828809
Ni 7.323793789887356 6.325591873043112 3.22799538629008 -1.4801758624221732 -0.4478972264395964 -0.8170428486005864
P 8.342761953001656 1.9681715840403906 4.383695333613865 0.7870771554764315 -0.5616202045870651 -1.4071889285414863
P 1.4783689448436672 3.3078770644354933 2.030467588050788 0.4066387340104416 0.7730322473475912 -0.06803678896426348
P 5.028184629124332 0.9732514269227579 8.602935306127772 -0.8590323056584948 1.47675783787956 1.0237279181990886
P 8.365396979116033 1.8133728009359877 12.66868646462815 -0.050510350044725906 0.03599570136831865 1.9650748628970995
P 6.458767505948844 8.01419399237319 2.212121193318035 -1.4118739927219812 0.03613942603503453 -1.3898524941455677
P 1.8855715149214345 3.4587559678664435 6.351668188870811 -0.6401494084422201 0.7144486333764277 1.2995085570436715
P 7.02210891101938 4.537999117959504 6.683888018795056 0.9512315508015746 -1.7098969879045327 1.3390585514221518
P 2.274223026544608 9.023599472284115 10.39456371407519 1.0847257980386995 -0.8088001489758199 1.6307545759454107
