# total energy = -381173.47824230534 ev
CRYSTAL
PRIMVEC
9.18115582138061 0.00000000000000 0.00000000000000
0.00000000000000 9.18115582138061 0.00000000000000
0.00000000000000 0.00000000000000 13.43754959004681
PRIMCOORD
 96 1
Ni 6.753309301887996 0.5894109201286573 11.109265506432331 1.0959301513949513 -1.0352526310092365 0.1403467513825841
Ni 7.249284517841636 3.936034928658357 8.914053915718524 0.11472725104226693 1.167750318661047 1.0903737403530962
Ni -0.06519355090508519 5.762120905909783 0.7730285268731312 1.0498873502032757 0.30280524706254297 -0.017574261438337475
Ni 3.345760061771565 1.1893636433146062 9.753833117515654 0.8404954231965719 0.8899487927316931 -0.6141272733468456
Ni 0.31222999114393674 7.30390321352865 3.681351503777093 1.584533083084026 0.13153275263537992 0.0052692188187393125
Ni 3.3819062720455224 7.653438994920535 12.135988647710093 -0.8521168094855841 -0.487723871518231 0.48030546756697284
Ni 1.4889631184631444 6.670027037881119 6.167270620274356 0.9536131636598738 2.2270936720709003 0.4257949952239183
Ni 2.933709790728834 0.845306257571812 11.926524251236575 -1.7015501586017339 0.8549907885992695 2.6210355273399637
Ni 6.9598485821325875 6.177081603332204 0.4082419276285481 -1.846868909277613 -0.09318320632290403 0.9642292486128232
Ni 2.009387752237346 9.131504081482438 0.7432173140817822 -1.1214257245628945 0.0001558088515739252 0.14796210183599678
Ni 2.9619234824158727 7.52660132793178 2.317533965293943 -1.1537856289508386 -0.15564764340571258 -1.6732927064179377
Ni 6.938704380389908 6.893542275147947 10.437092893829064 -1.6775291130967882 -0.285011927634864 -0.008293093246727654
Ni 6.521558567893774 4.44111785113772 1.9923447727779737 0.4936988581547433 1.5947655594453116 0.12906089405611967
Ni 3.0953440380930783 3.7258323672607787 3.8423191992322976 -2.110590302964817 -2.4775036933611783 1.7380497961896648
Ni 7.15346997620612 3.6048247341871784 4.762576740063566 0.6258335060401802 1.6948724894712421 0.7759993003957152
Ni 6.761691697107737 2.3639456258364584 7.033966216447956 0.9716072862444493 -0.09490455988938494 -1.5060031078979224
Ni 7.198659624915396 1.1036942788070367 0.04223882524418868 -0.21838744563709486 -0.6323697644968012 0.7711314307804525
Ni 5.82507609103768 6.299337873590783 5.046014626706835 -0.5534764924340081 0.8248338053999149 -0.883084461511692
Ni 2.5061158229642815 5.8906479055605665 13.579449958167716 -0.5060987744809929 -0.36324905417089703 0.4923274317285134
Ni 8.118051382757375 1.650294387686916 9.346890323428829 -0.8475068215173985 0.48431433161604975 2.46067530894993
Ni 4.476465300859521 5.107504499373537 11.946922025014997 0.5939880793948092 0.29882929313393053 1.1896147228343061
Ni 8.318237303207814 3.353591587644993 0.7650565293163931 1.4998825968224816 0.9092356659857632 0.041390647131644843
Ni 1.0521788137709234 1.2994916067985092 10.54115303146332 -0.8571787973895237 0.9975024088436563 0.8492243184291375
Ni 5.0812004880870525 2.2941137550354114 11.418396857503252 -0.7869424296707802 0.5542537369196648 -0.12466636453284982
P 4.703414290385041 0.04950754626879942 11.320746084713356 0.8169950260817864 -0.8777051994776497 -0.5580898228363035
Ni 7.279215085658019 6.792099685024259 3.064943395101173 0.3569891893041142 1.500265691193513 -0.01227264671976596
P 4.841847757113701 4.438822562194745 4.928705163178154 -0.2653285902733237 -0.06754879358425141 1.7282230399072303
Ni 6.450973842319432 8.396928989328742 1.1928433013521553 1.1174839663063272 0.23451751842973806 0.8786737340385061
P 4.626007966072177 5.9766753351432405 0.6467802900849319 1.151490919379391 0.8119780324831692 -0.5297210418856231
P 8.347185487356604 5.060625518002232 3.0950438142993373 1.6424908905457325 -1.5577311323998333 -0.4604958890402133
P 1.2293016709223579 2.3073438005027147 13.106972074181092 0.3373611306605415 -2.383233681731999 -0.20020023320510683
Ni 4.708418020280725 3.808517856142482 7.1966673141128945 0.43845896384483196 -0.0710866315341808 -0.1872858391362839
Ni 4.5285867221765805 9.000121742386593 3.9088623800358517 0.7110771458010334 -0.9251104282344906 -0.07569404839920511
Ni 0.014292305190111836 6.22129804952966 10.739880984377182 -0.24053287138588256 0.8575351522876778 -0.33014378697649593
Ni 2.1002811943791246 6.482768184757511 8.697386902541952 0.3344190173130821 0.7571945089843863 -0.8786205122030675
Ni 7.712427920754973 2.4799495290143754 2.888616544155162 -1.4077800251582657 -1.0487954026906776 -0.8321421661358701
Ni 6.7640328918295705 4.8678671525712565 6.741645561595378 -0.23242489756676746 0.9551337140694584 0.46929471827876595
Ni 5.7178860974007835 7.672572523549167 12.59396673238616 -1.2102784218312446 0.06701914633302651 -1.09896662422843
Ni 4.120309906156099 6.97482304719655 9.929650414316324 0.6470188818685438 -0.05934748872038167 1.1560741678746993
Ni 6.222078447770271 3.3059781138119355 13.445343570154352 -1.0106649143675432 0.037004088028174974 -1.2010085664935444
Ni 6.176530733985891 7.656422870546401 6.97860292902784 -0.42790381403680505 0.9109019979445925 0.1972475783346861
Ni 3.871831106345483 7.783187088288981 5.959243992794717 -0.6365213247713295 0.048223868003394364 -1.1047701182840846
Ni 0.11548792222353617 2.726344206464771 7.878677535125749 0.6622164155445885 1.1817679730963777 -1.3760402708528239
Ni 0.3486020578498833 5.160048253856103 8.577268923462649 -0.15497864236314599 -0.47073839270382795 -2.670843452001026
Ni 3.894719727684821 1.653590422609027 5.1874181973277045 0.001727781324384121 0.6587210007968204 0.6663803171142911
Ni 8.982117495917905 8.767599791307534 5.905131178790734 0.731461108774024 -0.5311639449797368 -0.6599487025563344
Ni 3.8351982948156143 4.538428921164054 1.9879782150928598 0.6811114526768787 1.0044436160481798 -1.5237586321091308
Ni 1.9109841246741555 8.196770612345619 10.29777160933726 -0.2326501262036961 0.06435651189919885 0.3765871660406998
Ni 8.739542179268618 8.58675856606848 9.84266906264895 0.14849714840386039 -0.1273552242189226 0.4022200361174557
Ni 3.229388912362772 5.951858671091803 4.1479562024164345 0.37395512773449147 1.5585667409272514 0.45031817717626316
Ni 3.3886268780705513 8.899275927388079 7.98494115014526 -0.5040871433676029 -2.112752086502826 0.13423292517536237
Ni 0.8869198461079345 4.207475799054488 12.58281346435446 0.3996396769847892 1.4672833227302213 -0.05484265887149265
Ni 6.390240496888334 1.4018982182782467 4.896360869509339 -0.4802226780451794 -1.3201236621908619 -0.575620375520899
Ni 8.35229020996578 0.27626648586983954 3.5466125341310435 -0.8758084966755691 -0.5250390630289216 -0.3524612195267736
Ni 2.481528687807142 3.2317760128634654 11.144122682435915 1.128178984126328 -0.5739854110206373 0.270857747621669
Ni 4.331549938155902 4.322561586655215 9.788018232916734 0.07553721110636669 -0.13215624515199176 -1.35884164758635
P 2.3503299718267354 8.221936160316387 4.158894631403073 0.28784836864239455 0.0655448757803452 2.1366474050631847
Ni 7.9894233903931005 6.845157584230051 8.367440953220564 0.9860671704235211 0.8440908538573139 -0.8312181116597039
P 6.126080283019317 5.931825389197524 8.619167127827701 -1.7265181414009814 -0.4839471780846182 0.4792181480400651
Ni 0.6401772028537838 3.054331815260015 3.4519456369670154 -0.16108809769499355 1.202925066789967 -0.1337917238728857
P 1.0220003547486984 7.1601722199196045 12.507469227627965 0.31836453495338074 0.24297850471289764 0.2512726264008899
P 2.00190511028325 3.646571449481993 9.026163172618002 0.9261476112497532 0.07030733016599504 -0.06541966305639055
P 5.821798418427112 1.2176783277151362 1.7472308665577576 -0.684313247443628 0.7261268410453043 0.5220272727857912
Ni 0.1945844973140048 3.7964629986139813 10.223005785424396 -0.5252041278518762 -1.6961958362683565 2.022374210839201
Ni 0.21638331546321948 0.1803849217971891 12.603131362077667 0.8148715519808805 1.028605558006364 -0.5171594031705288
Ni 2.211611889269146 2.8314684400529906 1.5529374118817216 -1.8444631280495978 0.48110945152550694 0.13946332033636627
Ni 3.890799374170222 2.9908441230973484 13.43431149337884 -0.4089403855604247 -0.05733560049667546 -0.42242042232473054
Ni 2.1927078895348107 5.597521145231216 10.84841601733466 1.2552375030404381 -0.14768493691521015 0.8973165459506739
Ni 1.4284042149917129 3.0472898687829697 5.823417056189697 0.26955805497363894 -0.7371334765684531 -0.9164794920323699
Ni 4.183595612891785 6.303708103738206 7.772291810734472 0.6151220331599471 -0.7731196648550749 -1.2612759959250344
Ni 1.4621908682322935 5.212509377936722 2.4603753049086916 0.211407671885152 -0.13640036514032639 0.049055105655438094
Ni 7.770315107896782 9.419590387293018 7.746505616633522 -0.6253920476273874 -0.7338231812482975 -0.7301418757419683
Ni 5.534758764374529 8.806316725197624 9.315554120663768 0.4775803553263259 0.16419913252014945 -1.047572328916854
Ni 5.15330928551953 7.125742885774992 2.5541553024251544 -0.8935689059827837 -1.5282300376169229 -0.28465377296449684
Ni 0.09480186015387537 1.3731336572448938 1.3830594047498914 0.6427891600579123 -0.7655919890194621 0.6810731432397754
Ni 3.643321320338742 1.5207207362781359 2.6231305713926845 0.7820581049952854 -0.46681977437571215 -0.34171555097449535
Ni 1.430350620015355 0.9629196173565423 3.6674567426319045 1.0406558043026788 -0.7614681966590757 0.2868009012144867
Ni 2.7721765360780806 4.729608127802262 6.2709552486375415 0.9619036858034402 0.6223941413413281 0.26177326882189755
Ni 8.921430056265667 8.130152146064736 1.3234562595943145 -0.2337726698439135 -0.025870954229490928 0.05554971224084627
Ni 7.988780709489068 7.652750408237643 12.264343959747944 0.6637246246589988 0.03726839743315517 0.8813515379809854
Ni 4.185367575955761 9.180155025917719 0.6515655084732445 1.7022962927391392 0.19363183595896974 0.15588238512433797
Ni 7.929819327121946 4.863377567398799 12.25024813129135 -0.977734996408742 0.2884862593367096 -0.7509498136262551
Ni 5.317082742178626 3.149044618202903 3.3322839613295745 -0.3375408507715154 -2.331895950689971 0.017669906475937313
Ni 8.109292560150985 2.321905113556943 11.868272572210621 1.0760940905056307 1.5229824160647383 -1.0106073216567304
Ni 8.212029693238511 6.639003912527879 5.746823264162647 -0.7213044799559964 -1.173086643272296 -0.038997207198803806
Ni 0.6752069845858789 5.151023177732328 4.7920317240109656 0.3690060112593322 -1.0682473407677022 -1.5854368258452178
Ni 2.9405956575577568 2.2565261033052653 7.504306727370883 0.5017782927287682 1.0826902556659097 1.1501668012513289
Ni 8.75998861317263 1.7873323187382486 5.479832499969156 -0.7235081724755347 0.6004986268198174 -0.1721991200064905
P 8.76699383502659 4.250682318117034 6.318322667495912 -0.23153709564517547 -0.7359739090427132 0.9748862141060372
Ni 1.9286853930023726 0.651660074377695 6.267582092006946 -0.17195589364743288 -1.1536457609388648 -2.998298122181133
P 4.928967744233231 0.9348160995387661 7.414759242665264 1.1139404719294428 1.0676223055891936 -1.052359208782536
Ni 5.761762840834678 2.211253824194042 8.962294462490801 -1.8162229022569818 -0.9542330566320598 2.298550028239674
P 0.7627658309513049 7.959630539913295 7.774858861888293 -0.5136025390572059 -0.188341791204624 0.35854702070953737
P 6.424339309425159 3.9709875886819685 11.086193261977554 -0.6733739748233049 -0.3286965130070081 -0.5131487393492389
P 6.93091876029534 8.408653325249455 4.9753334989968865 -0.3623124012892406 -0.16339463434098314 -0.45573651997835707
Ni 1.2687347349626548 0.746933845938246 8.351141647378716 -1.051765026841963 -0.4694037330528045 1.3258654497706457
