# total energy = -340892.13729339634 ev
CRYSTAL
PRIMVEC
9.05749480196638 0.00000000000000 0.00000000000000
0.00000000000000 9.05749480196638 0.00000000000000
0.00000000000000 0.00000000000000 13.25655918828306
PRIMCOORD
 96 1
Ni 6.44569385391693 1.9191020397445897 11.56214597220635 0.8610611631630654 0.36942587240557023 -0.4299144167089306
Ni 4.638950039597259 0.428066271004196 6.0639213455866 -0.7121973754484057 -0.694784579288597 -0.3023427056038277
Ni 2.621945536441308 1.5514220878784772 4.6901439070639395 -0.00486504140178517 -0.37216126905886227 0.8148797795109965
Ni 3.47069622002799 4.443924057344188 4.914074167348127 -0.8987789894288134 0.7679124096225226 0.06511087356672013
Ni 4.696682512701526 4.203583427626317 2.647639838245855 1.171865626381001 0.7756424312769287 -0.23651963646143137
Ni 7.185093400417354 5.812955368488963 2.4836167556144657 -0.0019491533065708366 -0.38925293443382636 1.257732244437834
Ni 5.2024802057610735 4.7862611382115965 11.31004599673522 -1.0120455967651536 -0.7500656112490889 0.5443151376497142
Ni 5.669258210378015 8.174805878626204 12.616108696918563 -1.1421626999999297 -1.6262500032068379 -0.9415824577475849
Ni 1.8609529218705085 6.501696345476968 0.2739068004234102 0.028892000444001854 0.9414906693647269 0.33750305555504456
Ni 2.5388430198533496 1.4343720800456505 0.6000979907110154 -0.40140576774627645 0.9676030501810625 -2.197884397496795
Ni 0.5307510917734257 0.0023649119434458765 4.983379401808734 -0.2989074546700336 -0.8095833069987476 -0.49794529213592303
Ni 8.386081006902032 2.2030273353830343 1.48031984641067 1.0403729829549373 0.5596052310395653 -0.07093416511671655
Ni 6.861876691486423 0.48889459589808265 4.781150899534874 -0.023966795228242598 1.281586168237296 0.7423885543198053
Ni 0.7990721350328258 7.509179628867898 2.7965903434544623 0.24832511373679167 0.17556777936840734 -0.8430158756255803
Ni 7.37631523477212 3.661456122137962 3.7524549628634003 0.9919315996240983 -0.16549753961659885 0.8565612184101828
Ni 7.666028269712984 3.8955108503286353 12.862070408030927 -0.2777184792972443 -0.4972297541261372 -1.0746329325790718
Ni 8.117680257686668 8.865910861808155 7.038026854167907 -0.4645983412443611 0.3273659671210427 0.34987468974652003
Ni 6.9109501993745495 0.5147428751175612 0.6216928702803899 0.4720018327972839 1.3364152002620338 0.16624315953337176
Ni 2.0614134011211562 6.451119293419512 9.243732490821246 -0.2195056184019381 0.3787371225041671 -0.6354586878347701
Ni 0.2581639683709273 4.778227140150178 1.2337512831335742 -1.2100135982056321 0.5604974038365316 1.6200135353788228
Ni 6.385316592273843 1.9212396085636367 6.820300977955955 0.8262479121386221 0.9586250150521683 0.9419213291442423
Ni 3.344416624794277 4.5019463702883264 0.567608756160497 -0.4970646893031827 -0.5364159374072955 -0.4574874412311927
Ni 5.847754264263453 5.520506970059318 4.530230209912219 0.5509902356770446 -0.0654857404076356 1.5396043408921356
Ni 5.529428602630342 2.991808344601447 9.194815677596551 1.0745961658038654 -0.640521189959342 -0.005443025392442238
P 0.24601515033284252 5.595303763735979 12.497912915968746 -0.47366302254979076 0.6225985440426504 -1.32182727514553
P 3.9989836731625137 6.2244192511655605 12.56574721324201 -0.1344046748665363 0.275674452284022 0.7712998380375169
P 2.311246285594797 8.444284469746089 1.3646040075907484 1.0154679921831415 -0.6249868417691689 0.485566458855596
P 6.252805440482907 7.790894895727328 6.0528521809520335 -0.06627995417415682 0.25771658225402067 -0.3520642411986711
P 4.639547834266993 1.1692773165038124 12.597894074481681 -0.12317898135404592 -0.8027524001198432 0.0022098631671252267
P 4.26166008554043 6.241166559413095 8.254501871346182 -1.1016639685549352 -0.0997343771778605 -0.3140944468231171
P 4.6203912323505305 1.0572813908787329 3.8534695815553746 1.564360721901209 -0.8697075259841538 0.43915470436027587
P 0.1285213252452136 5.662401686666071 3.501348594593327 0.007188547328639234 -1.0305791367929669 -0.22173013685708265
Ni 1.3134364068595556 0.8448641124839147 2.6779706717388354 -0.34455713418834855 0.8408147542092036 0.10212190357343058
Ni 1.998989145608981 6.5268308940907644 4.6770467692997775 0.3454079122244181 0.35640117801112814 0.5095216841196127
Ni 6.26083038104933 5.680842746477851 9.166791788079042 -1.8865739411767186 -0.005066872999946113 0.024677705252338145
Ni 8.771721971345139 2.4750057951218043 10.314491434253972 -0.24903268132677753 1.0935991892689294 0.838452424624614
Ni 2.2041323497725416 5.1766210575475995 6.990396205232637 0.645593462275927 0.03371538997457419 -0.04012000794933736
Ni 0.6400035021642282 0.41330255416077666 9.294690863418033 0.03896763951244902 -1.2013957746296342 -0.1988465473906898
Ni 1.7037782112055668 1.207028955646985 11.396677313373605 0.07899534485829621 0.5173473508116188 0.1478867685133711
Ni 3.8913353451354964 6.797206177215249 1.52079235705063 0.9002918265289142 1.0516357003529502 -0.33355435531994165
Ni 5.708486221205529 8.236025487303918 8.198399747341188 -0.16400912799653042 -1.2186435059664884 -0.2363738549121865
Ni 5.14415899548207 3.000802437132438 4.863301473398757 1.127688674753471 -1.3152956446745991 0.09023415099690912
Ni 1.1812784973734631 7.393397670334506 6.960091638475145 -1.7756228693474323 -0.401910732407153 0.7763037190100114
Ni 5.110664378987 4.6279089531971795 7.078618017992313 0.6351100462460998 -0.515238531998732 -0.38293419130465023
Ni 7.928740912070885 7.163391642407028 9.11513055387057 2.2150421402230047 1.7560400621194983 0.4302864553363686
Ni 4.522108354149339 0.3890257503230977 10.447746206384076 0.5221272886987653 -0.5357219966640645 -0.6894125163434062
Ni 7.84722345710722 7.103449140523746 4.771433113153707 1.2954600980059108 0.22864743280220623 -1.3275430945833846
Ni 7.5419496457632915 6.2221095899415895 6.897679157706465 -0.4655105686459854 -0.6776633462272781 0.2596821906208237
Ni 2.2584229747783424 4.955889904495987 2.7205508614643557 0.5300509144212162 2.029257568222596 0.4451330334308979
Ni 2.4732395835975916 5.166132478342274 11.43107858511777 -0.19632738051326187 0.6352249745574092 0.2294377899139855
Ni 0.873674192567073 3.209115764544585 3.5033376204944404 -0.9911486987114866 -0.1944345343659232 1.558717921793135
Ni 3.5487355969132053 2.194051357842035 2.4773199850932723 -0.46508736506563775 1.3619997335993574 0.1078580347262594
Ni 1.1155482561877612 3.5008486208695504 8.327267068895248 -0.37966529074539124 -0.3858721908870516 0.2250070078361415
Ni 3.4569560001191144 2.8544242605026837 6.974898831294545 0.37903125670581816 -0.004166729783179921 -1.023821249243843
Ni 4.105780596659911 6.724873022177491 6.104950892168811 0.05317452714045035 1.1322109881038565 -0.195709801533921
Ni 0.8319082716416896 7.619753527778611 11.386469516513156 0.14772710300705524 -0.6292409890598325 -0.29207783334270987
P 9.265455081070066 5.672518908576562 8.148741125276322 1.2273477186087056 0.07502941823201272 -0.6647795482860744
P 8.416695339988387 1.9005160600128739 8.22361400191095 0.16354401543465383 -0.7325833953039255 -1.4929259629989902
P 2.066847898118734 3.396334186111136 10.423844382839231 -1.3115847714819153 -1.8092297587686001 -0.7967481029072923
P 4.105662849224963 6.200108934596396 3.5565893508242046 -1.405668892352534 -0.3207440909291508 0.9169335488506531
P 6.9830025720674325 4.09988416741754 10.501461680457632 1.738642178358025 -1.2095597984976652 -0.12079351184100487
P 6.2719710998943645 7.751793689829756 10.420040234940926 0.2726006984547047 0.3242096808802481 0.41146983685049787
P 2.481989123763691 8.5894127120664 5.909721116278331 1.1855212694912227 0.18564778931222864 -1.4301478513305046
P 6.7926049697573 3.84522363811105 1.599006543589267 -0.725542429296744 -0.013455097063641343 -0.22927272509103092
Ni 5.111588243476588 3.083760033800461 0.12471717734690922 0.9696918143892913 -0.282300699351288 1.0420814810056116
Ni 1.4346528623905255 1.1063277262818714 6.992808216150062 -0.108884933328877 0.7408597763801048 0.29765789853364866
Ni 7.181542862378937 0.581206773397936 9.508969457034521 -0.4458506283232128 0.35242728096504466 0.1777267346929391
Ni 2.796809534833365 1.7421185875234773 8.86008779827525 0.3061942181394339 -0.11899373962810476 2.4042449938763433
Ni 6.188017178776786 1.9465553070773525 2.5397315601124535 -0.47470354799916303 -0.44043794194807373 0.391165578075507
Ni 4.073146442189457 6.6630375038400524 10.413756144912726 1.156133303247409 2.1529183743090665 -0.14754918266829428
Ni 8.077637072309516 6.86904117002823 0.6439688734734608 1.7309946891150965 0.9917271969227758 -1.4992668176153534
Ni 7.705183820580532 4.083109686685016 8.093474102309958 0.20610734271816117 -1.4051492724036383 0.30001945678728975
Ni 3.2347213028981723 8.427346954103639 12.401179775161363 -0.6137878877295558 -0.45366806748510263 0.3462206379337005
Ni 0.2780189031515773 5.143479683357372 10.270664933217008 -0.6796711206859263 -0.896046935209631 0.49632215471020324
Ni 8.639111187109247 2.2475177508032034 5.853658845251321 0.00314420205593652 0.9594868488318314 -0.29448232901914445
Ni 3.9863212951581577 2.7163518067842274 11.233435892560367 -0.7480246695596601 0.22638177669648107 -0.18323455188504573
Ni 1.066520035774615 3.4953597789019963 12.560325396737428 0.2638586905960165 -0.9681725495312876 -0.31105360311426433
Ni 3.1977486083246522 8.531363226637275 8.107194395729842 0.46078385259427734 -0.7175810083578222 -0.2774202313305351
Ni 5.69780743460529 7.89388767132642 3.6847664912595715 -1.545115757628668 -0.516414297474388 -0.6533491949619458
Ni 3.205519939031188 8.385782109567165 3.4216507903743514 -0.009589186350331872 -0.241741546982003 0.730083254589891
Ni 3.6308961340215835 4.227368409485715 9.102576865806165 -1.004248469318238 1.185777608476403 0.11646223145550265
Ni 7.282262206734043 6.097179561462275 11.524484002263636 0.49039241948932966 0.3565065932407409 0.2592466457453019
Ni 0.5934977941074574 -0.06816308434161734 0.3398064167655364 -1.6380462245108174 -0.02363075204506253 -0.5066551612050951
Ni 4.561879814676612 0.36656044548461125 1.36130255066472 0.3383114103889528 -1.324658573946738 0.4248480579296167
Ni 5.769017460263548 5.461995552385399 0.3599557201335552 0.5251002552841602 0.8925738890593661 0.515784377199873
Ni 7.842033512474533 8.779312152151755 11.90889767613479 0.29114940799116956 -0.3313712316256938 -1.4872991037305159
Ni 9.308297032400969 4.891925874834499 5.5066553429619916 -1.0457879833229216 -0.14284277833156045 0.39444784837120456
Ni 7.766421544248236 8.660885405079542 2.631095417886229 0.9552470997188708 0.11153419802626598 0.30097899248708165
P 8.49301379282437 1.4270807965739005 3.6755269406141897 -0.3339099388871475 0.7308360735955155 -0.14399437543750038
P 1.6833263875046827 3.296094888990816 1.5646849778010654 1.3355345974292936 -2.3996031242289573 -1.4625283245437393
P 4.898075913936758 1.1700924910534491 8.22724605740433 -1.0201903373594752 0.5101891425002826 0.2298669070316041
P 8.715574559865166 1.6676750361516592 12.476503715046789 -0.44138950722806564 -0.07589202334262414 0.19480760143462578
P 6.301109061296377 7.557899894451181 1.4644257541917545 -1.9598331548821857 0.6138197694087557 -0.04012000794933736
P 1.718324548169083 3.2842929730110764 5.715313760933486 0.02214311175594251 -0.25592838000534635 0.569567741568916
P 6.986217982791 4.091768651901156 6.01256534895949 -0.2275724545704726 -0.2801108907888208 -1.0713339501128258
P 2.485286051942222 8.490387119275539 10.195050247742211 -0.689106040846581 0.016491827007436115 0.23658957046741833
