# total energy = -340891.0009415162 ev
CRYSTAL
PRIMVEC
9.05741729723198 0.00000000000000 0.00000000000000

0.00000000000000 9.05741729723198 0.00000000000000

0.00000000000000 0.00000000000000 13.25644575227074

PRIMCOORD
 96 1
Ni 6.481804762869279 2.0013087912051115 11.345621499630658 0.7280243151783333 0.5336910822769647 0.8246795392102378
Ni 4.592907576619166 0.4493366561515191 6.125485064207596 -0.47054710262862837 0.08487468645720866 -0.5510550274767091
Ni 2.9886306686790913 1.9742271137564413 4.732630917419891 -0.981914324597412 -0.5930637678083269 0.7454414822135162
Ni 3.471735187661424 4.689015830601721 5.191502316665127 1.0427389120839528 -1.5739324247500444 -0.7475888675738223
Ni 5.082723641751821 4.6011045391914225 2.58578935801754 -0.5895626966336039 1.085400455508221 0.5848982012783991
Ni 7.318221012258878 6.171144410089366 2.719109104852977 0.24473328262047528 -0.5172236807495608 -0.37539211729133415
Ni 5.39037693201904 4.501998280113379 11.859321973937943 -0.6450722996651341 -1.4379609196170204 -1.6720570342386236
Ni 5.854315956191544 7.752170928059294 12.235248263627431 -1.352174777089136 0.18058091631228254 1.1237572009095487
Ni 1.9928763357854755 6.060372197648817 0.30555559244209723 0.30013592776049597 0.8860031778203837 0.5475495854266118
Ni 2.633235732314234 1.4794475839943977 0.11427833864134367 0.4188440178273819 -0.245636511161035 0.57896949449879
Ni 0.8350703171926527 0.120770695295259 4.521296013214428 -0.28770850063042064 -1.1145670497698483 1.155523694687868
Ni 8.63343045004032 2.3259628535697057 1.4315764168306997 -0.3269129387440241 0.6859973200142702 -0.43364997249196285
Ni 6.807799322980497 0.787820488849349 4.763571054598706 -2.208254942097842 -1.918695761411928 1.225315518670025
Ni 0.8475287945607617 7.379150257809783 2.437303871810848 -1.4227153063118594 -1.04686064756181 1.0033069313405751
Ni 7.804287306667872 3.811016978815183 3.9372438622358863 -1.1750867044214601 -0.13600492947412063 -1.1816679571834037
Ni 7.471970669346229 4.010950406240584 12.828448405984954 1.5589390366650053 -0.7589400309205833 0.09737616135832908
Ni 7.707608435401281 9.06185534134452 7.002969454696781 -0.21980669458212468 -0.6570600681546297 -0.08620626078443863
Ni 6.955761290472628 0.7614932942540146 0.5248809501074987 -0.877611868432895 -0.5021315623031288 -1.2512774899514256
Ni 1.8682100453495232 6.364121741099856 9.581507444498467 -0.23116865656216318 0.09131298588338467 -1.3244086627194611
Ni 9.214925692141351 4.744175501391822 1.3921123443184584 -0.5500011322908979 0.5990204996123941 0.977775105618058
Ni 6.072980122400841 2.2672073881484605 7.057188059839084 0.15310610793078147 -0.71960806609018 -0.09168785272430016
Ni 3.5981948467043448 3.8549635671031255 0.45260185505461126 -1.3388760030977007 1.7322370461626295 -1.0582418928155581
Ni 5.88604408866736 5.518412581655963 4.693537293271413 0.35745533030725535 1.1490758821799953 0.801912163606735
Ni 5.354201607694629 3.290614015774782 9.134128096205362 0.7988942027160176 -1.0383523529804828 -0.8936606943656417
P 9.192916168328553 5.6555056484998 12.487147716535775 -0.007100615600523255 -1.214236120927412 0.4895866357585826
P 4.173893341792951 5.931793102979479 12.720805531189395 -2.2410390785073986 1.2395589159629168 -1.1620815504110438
P 2.2625156460352795 8.210548698066754 1.2807196987992375 2.4863688570612923 1.324568585336093 -1.4972904106152731
P 6.156607255472269 7.64558324236834 5.896533483534687 1.0934665203458072 0.6453823747063853 -0.4696690708990492
P 4.799742755956234 1.3306976212052632 12.724185759291014 -0.2519493407529403 -1.2577774958534726 -0.885617512346191
P 3.782631033288717 6.221059836316663 8.291336330843816 0.49612597953899723 -0.8630522254511652 -0.8909705491279882
P 4.603296434155495 1.0497637116984389 3.7936367009368377 2.1880990359752572 -0.6056909696540342 -0.5417630606518218
P 0.25150545525984314 5.5518706808183005 3.5198644912155186 -0.5103644917358823 -0.33016255602957334 0.09372750886214826
Ni 1.1871194436412764 1.0367663180065185 2.534632159891174 1.435029347792522 0.422753123073801 -1.223641987622344
Ni 1.8195626575311927 6.2637655584472585 4.726638530195797 0.3508846190682731 2.371367526422032 -0.4350016014238508
Ni 6.201821882169179 5.698745758245604 9.110385888480879 -1.2273700872062088 0.6827906401515145 0.6182569792445031
Ni 8.917860522589013 2.210027913321218 10.215695116942435 -0.5047592297339628 0.142390007064858 0.014830637254929299
Ni 1.9166309977376808 5.409913780934351 6.880625486032682 2.125910992482287 0.08393571958270706 1.5044496473678735
Ni 0.6841655948499938 8.955992249030118 9.204095738387045 -1.176478185452348 0.3532886005240754 -0.7963899482369253
Ni 1.37577638664407 0.6736934090753607 11.472870059712301 0.02718555927585641 1.7788886845828977 0.36316035111183265
Ni 4.148061587918834 6.886544508177399 1.3943794158453489 -0.6675208584766376 1.0525489561958388 1.122582463875157
Ni 5.4040626894186845 8.212097516409136 7.994484916337561 0.5621714491048447 -1.088421244612416 0.6937211710210891
Ni 5.49412964612423 2.920265283601311 4.760548594476759 -0.8131921073959285 0.5857754616770299 -0.06661676868828528
Ni 0.5320498958267704 7.473800267622025 7.056578495661058 0.7406936831158857 0.4662327915239906 -0.29300317337045667
Ni 5.069400181040452 4.696089673440321 7.081619537013011 0.06971134845320898 0.2514634022554572 -0.1877185557983283
Ni 8.326483638315242 7.076541948926816 9.302538088783821 -0.3682264527808303 0.482599405807472 0.5003071074998803
Ni 4.6171723973164855 0.2664384190088808 10.500748339794962 -0.270723793146966 -0.18498753002041043 -0.09340329275351011
Ni 8.204009242843362 7.332513616611387 4.852548404014258 -0.45858787338422313 -0.17730275978164306 -0.023387011465372625
Ni 7.408242681878388 6.28488745537378 7.1903493018734 -0.7810144942221194 -0.4951345621600054 -1.6868552755937207
Ni 2.511042116775769 5.031440545526279 2.628156332744597 -0.19834158272981323 0.4398604721780489 -0.21002287572248343
Ni 2.5578870785699235 4.905062403238221 11.537667728152277 0.061600289310300364 0.340695080129781 -0.15250858355609864
Ni 1.0565477171864168 3.2834677135985273 3.628209315844614 0.12011268372389639 0.025794592465600737 0.4220584109996215
Ni 3.7874224069911744 2.7387637001919787 2.6135747967831873 -0.14524675978736276 -0.9621104024976076 -0.046758596311777534
Ni 1.1620122831437132 3.44257936167237 8.237249963992733 -0.5682976166072405 -0.03215755856915107 -0.7042698930712129
Ni 3.4778127146072624 2.708674960230613 7.232677329706467 0.5169614282271097 0.5757759272621568 -0.6380063939572883
Ni 4.046247161095923 7.040448141357267 5.855703552507643 -0.13001605888053738 -0.29882337959665956 0.4633873516553955
Ni 0.7029606412960592 7.440595776141482 11.490594519444508 0.1500125566071223 -0.4279698913880501 -0.11603877076483887
P 0.17679716091206157 5.500732503268069 8.072393196184544 0.21107857068050745 0.23522097225466584 0.6479627338390518
P 8.632687741829354 1.6654235315039452 8.039781965531056 -0.5036783379649584 -0.056815980547779574 1.3577574133832357
P 1.94527055094594 2.9660505275822566 10.680400398610644 -0.1564444282753951 0.5947725229693176 0.16628172608079106
P 3.978733173235593 6.404255156743688 3.6675284696815442 -0.6281438993409117 -1.5250958628633153 0.16596856571574642
P 6.9155373006567284 4.005787678432643 10.332697020937896 1.5897233690357138 0.03785332340234771 0.904284749738391
P 6.248639671711714 7.770557484989327 10.155378152794716 0.861132382720633 -0.29326696855480455 -1.1562639152880023
P 2.2583401767028923 8.319491312231504 5.8361630806254485 -0.09855578348872704 0.020692752462661137 0.8263278734469383
P 6.92509287581002 4.073093345697214 1.7980911443004843 2.121103800901631 -0.20350075833324954 -0.2590563841113667
Ni 5.488124578516046 2.847724429191144 0.7765331355260939 0.99866968967888 -0.4439801507733773 -0.6678196206639788
Ni 1.227089825775384 1.1149408859193857 6.759368407433411 1.5871828620020472 -0.2442784544712438 0.32437577414446717
Ni 6.773254333753329 0.8495304837634895 9.299223979827811 0.32396722585213883 0.03313612043233648 -1.1209094470481082
Ni 2.375153686420451 1.6439302804719402 9.022164833402105 1.1671273403650673 -1.2770839094915682 1.243656225960742
Ni 6.514438637065787 1.9171291556840608 2.6378468634142735 -0.3889588002321753 0.0730866926833451 0.8943978296419821
Ni 4.1526174687739115 6.841130618301936 10.388679105210386 0.5386458551790788 -0.4219828205666797 0.2533212813998024
Ni 7.976043109162565 7.504151672682392 13.289321494432919 -0.11700062045747592 -1.5839676974988592 0.8482372719255199
Ni 7.6750923076284625 3.8005194322723708 8.159329003761659 0.5593997998969785 -0.10096953513654225 -0.04543859194877336
Ni 3.3445509352419496 8.127193287511531 12.323125136852344 -0.6149065747150313 0.18527857889826801 1.4306379035930457
Ni 0.18377318364482606 4.691959491193968 10.178816031301047 -0.42830850567439144 -0.06765857968923833 1.0299577011588843
Ni 8.34884640139911 2.217971268211681 5.930933554086542 0.06900506641480374 1.3502423359531133 -0.28322501093777025
Ni 4.138016912236368 2.56499715107735 10.96953670514005 -1.7138845117973707 0.05960819858093605 0.9654209549280793
Ni 1.069354905116992 3.460141693636575 12.840656898638153 -0.398435629374359 -0.5874510496072399 -1.28016666218195
Ni 2.946540850918566 8.282120408835782 8.14482626732995 -0.07838419363685856 0.3005655590987469 -0.9326920972364905
Ni 5.585328779980638 7.894716560061693 3.488499561169699 -0.4220226726656796 0.6717796337529914 1.4057727649202498
Ni 3.0087471922956452 8.586639832749407 3.4030093173788085 0.19401595877126585 -0.6069595519538128 0.6096928917245757
Ni 3.4045653816549564 4.325279012989297 9.399257718427844 -1.060197216769716 0.5484422724442104 -0.8238246474091103
Ni 7.395118484345571 6.038788372444743 11.318631302095778 -0.1981343518150136 -0.26133386729163377 0.12729557462558075
Ni 0.48697656483828794 -0.017812316679115366 0.4458106036328678 0.21468222887136573 0.6570271580341652 -0.11891403543010486
Ni 4.467552922475488 0.38048669925316886 1.5210310921330565 0.39478054912027494 -0.13493200812491601 -0.16155398158781856
Ni 5.955079722618453 5.700557241686987 0.5158996152051236 2.2413604664025595 0.4689692166185471 0.7662003120274224
Ni 7.801497622168143 8.914509278222456 11.308728827863458 0.7604798646038774 0.11837333243528644 -0.36211134102202797
Ni 9.171902960408513 4.7045674159459905 5.64886293872025 -1.0258033126708785 0.20109266311238916 0.48381913714718605
Ni 7.923238366846261 8.800349591746523 2.5663548579166666 0.39691507896477446 -0.11245388162705794 0.4439577821758741
P 8.42818937613167 1.5170902099063288 3.799178028784027 1.0983994388710503 1.550894311983658 -1.5876387185925434
P 1.929737080436084 3.0756815054547335 1.5990987825228822 -1.1614657712039158 -0.30997373978652426 -0.17888835910120804
P 4.6065842766016045 1.2113118050009413 8.469092672238089 -0.09124690853213963 0.25320969552260264 -0.5934180658239522
P 8.625939966010204 1.608696927537048 12.457068939733336 -0.8942649036085437 0.5560259983287392 0.40921497937805
P 6.3224304496964345 7.767858374661667 1.5001791062393013 -0.07778821192407248 0.29116637727203404 -1.5496337001036795
P 1.7965930474944611 3.2821543881035256 5.877961249551911 -0.436333689971713 0.479240259527252 0.7710031327327044
P 6.989563571488829 4.10074564042992 5.997481115530896 -0.7710740951799558 0.11410401563597122 0.44445529063758293
P 2.430141266283621 8.383010979103586 10.279723810661544 0.9077999619805011 -0.6650772820321514 0.43689007669581537
