# total energy = -381162.97572978574 ev
CRYSTAL
PRIMVEC
9.38163766284653 0.00000000000000 0.00000000000000
0.00000000000000 9.38163766284653 0.00000000000000
0.00000000000000 0.00000000000000 13.73097503004887
PRIMCOORD
 96 1
Ni 6.848614307887202 3.7961577471028214 3.213171520449634 -0.4723977826841219 0.12075417396263717 1.7174550027574484
Ni 4.866480651072847 2.043555239048016 11.977007768516561 0.9274755860325574 -0.4081217463138714 2.2486770546686308
Ni 4.330723465091831 5.427192993421902 9.965282549966844 -0.41216840557941925 -1.1734442837220307 0.7749402630035815
Ni 5.233237014943405 7.722645205583377 4.5407783339190315 -0.10459401926300696 0.20681825274225668 1.4373222575917568
Ni 4.865636303676937 5.591090204605966 6.025947876775615 1.0343571157781606 1.6088140671185776 0.6099386891867946
Ni 2.1239464927764793 6.89905937397402 4.787345598636747 0.7558652486500015 1.3298349759413548 0.7899490777075879
Ni 3.4317467926653507 1.493021973638556 5.968470335044631 0.018216008787394437 -0.13290340773066142 -0.37625909327731977
Ni 2.737486837196367 4.929590928098332 5.851523529892086 -1.4556706781919575 -1.0809347064273835 0.17017206227413276
Ni 0.37490619256864505 6.271915654842232 12.182711433763501 1.497826485624401 -1.221238263276858 1.7380611090435747
Ni 4.184604457410559 4.5005404896850045 12.45216801822059 -0.3489606625726829 0.30206914022746684 -0.41594972699872235
Ni 3.239010427092058 1.3547366334637927 13.81363597675734 -0.013127795631209648 0.8651864981853487 -1.2112536412603205
Ni 3.98323698512351 7.637985306686698 6.823031519954871 -1.5362102276089222 0.4969052809071829 -0.9822722221574631
Ni 6.707946031728423 4.029751145000476 9.104954472342532 -2.7435375372316426 -0.6581538154394407 1.001460879270772
Ni 4.030839414977428 5.6747087417143565 1.2574912675491723 -0.37181211324955965 -1.1402166320171523 -0.8246671979150635
Ni 7.736464357963121 1.8844520447451796 4.041876911769531 1.0442993145925368 0.051764534166801164 2.05180434317486
Ni 4.961638602592021 7.464931617075864 2.2447810486053075 2.154036804184226 0.3946141987457397 -0.34108794469282544
Ni 1.2744673410258502 8.400196464251055 12.546430961500096 0.19722161019275714 1.1196390649761168 -2.1565953089400214
Ni 7.95575075831895 9.267519490968603 8.41508324700474 1.373067047157113 0.3075975262448638 -0.2280349960291879
Ni 1.2749458045501998 7.552837562627935 2.7737252892650957 0.17653451415705082 0.13519220376483812 -0.8007790784435563
Ni 2.436964835716165 5.954853826039906 8.509099453211887 -0.6996092543707499 0.8970658633924486 -0.09634257788749213
Ni 8.089410951091667 3.841236516406738 5.798879407920806 0.7024541800187128 -0.563087790271527 -0.5019675259214387
Ni 6.596829914426531 8.300863683940987 9.88100166923455 -0.5972250982748682 -1.7712987880507818 -0.3849918451646273
Ni 9.465697206426656 2.981362510048671 11.363013352830427 0.21921199842091924 1.27692707219873 1.7667003700468218
Ni 7.568542424191881 2.0520831477467176 7.575447309562886 -0.6666963056928131 1.0861794997660907 0.8562804539449705
P 8.139696529337035 2.432114529008542 9.926781246877074 -2.3396691668774867 1.0258390510048205 -2.1009702633765492
Ni 8.599040275988104 4.5171084619203254 8.306759105091992 4.269697579693414 -1.6416971909998435 -1.070726398435814
P 2.072553881278694 8.704048947126239 6.105615806234915 1.698522941739636 0.610812864261632 1.1234640951491621
Ni 3.140109202117679 0.16531196215410204 11.76626522564358 1.5490243486544548 -0.859185029186275 -1.21499536769094
P 4.4671981491842505 2.1382628719560373 4.19706514864666 0.563067735666869 -0.11078266457222212 -0.5687509020945754
P 2.0501974385625163 6.911715203274954 10.587213831174541 -0.4090707404907019 0.6767629459001958 -0.0753045262702703
P 8.883106884885773 4.494207884215672 3.5113678139359883 0.24830068825675947 0.06991549404421508 0.01754649352419559
Ni 1.7185096365354642 0.5806989833740418 1.6004276532173058 -0.7895580129167564 -0.9256292768524381 1.8081501525511763
Ni 2.434028383105941 0.8275908527572949 7.939318819830747 0.3961589175250403 -0.22995278187719106 0.6643265199090559
Ni 7.039577543929082 6.279402201752643 4.014250803139095 0.6973492546919796 -0.2627166065717733 0.06398910125745108
Ni 7.016020251583163 7.92398453295723 6.7090915296955425 -0.7114000763580909 0.3122478805326816 -0.03238792941240228
Ni 5.30779289000235 9.136382958745887 7.9404990298574765 0.21683707043083944 1.6770028082796733 0.2549264211033932
Ni 0.12646260030446205 7.790530736214624 5.8611350177488735 -0.41860721922622746 0.5692386403642713 0.6015085561415705
Ni 8.992506162482647 7.473900462747986 10.43106491459362 1.3226690543205348 0.9011150937611577 -3.181310273642728
Ni 0.27109368024138314 5.654613273691674 5.223125485795483 -0.7361060637452033 -1.910151985606975 -0.13655951642600997
Ni 2.0287603963441083 2.0943098991800015 11.654371370573674 1.2684511735172348 0.5361737394895024 0.8734842194177665
Ni 2.1201000213062176 4.875365062005378 2.6685327380274058 -0.2801543424322465 0.14267051441975429 1.112315277621194
Ni 0.9640008035493622 -0.03742804373318976 4.368702210959909 0.8086870204367235 1.4035747288276668 -0.7572505590333023
Ni 6.385302128475352 4.339148175775477 11.573316835057534 -1.1209228167845469 0.18530249015766795 -1.255498727121625
Ni 0.5435326873335845 1.871486621399079 0.13975544280742147 -0.6368794794416968 0.428419577330959 -0.8423005947261107
Ni 6.082875654535483 1.3617071902989248 5.99357090679752 -0.5943588324706667 -1.4375734543706145 -0.7703310463663442
Ni 5.317587319794917 6.871364779388139 11.59519106159427 0.2664827584824249 -0.30487935598275234 -0.16713790343349927
Ni 4.687216317283203 2.55197433267698 8.21577785869126 0.40601138483908783 -0.3356474904035445 -1.4597505046882862
Ni 2.6010027714662143 2.497101133580495 2.631802688141503 0.44043485662428017 -0.39456714755788824 0.9891686921669804
Ni 8.445256470279507 6.415895649120528 1.7298004375463412 0.9961027002826522 -1.0327149521890473 2.3939042740719674
Ni 7.881570148769299 4.862409020297011 13.174939708921942 -0.24405116895178613 1.0955807384753324 -1.6691002656031446
Ni 6.026951712012976 9.266600090470833 11.810258539461863 -0.764941757029973 0.04231804404192067 0.29865985743560175
Ni 0.6109866626291439 1.4605333621714456 9.751409354582579 1.2478183277582315 -1.6159437361848237 -1.1327403782447651
Ni 4.259441781601475 0.06652050234119113 1.5291365880892174 -0.51454664813803 0.6848408378123239 0.8789262163689443
Ni 8.661118572863028 5.018941645861184 10.63645241864898 -0.9521481490785731 0.1520676393639381 -0.3060494650314535
Ni 1.2506661260988914 2.8830429466136973 5.021225136485237 -0.11167329470729154 0.2749596856051845 -0.38970313459736755
Ni 7.43198330535987 2.2690991917713186 12.302693198722459 -1.1048423662829165 0.05120969010459568 1.5593126179543402
P 7.432480532159683 6.274608184871415 9.275136442643493 -0.057363625521133464 0.10957501741736611 -0.2536606670170922
Ni 2.0090495754684516 4.703662328228003 10.925352447306354 0.03609340328844751 0.3551958448491173 0.9104412562580901
P 1.006433951012758 4.10506693271574 13.063691310528023 0.38688546264291435 0.5495049093807698 -1.1117084972751305
Ni 0.21411993245662614 8.035635403609865 0.6924821351187039 -1.9594341196715543 2.142643731855936 0.5701156436525859
P 3.9434588411383675 0.8756332814208596 9.59973641736376 -0.11125677599516323 0.4398409317940231 0.38730378112725555
P 9.261177503861537 1.3064962522440755 5.726008474998591 -2.1067549883791266 -0.5380665856368411 -2.5898683577085397
P 3.684713272480297 4.383176201653371 7.744352438968477 0.25998378102164255 0.3078690347386956 0.19915739376288927
Ni 7.758529969909596 8.859924858049148 4.782512178877042 -0.5830894302044345 0.6189761167987147 -1.0830029018103218
Ni 6.922569758131276 7.07122180800028 0.319820968459409 -2.4265799099281176 1.056358559749916 1.0164504107010688
Ni 9.295945853297608 6.840095780826233 7.858415328682099 -0.6221185190824382 -0.8116723283172924 0.8575737188350971
Ni 5.368182492085452 6.643043861896062 8.37331338132902 1.1563341064043053 -0.1255024872809 -0.2914432850825045
Ni 5.759199771131854 3.62527121580816 5.692024430476945 0.40924069040966293 -1.18028084702789 0.2212015180471223
Ni 3.651033193021179 9.497219509207335 3.7938817617889544 -0.43000131999578195 0.1396391837925982 0.3895910344995355
Ni 3.0675797608089206 6.644741938325616 12.673855179672124 -0.7945153569220317 -0.5558444784455524 -0.6777170822833489
Ni 4.6921792036436125 2.9751800107830566 1.8565238473797625 1.1942038848668852 0.2847648446210644 -0.6745373990037867
Ni 6.580093072712028 4.999108863695007 1.3952184002788606 -0.8942371356944018 0.8787351834040608 0.09450809578191466
Ni 3.786963742125123 2.970038873305731 10.388759357403385 -0.728275769067507 1.0963474414380279 -1.4747557198478667
Ni 4.576081436705845 8.229666435190223 13.338598626507604 0.3985662414149523 -0.18543567330142255 0.6330989293533419
Ni 7.699022241773333 7.415321516747225 12.108399481285597 -1.0267705616801541 -0.04676965205537107 -0.018331708429652302
Ni 6.052160172599786 1.1561742708587142 2.6794492116927624 -0.6120644772805459 -1.2826896857141201 0.9262705099808628
Ni 1.189066292748315 8.428200652882103 8.849050601753587 0.5889538594050114 0.017184482199086533 0.5297529235648231
Ni 6.130571900766724 0.6439574902756967 0.20083084260875964 0.7835141207155216 0.34903522456436015 0.6364467627796523
Ni 9.148241348839571 4.150849324849583 1.0028632996918276 0.9842604562320855 -0.6548720593643753 2.9951135538055644
Ni 6.085868396972102 1.4396123100283167 9.883528144275871 0.43912205135012766 0.17352580923771407 -0.37874972090965736
Ni 0.4852783459983624 2.080143626204161 7.4153308983849575 0.8324139317400181 1.041971952010941 1.6671624251504837
Ni 3.6898544099576216 8.159022703065665 9.461919220911842 -0.5192183425820864 -1.2041291144003972 0.6291134623430327
Ni 1.5408120362471203 3.5341755134270914 8.935940515939246 0.8635661889731063 0.359413996695523 -0.3760639465473782
Ni 7.217547211711663 2.5476869242332985 1.239134216998293 0.6181037414960904 0.13056370385389127 -0.8799837110991813
Ni 2.790155351425751 3.6279825091128077 0.44125219644801456 -0.9572024236730289 0.34930570461692745 0.25649505114209376
Ni 8.720344851867322 0.30729929657804833 2.674368116696924 -0.024466617682796572 -0.6414678701433275 -1.378402343327097
Ni 7.320088512126192 5.736486826181847 7.069131579113514 -1.4516654136873064 -0.1406941074196738 -1.5319020871518714
Ni 4.404669533698173 4.385230780316754 3.941339529174631 -0.05909577772089177 -0.5809186478053608 -0.5938338132051321
P 5.787081998472383 3.7399429738106114 -0.07380346771281043 0.08004949715442342 -1.1211398178913596 -0.8267757596176342
Ni 1.3464338840706676 6.0940022768860445 0.8292776712215706 1.1928972502403197 -1.0064225941514218 -1.0294614782487561
P 7.251339870823569 8.16536469017273 2.5896481753187572 -1.028345876587074 -1.174804397294351 0.3121676621140495
Ni 8.1264308935835 0.5463696945838455 10.99448761208355 1.0163221126533204 -1.6805563299588864 -1.5574233713514274
P 3.70236951469257 6.324649840535742 3.546875436425367 0.0770932427395769 0.24897585994691315 -0.5682184266298731
P 8.346101941086355 9.310065218084787 12.9643744790021 -0.10554532743268275 0.5739460731422696 1.7862248132329948
P 2.5529031148124823 8.273037746426851 0.6077490594477117 -0.0681692007770697 -1.2393532277100139 -0.14550232744159455
Ni 0.28858480562956684 2.395019533414851 2.6820985861883764 -0.09667373597466576 1.118673358628738 0.07177877250519896
