# total energy = -381175.5508189905 ev
CRYSTAL
PRIMVEC
9.15535060732982 0.00000000000000 0.00000000000000

0.00000000000000 9.15535060732982 0.00000000000000

0.00000000000000 0.00000000000000 13.39978105084873

PRIMCOORD
 96 1
Ni 4.862580573174018 1.1296786914494532 6.734542119469345 0.785496698363189 -0.12758919460659965 0.13850584151910342
Ni 6.832381687538426 5.892557498273812 1.5652417422809655 0.06710810650240699 0.4730714117123788 -0.4456922483684776
Ni 3.1314686002698484 0.7122056975628714 3.759321476504658 -1.3703668746171302 -1.5670598659999269 -0.10345682033477022
Ni 5.636308394659428 6.7006728160318865 9.69240971119995 -0.8374270686838933 0.7797973339855666 0.8860348023892677
Ni 1.7018697835817809 4.944090658188804 11.870625054171974 -1.5538071147550787 -0.3369029600772004 0.8267899006850212
Ni 6.8906280270716245 3.9758116397401 3.1147518458917176 0.39077194218151406 -0.12444062167528891 -0.477202660271933
Ni 6.219504218027044 8.889085388329919 10.604519739131502 -1.2941884303823388 -0.6482337281122513 0.9850873230087551
Ni 1.3905146256369474 7.493077552425772 4.741110130070494 0.021224199486098935 -0.01499595918819998 0.6276492190926803
Ni 4.9909660524689015 7.466801696647671 6.419231850132129 0.27630257278632414 0.20701468502377898 0.5930853650748819
Ni 4.419415834867747 6.268833246226491 13.56553585588026 0.4821278654876923 -1.615290933092173 -0.4803828577721275
Ni 6.717555282253078 6.452608595715629 12.224580057738935 -0.3991221139184223 2.745319311722414 1.465346767829141
Ni 2.829918822651965 0.8008798443011296 7.631764632041743 -1.8791413961580734 -1.3324050506613765 0.8277993157861421
Ni 1.9820967500124873 2.990640999719759 3.2027347636713532 0.24301527148810403 0.057557743809810546 1.4486183993308666
Ni 7.04517034258882 4.612264136648209 5.6679062556514 0.07466020781805206 1.996190867575614 -1.5634410383004171
Ni 0.20317553708279654 4.3480773441977245 9.685214521284966 -0.27257473031277574 2.8607081076080796 1.2215251983896576
Ni 4.248485442053409 4.5822254318370765 2.0886375631448098 0.39162503421042877 -1.5390523250434076 -1.1425643063137225
Ni 3.499120008103025 -0.3426536389772437 13.457533848816862 -2.6589449007912274 0.7998943618457579 0.9548791748564911
Ni 7.593063134639238 0.10179467946146276 12.570535116086765 0.592470100088386 0.13857988929014844 0.16843579630931635
Ni 3.547579278010165 8.3683565210508 9.606369558784815 -0.03132786357900411 0.07258352779468145 0.3035431536698321
Ni 1.273014858021563 3.1245654660340687 6.2661525596160965 -0.3909015257808429 -0.6278808754875123 -0.542123272204718
Ni 8.609343655472815 4.308306501863204 13.383044086523554 -0.6110638039301733 0.8488615357730801 -0.9928106597949418
Ni 5.102075385473445 4.610314047003355 4.318615426464648 -1.4667022534157708 0.04785774291322725 0.2907395741472606
Ni 7.693863543042338 1.106945956293695 9.793082860231861 2.4604413385622523 -0.3846465460100666 0.14042079915362912
Ni 5.679759687872972 8.424909120751611 0.35455193241599653 3.2005066440655203 -2.033587305946201 -0.32892071320267224
P 3.2533629360989917 4.11585188015189 13.255947680571373 1.2176801136119544 1.0656088747035906 -0.8567918463637502
Ni 8.321124068103334 6.155975241286889 3.8896213395776607 0.572523224652814 -0.24277615889410448 -1.1009036933501428
P 4.016232511956239 0.8282094809154885 11.485810110858935 -0.08040302383910022 -0.6712584711421988 -1.118571028722919
Ni 4.86126220270989 0.4274825385284627 1.9899209125030677 -1.1357223436912247 -0.06614651392008608 0.5912310854749624
P 0.5111981474655293 1.9067573711978545 13.560711901730613 -1.0770772803545063 0.42000204269122504 -0.36537432804401593
P 3.110667644058055 8.11968804760515 2.26808700954853 -1.5682970808411376 -0.10265489325876515 -0.20612405488870952
P 5.355175048534633 8.51777184031861 8.344726561551399 0.1195508976831554 0.5612342820025561 -0.25760113972207893
Ni 3.4565110071304526 2.5310424073641182 5.291358593790496 -0.015229672465560867 0.866698563954501 0.729153286576454
Ni 0.3890676035948962 -0.18574832751010803 6.344206499837771 0.5705902692961592 0.3257212324287681 1.6830657266443014
Ni 0.1779369825101512 6.924530289770687 7.638678752698057 -1.3287402002152795 0.005733302939351416 -1.0745840816190073
Ni 3.8892935780317175 5.639906447384443 11.302942972133973 0.9598102936095211 -1.1116879284498404 -0.7103176419271896
Ni 2.2696388414490136 5.618510393393703 2.8735559694795483 -0.787064042850309 0.4845411029148752 -0.03442604288835362
Ni 0.9239030348401824 0.79590757347427 4.166943313312063 -0.0741758119824658 1.060455355527109 0.4043211416208585
Ni 3.7566600161302004 5.715483865310655 8.541609626273118 0.17962523726723256 0.45891363215475806 1.2581500487015427
Ni 0.8464396147222326 7.649853773451629 2.6000801584672297 0.18106299815502366 0.07564853987325036 -1.6033892965585808
Ni 7.652179232464743 5.820706307978849 9.276695460133919 0.8298101755685838 0.810829520701023 -0.15606853299321508
Ni 8.778726794061892 6.99104391075602 0.33292516359403446 0.05776137518018439 -0.05847691318997025 -0.6391520775259573
Ni 4.587636243950268 3.201250681364165 11.225908022416863 -0.7895878377134272 0.24436895730252106 0.8142539730015396
Ni 8.421109650316799 4.584340317789948 7.365899663854629 0.5363974254645343 -0.8539754599608775 1.524456943727736
Ni 0.786598413141457 0.4895686320384337 10.80859799376821 -0.10559366417211492 -0.859166517243514 -0.6229638978018691
Ni 0.5761086665878852 5.425643780912351 5.580821477750453 0.2144289752099791 0.4556038510552347 0.6197129949647392
Ni 3.263690171401326 2.401494198562678 1.2611321286785673 0.7292281056784473 -0.3895318991268259 -0.5610910715564724
Ni 8.45947056868274 7.881081304298922 10.792786703549123 0.17718937413223032 -1.1921629431774565 0.07331089287900923
Ni 1.4952426793810942 4.037656031998314 1.1739640370885662 -0.36495318134619725 0.3342179570458696 -0.6528863963929143
Ni 7.52863693355544 8.28984939098208 8.573420806930468 -0.061306412218965385 -0.5686876529568077 -0.357162738767501
Ni 3.996594285251003 5.212324115536127 6.326251026544387 -1.1035012788739897 -0.9373751045344565 -0.8595791793009002
Ni 1.6309982157844698 4.9734518670669825 7.674228978477279 0.31640149768973896 0.36630455316776916 0.08566170113487828
Ni 3.1080217477793544 2.9927467303221853 7.665156941721001 0.9861659007849145 1.158123079983928 0.8841884932091482
Ni 6.8146386183753735 9.000487692548713 6.335737800675839 0.5717004716412024 -0.5974770663846742 -0.4661967960797326
Ni 6.74924195014437 1.3840967249747702 3.0796584720997178 1.3685434482551462 0.2312365336856211 0.08567764197447825
Ni 4.745968874551831 6.761226303877309 2.2806161066329658 0.5509748090580768 1.8203778049656196 1.8040713544961122
Ni 0.9517078341426543 8.890550244401172 12.89432781761158 0.026691136137941128 -0.07572361608555991 1.543280247081826
P 6.681464890797581 8.223784382168569 2.4653051600965488 -0.06421612966659264 -0.07321524784140938 0.36078028091543024
Ni 4.4822764710253935 2.342945732464783 3.2618682566627046 1.1797645695131036 2.0310673677378244 0.7029300912138668
P 5.689354495139678 2.6740215152688602 1.5812278996935587 0.019148805014308958 1.1386911965115616 0.04268288358050714
Ni 4.907405168954361 1.4442016006483713 9.501959195701122 0.6941325475268949 -0.2898291465178492 -0.9382690771036357
P 4.606880790586355 3.598171744571067 9.126309673718904 0.2560204254985204 0.9680565927787136 -0.4495167643208903
P 1.2315685865555472 8.910545529773776 8.882380009663757 0.13359220626756993 -0.3886320130203758 -1.2357598539318009
P 8.69328906370606 5.772540009285961 11.36974040898311 1.0950994279635398 -0.10191492976894705 0.6130690072856603
Ni 6.754964044172702 2.1366573762305734 11.444578990128385 -0.2615166727264013 1.0837300097843336 0.7706208096926213
Ni 4.603868680289841 7.700784987979008 11.893176513388914 0.2577078405032723 0.9526927087281335 -2.5333138583522627
Ni 2.2248325563695612 7.2788881287572424 11.57580262806132 -0.43233562455591346 1.1903577716479177 0.08867529115022148
Ni 1.4022792509591984 0.9603230189117111 1.8708107187443492 1.5592753369585015 -0.5717727196400346 -0.10611559811385594
Ni 2.483077526381027 4.2796777210206525 9.839794373738988 0.7967946398745116 -1.2886099078532969 -0.38326457806087544
Ni 5.190332963766441 1.5838664716919033 13.153961654285604 0.13324510734079634 -0.080896418535751 -0.2529147899900031
Ni 8.51334065070307 9.252214053043103 1.5170965008941006 -1.8167222104909035 -0.5618788575650904 0.03293865970954973
Ni 2.7340439927884534 7.367127396349347 7.086246737896844 -1.090764805143928 -0.6032738755721094 0.5606696677483376
Ni 5.847064561910959 4.263674168442213 13.214019837671932 -0.6599535876523408 -0.8026333580434757 0.8361744272237147
Ni 5.79544669610018 3.458296300467292 7.204646476461005 -1.3587380321289502 -2.6599298904123154 1.0499254025300628
Ni 7.476863426787091 2.251126722848553 0.5196650155573719 -0.9183088319316249 -0.8640415859476281 -2.1479273488523782
Ni 0.2790724767395501 2.609961528202876 11.13801848921177 -0.7376302136992136 0.7700019451616996 1.0870580457163022
Ni 8.983806644037319 3.4312056184995563 4.521367070821825 -1.2247246791635618 -0.742100076545109 -0.5524444516250678
Ni 5.190635090331136 0.06549463048076791 4.36563547528178 1.207182042294108 -0.7502463598013273 1.0826537460010193
Ni 2.1706786584854254 6.571893656667854 0.38784078663522187 -0.8961055563617084 0.3431738806875767 1.2934834338955141
Ni 7.298663685719158 3.209408098610955 9.113646908517964 -0.7517764232926085 1.0418128007252572 0.4592188221000027
Ni 5.9163705647821185 5.476410199131713 7.713891787676545 1.0641909113101413 2.379629509320508 -0.21892506330811973
Ni 6.21649210773053 2.5741549526111847 5.219911154450172 0.37018254806593665 -2.0601416593959616 -1.4583153149036563
Ni 7.893157211536313 1.4837069378199768 7.637741244812456 -0.016881863357003184 0.6613237285269901 -1.9786119781515858
Ni 8.184681880416559 8.753000259310513 4.261317581237585 -1.5380884184682413 -1.6743064923944324 -1.1048786188374908
Ni 6.9226351322285025 4.615019897132255 11.19906819705133 -0.2600999948845327 -2.9984223064638234 -1.564362521673422
Ni 2.325028711643269 1.9811171275148367 12.35903278777394 0.35807368061754463 0.36905100556465475 0.3047762547459848
Ni 8.75035436303181 2.739921727774356 2.2152917656704814 1.955337581004678 0.12887757440071998 1.07598121907685
Ni 2.513079609790378 1.7680629673015278 9.951427392789004 0.400749107998884 0.16643110717446175 -0.32727932094450735
Ni 6.1563506106551475 6.803972635106561 4.383081911090405 -0.9821765771198633 0.555929581960191 -1.5410277036022233
P -0.18245881009510043 5.42674242296579 1.8993790742739618 0.7372612603955689 -0.10046174226218826 0.0638641456438126
Ni 0.5878174442724196 2.630652620209325 8.520130258593328 1.1007131746058914 -1.8491412502515574 -0.5699906880389474
P 7.503615360788349 6.873388502183064 5.945228229385803 1.4767814920286437 0.05228955343233575 1.7726380756874953
Ni 1.5981305076857297 6.834743767953321 9.409687911772894 0.26586132284834213 -0.7901439673272134 0.521594813234063
P 8.393872482741937 1.4205899518498613 5.437845116450844 -0.8985380770626008 1.3939708871893153 0.1354462287571732
P 2.7220596390555145 -0.17121420867814427 5.748385448206043 0.18321912526607798 0.5815118013046695 -1.5773756461036383
P 2.3544906293763455 4.633605258536278 4.759200187015424 1.090023298992213 -0.7922715551931775 0.624587292337905
Ni 3.71302561590775 6.780296898854934 4.47062262544353 -0.32044430030054494 0.5413964213410224 0.201306321785092
