# total energy = -381167.7742774632 ev
CRYSTAL
PRIMVEC
9.29953090271497 0.00000000000000 0.00000000000000
0.00000000000000 9.29953090271497 0.00000000000000
0.00000000000000 0.00000000000000 13.61080348710823
PRIMCOORD
 96 1
Ni 5.796044038758384 2.6515379609137457 10.949618846807262 -2.254864928646897 0.14752295741604915 -1.2804345711313563
Ni 2.5365864632079775 2.9915566981207675 7.525018347014594 -0.08836753010181554 0.5748683278462229 0.23176823781937506
Ni 1.4641180971439298 9.185490452989416 0.9188336109352006 -0.3678680410001471 -2.0812162206780735 0.08079460285056408
Ni 5.036737365538098 0.023073995316523873 7.938718195092303 -0.013180246135699883 -1.0322794073135255 -1.3888178822334662
Ni 0.6967357115534721 0.4928202543944051 7.202564563198613 -1.3653120858020422 -0.6233361935396232 -0.36874170185435207
Ni 7.019192699080708 5.934830233383486 5.3118332897904015 -0.8089330750092586 0.2196781394240604 1.9082074602860943
Ni 6.6449981869308266 2.4281446369198973 2.4900013946368853 -0.6884910329704014 1.8407825938742166 -0.6669112499170965
Ni 8.604465080838404 4.1784557881771685 2.7442235925118426 -1.213326464628949 0.5920792924078706 -0.5435713175051542
Ni 0.9992252630844647 3.0743225204313687 4.01784080538244 1.0374920618627166 -1.7965603908310481 -0.9311628050761577
Ni 7.846358047065091 8.46059204297691 5.006203286776905 -0.691693599068099 0.4069701492079314 0.4744112135697249
Ni 4.814701773011367 1.1407920173579786 12.617009803546026 -0.40070179970071634 0.2697619434543289 -0.1854107336007581
Ni 2.4050725015094927 1.771774467874447 13.293113576517666 0.26443153238035105 -0.002303451322196033 0.6231433608025269
Ni 4.858958239121047 6.369397298167122 10.041302075023863 -1.1057952171144891 0.49674612962149933 0.8001249897993252
Ni 2.0832436461496098 6.822117046675512 13.46759043961983 -0.5212767677730119 0.3672669170810385 -0.14549050036705266
Ni 7.3282346998701335 6.658835888458712 3.2576776453941987 1.6635135155439866 0.31317861987706713 0.09211337029749299
Ni 8.677633787573214 7.452020751642763 9.299336236507237 -1.799219939941082 -1.403821297620834 -0.5918062412521421
Ni 0.8005128932942495 5.367958746800644 8.075561717775756 0.6189586332972179 -0.06536027057336485 0.22624473689798455
Ni 8.981867931044146 4.477212508126647 5.05367739047304 -1.6603047787987018 2.503706577008791 0.4064880673651903
Ni 2.6501709299160314 5.679744109116095 11.313585735206896 0.7727129163349596 -0.9771277018420461 0.11394614990186827
Ni 3.0329954064596483 0.9626409097170597 10.51201827514298 -1.6474420639034209 -0.03295794298325937 2.6411580091214515
Ni 2.1906346254802633 8.208946745030296 6.25952706397939 -1.0131414009324937 -2.0699190504977 -0.1577335794004638
Ni 4.407912406120063 6.441161775781832 13.303144050219263 0.695792194617505 0.7893096443513761 0.43616888225907463
Ni 7.160601361334079 5.6432248524628665 10.05541597261047 0.18479264040078497 -0.20610554294594824 0.5799657969737883
Ni 6.453409257577681 6.593767072873624 7.8702968987271085 1.354994763036434 -0.5300516857521645 -0.6291348024992713
P 4.4380335857227635 8.675997070188194 0.2316085293229702 0.9389884717681635 -0.9799232623093123 -1.9950711521488738
Ni 9.346772212127927 1.4344711936016608 13.532758760182302 -0.2427262794927755 0.365502368981448 0.7632229745666533
P 9.047094838649377 7.038935602537496 7.032565424078759 -0.3019868649263057 0.18409201478933457 0.6472309978793498
Ni 4.3210268917551256 1.801979343252518 1.6515482764142326 0.6494881693446427 -0.07760077850361474 0.09248258071145363
P 2.374811828947842 4.431207730264788 13.341350241722733 0.8670371782408424 0.3043499658418436 -0.5654213235007101
P 7.341830613602504 3.947102065992548 11.678899195636932 1.0705096544393176 1.4426457266871993 -0.3948453409199394
P 3.628695437892249 8.123446860724266 9.289550340460334 0.3108286315876518 -0.04833699654249095 -0.603474678729006
Ni 6.419363676063175 5.005295652590666 1.7898481055891273 0.9880199232745178 -0.7567396808351547 0.28907092819558605
Ni 8.030172568839399 2.1475127021033806 4.317060641955635 0.22415365869691076 -0.7474214887580224 0.0519707366403363
Ni 7.887666561975618 3.8346056443643075 0.2154319958500163 -1.023342766945528 -1.5150168813607585 -0.16910942533757328
Ni 4.621773711252297 4.51614034320442 6.310403865920859 -0.06496714890000424 -0.21593127078711846 0.36047457674955335
Ni 6.819931656985288 3.280911592636986 5.98698386087588 -1.2611461552153893 1.0016817370323265 -0.11259426385966415
Ni 1.5542026500341308 7.630162559753086 8.844681255681676 2.1252273361517013 -0.9788490554085272 -1.6024472443602853
Ni 0.6234498307331441 9.152505017962934 10.090668633196428 -0.17351321083222374 2.6110434491242582 0.9877715547091375
Ni 0.7389797592420266 6.943457321901211 11.344087265611 -0.45957646254973755 3.0855212542658603 0.2940601538800613
Ni 0.23307041553277094 5.222160706105634 12.853620550376958 0.8031228960853846 -0.13582238114966932 1.0951343949665333
Ni 4.098796009085865 2.663218171343197 9.277123377723969 -0.45413343715729537 0.3380201044007792 0.3621391089361699
Ni 2.5996930778371614 5.76286331358937 5.986262217301577 -0.8155536656495697 0.12710377032974882 -0.331553522839829
Ni 4.855749901065186 2.1997667645262196 7.094902967527595 0.40164873699501796 1.2036889415391852 0.29882029427286605
Ni 6.267976617479548 8.47874472670166 12.456375291737045 -0.24824129577373374 -0.3163577889359971 -0.1703175867130615
Ni 2.1347723451859064 1.4830891395611911 2.2854173012279158 -1.4788861970764722 -0.1604257815206463 0.976553317395815
Ni 7.985758010709575 4.835644315915128 7.392544673758531 -0.9909710354830418 0.4267625013435102 0.6819468040939803
Ni 6.99475353267259 7.7160344252829836 1.263450966022289 -0.5790610257713317 0.6474613687226011 -0.5227939757484867
Ni 7.0105069375033935 6.0316383468950985 12.799871123434169 0.22763750348045314 0.24818884526924354 0.08501943956518906
Ni 3.275508565360305 3.112962070060643 11.61162081158207 -0.029419076592065465 0.9480061018857415 -0.4556257054321057
Ni 7.686266627842957 3.133290843945022 9.604803497735292 0.5787308961254226 0.8187806572272995 -0.866312641369992
Ni 6.373200806181171 8.045070416855307 9.551531136712114 0.892429907282334 -0.3626307038606077 1.3233498824376435
Ni 0.5634548390416149 2.003583867058306 8.906473846637548 -0.8004168100081313 0.2186486697182815 0.5329074100334048
Ni 8.651176623025611 8.283473183232223 13.5022432804823 1.6104030088722523 -0.048710063611193524 -0.932858961831658
Ni 1.61687218672527 9.00674417539031 12.208917572418125 0.0390879671403972 0.4491331557292265 0.277139981085955
Ni 8.781528143399509 9.202666686001516 2.9747636057692524 -1.25609676571694 -0.6706689171873159 -0.39103522314522976
Ni 5.4348595699132805 4.594972464072617 8.92279359288169 0.4720691957001095 -1.652289364693393 -1.445514306484246
P 7.6727544098859575 2.0240986315546188 7.348812701174505 0.7762924061561017 -1.9307979439921006 2.25434273759484
Ni 0.8719444477135961 3.7066813014761477 1.1586545557281138 1.2261339008062626 -1.0643960853424121 -0.33200912232000884
P 6.675454149635009 4.202123093545762 4.019950868874831 -0.40196498268385616 -0.024281498255183987 -1.2650256927754537
Ni 0.7890623812705367 2.640006542973842 11.564936238033594 -0.0613650333710427 0.12270409860015644 -0.5761816473410076
P -0.15665710257277377 1.784654317750872 2.3029617956516435 -0.17660830481777973 2.16085511265764 -1.1575152711966001
P 3.0628747982668343 0.6675323956206656 4.0954909559117985 0.7555572304912794 0.3536254150382039 0.234793397798944
P 5.706210573194293 2.650208128038418 0.3211044219264003 1.0272688414728115 0.949728998114119 0.060275142740973606
Ni 4.493096106385805 6.962465562440858 6.914805468132789 -0.8970146984395391 0.477750562355603 -0.4554089614356092
Ni 0.20754413399789814 3.1014306521207393 6.671756656269761 0.39556859223920904 -1.6282485216941054 0.7287987314505125
Ni 2.6403599251365164 6.327688903440938 2.1532700414957957 1.7377469202372653 1.026336302356213 -0.8454661369382859
Ni 7.465737559272891 1.7167584448643893 12.001625455699397 1.4097931989335526 -0.8476407759921015 1.2874295143919505
Ni 4.209367427880588 5.351703167317619 3.8397985022495034 0.09526708543512626 -1.1167391177205024 0.2957174869778262
Ni 4.712034955223836 2.6909772701743364 4.190575866403843 -0.35520535793081404 0.7582933984755199 -0.18578714310357036
Ni 5.190756191280588 0.4882904530407541 10.140265819727793 -0.18195517095198988 1.0354734887707908 1.419085679979072
Ni 0.11288700191330135 5.044893053871401 10.631316373449645 -0.21843526815589479 -2.615456233479973 -2.5073524012914947
Ni 2.6475949599407467 0.7456503125390371 8.37691858648007 0.06145810730548125 -1.107482117898609 0.818977603729454
Ni 3.117509540522428 0.8280627526869634 6.263746261011111 1.1563407912725248 2.126609304100892 -2.2365422190783097
Ni 5.187073577164297 4.663203120060581 11.956722672213246 -0.275996354399815 0.19252574737898456 -0.13303144866809347
Ni 7.504944380268564 0.8359022569799787 9.769140152674819 0.7438083174854674 -0.7101420355812738 -0.5349424381855626
Ni 3.1403584871985113 5.617892931117465 8.442685796812968 0.3270479216599916 -0.2112572623502168 0.3853885663824137
Ni 3.7924787707612717 8.02634116223356 11.449679715724253 -0.1739541550243843 0.465173754131857 1.0186448472492262
Ni 7.5804937668361285 8.93064611651754 7.480252266628216 -0.07675102890880975 0.37568470883108845 -0.18206444283634451
Ni 6.117649705383947 0.30966506933940374 3.1305251635455646 0.06969309362076384 -1.7505818672184044 -0.43372119204953047
Ni 7.190406356896492 0.8895596185698591 0.8181940908177489 -0.25401650769461415 -0.4446663782071245 -0.336656134173717
Ni 5.735522693635082 1.0026939879970325 5.309765074185695 0.860436385094873 -1.7593017635899055 1.181954892296203
Ni 1.6620772049558126 8.476819723868145 3.4716663540956074 0.7760057281536183 -0.6210720800957948 0.5722450312907629
Ni 0.26318694537017323 7.098526994601129 2.321567366516455 -0.08860510003391836 -0.7651687854391145 -0.9759059136198032
Ni 0.33874284160915497 6.918729870044594 4.979961871339144 -0.034998884672688114 0.029833281311348624 0.010320922310033839
Ni 0.6503933607309533 0.908224706430489 4.907592924235651 0.991243315307822 -0.911502864753385 0.1339704155425951
Ni 3.642077462420896 8.82823038605612 2.039102494219329 -0.40994080180048104 -0.765931631747068 2.091668269249333
Ni 1.4041826224482195 5.334024759653298 3.584813742865616 -0.13297642706044194 -0.5193777509780861 1.1546934854770887
Ni 3.863731774193162 7.593959487140146 4.4987102330070305 -0.19580878900563053 0.5701428973460955 -0.4821165526337826
P 8.174919762576982 8.56635560445314 11.418279850664508 0.5542043717389681 0.2106476537906759 -1.3715413545412056
Ni 2.9101858053996716 3.4850455887650753 2.724542065956994 0.6509285013355951 2.081412910069912 0.08659758268558634
P 1.8536940329007485 3.451781167820691 9.672898380576544 1.0846355523177384 1.2977026141831844 1.015180799960026
Ni 5.2898240907271985 6.837944847751089 2.388015302489032 -3.1389032694314265 1.05096361398659 0.07615504719602367
P 2.3009642564794732 3.6902583304423815 5.575052783517663 0.5073403601975779 0.5116932378496349 -0.7888211347507318
P 8.404580970193004 5.945794379956991 0.9705390010528343 -0.7138991886308609 -0.5059216254731802 0.18329214459585855
P 5.758222847821619 7.989691712151977 5.478402762026194 0.5830938010798087 0.3725808730947841 0.2565192195118098
Ni 4.378869972066579 4.361916927788801 1.0709106946891012 -0.973580093700104 -0.32450895728822177 -0.7516008169466927
