# total energy = -381163.7368894724 ev
CRYSTAL
PRIMVEC
9.29077115830679 0.00000000000000 0.00000000000000
0.00000000000000 9.29077115830679 0.00000000000000
0.00000000000000 0.00000000000000 13.59798271573082
PRIMCOORD
 96 1
Ni 1.2516062322885082 6.926269874706476 1.707797959826922 -1.8929649323047268 0.1595516064458091 -2.894962143694943
Ni 9.115602927550315 1.3599644959353245 0.677968008787466 0.9503735736766535 -1.1048649919907358 -0.5825333005906483
Ni 6.308322105549565 0.33365388899853626 3.615282463472846 -0.4318190899308111 -0.6295958012960898 -0.9129259703531567
Ni 2.3765885448957627 3.8324245080840664 4.657907664507535 -0.8015879474980969 -0.3508895041642796 0.22356821850708594
Ni 5.923489074724324 2.7971352999307575 9.03591412544524 -0.26609735011854824 -1.7561560188720724 -0.10698900185774478
Ni 0.5085201377534497 2.834307675207351 6.658374205586139 0.8564200648466284 0.9645912599379324 -2.0480009102683696
Ni 5.76090987078403 7.906446228538176 10.793344313706328 -1.5913367362694206 0.5024362380277412 -0.9710663261393147
Ni 5.871785933406092 0.4444639871456009 6.138251752850081 0.1892830720719708 -0.41303949533046286 -1.170709915510003
Ni 1.724552936476212 1.0821983115703353 9.88066169579923 1.3847920489035246 0.6466630411910218 -1.1926221422020622
Ni 0.5085396483728151 5.476965323620007 5.365450985021565 -0.3694695811593121 -0.5805175557122003 -0.34988266016632
Ni 7.305918655243204 5.8608599865614845 0.9735000057002938 -0.47145444493424615 0.6385818068447842 0.43894335968041825
Ni 2.0425388690472435 4.121581177849982 11.188502178484299 1.2206628503893624 0.29257637024568317 -0.9060942921433041
Ni 7.319074387158139 6.92868547519933 8.479212048630453 -0.48170491901766077 0.06742538063250968 0.01763416814199544
Ni 2.4382328113192067 5.878177983941033 9.19142026532703 -1.5269426862640672 0.5367118713811595 0.1993404563079728
Ni 5.235070806573921 6.267721435727342 5.367912110292938 0.3494669127851401 -0.8507042454087735 0.6059470515288984
Ni 8.201000836328511 5.027700795033413 12.359084524856874 -0.6929374987775292 -0.6586472101360914 0.2998106832105934
Ni 2.397223347567423 8.944364724920247 5.012624660726657 0.7414315897231748 1.3672437556071164 -0.40523079791932143
Ni 4.133306131011456 4.271989471614734 9.406472815511933 0.42631075851807226 0.15336476090880685 1.2218769253021216
Ni 0.9932763411198784 4.864127478582598 3.0409167725926096 -0.2727624208435496 1.9939583787006692 0.003447849339284385
Ni 9.085788843005803 9.316413654675609 9.383342511715728 1.193891238722473 -2.6513652886717565 -0.277084188147355
Ni 4.587838526826701 1.9013098571553408 0.40558582629020623 -0.8051617808922843 -0.8841550688680515 -0.7820208239994468
Ni 3.361270922723752 8.336255882386158 7.380645256489684 -0.5721236752215502 0.3796002418354108 -1.3617469941586031
Ni 2.4551420147691942 5.006796559999088 1.563713893967887 2.0610623714380183 -1.213782578329761 -2.7866389964068072
Ni -0.018249861723522373 3.7589902531012633 10.151410560732474 -1.2005251990992227 0.192422646142217 -0.5809813827224962
P 1.1521392366096248 1.3757123529945163 4.244514803239842 -0.08724704334412717 0.22991575799166855 1.5983661323123763
Ni 4.671288233083728 8.915879220646806 12.690290295663614 0.8994199654469219 -0.1075469312437438 0.39112084088050064
P 3.684218127076263 3.9358307907205297 7.3558147415773565 -0.10662004855410023 0.30876917795546177 -0.6308695258021909
Ni 7.518287101649696 7.754588574477711 4.806900044752629 0.3056010646401253 2.815348191416042 -0.3513260774810659
P 4.798506762117069 6.170484225118786 1.117352731358282 0.35358479160825557 -1.202684925754703 0.6100207073776397
P 3.0266823821499025 6.059385183989692 5.137072681810115 -0.5560805057157584 0.14638524426718016 -0.3628237937080203
P 8.042844039444368 4.069710802651476 5.762947336892043 -0.1445348213220027 0.06597836377333799 -0.16865356874707726
Ni 0.7996984793164621 0.5026195690110942 7.235295787603238 1.4791677328726331 -0.448496293476176 0.030004002561258007
Ni 5.653006854922406 6.503326100720877 12.532430803455515 0.3154859278540051 -0.9089266193857766 2.238753110686699
Ni 7.010323481086716 0.7378944116296446 0.2466959875641933 -1.513524613085948 -0.2579299838164074 -0.23060841318331898
Ni 3.7661998914953236 3.181689607622207 2.489899718630045 -0.6068507942900904 -0.5047600010649114 0.412553813943296
Ni 5.794226576043182 8.10651369397336 1.4448533426398258 -2.1664891710149656 1.001524642629172 -2.301100562575669
Ni 9.224379275897817 3.20101441156505 3.753885903444437 -1.521132250229877 -1.7141871306394543 2.4176332422577915
Ni 6.117368886589347 1.1978498305513494 11.527648771372744 -0.06827230201383726 -1.6883053777766859 -0.1521699692697573
Ni 0.4163686952594676 5.848809856410587 10.842215627985242 1.3209163332954863 1.6386293507077974 -0.8392736349743287
Ni 4.652585910806351 8.141744298084543 4.21532041312946 -1.014191439463563 1.0291832848867049 1.0710747829141682
Ni 3.6725675000837987 4.427071023256049 13.093429861916247 0.6460341493577713 0.46593917154297176 0.19014567718258218
Ni 1.500766132355414 5.369573300170333 13.095387427392572 -0.7298508268641107 -0.061257561258900944 -1.0050707081092174
Ni 7.877849235011219 7.304162699500321 10.759593729435574 1.026575929170845 -0.6500797801820546 0.16585183763222403
Ni 3.01147338981604 6.451214165473086 11.226399233908749 1.2359503726760521 -1.205832213134433 1.0603795079838514
Ni 7.773699690684647 3.4045844977148736 1.553229258751782 0.5873140098087433 -0.021748190310368995 0.11128171569582772
Ni 8.146445428274484 1.3552540749742565 2.74559567618435 0.2945430070537508 -0.3833908192260945 0.19779008110171742
Ni 0.8156470170319834 7.524502627533236 12.922176794052378 -0.5581407306788968 1.0769872917438614 -0.3378085026106053
Ni 2.689529588745177 1.880721508339312 6.7020241064920345 -0.3830030968693726 -0.4321350785093332 -0.40734887270358877
Ni 1.678210570097894 8.245224906890018 10.754929762330137 -1.8967385404145465 -1.2959012993083876 -1.2738949702406255
Ni 4.601263691104301 3.7152028487826962 4.937332251518581 0.9589646577797741 1.2357387708858782 0.31213680887611406
Ni 6.957654099571343 4.728472929366516 9.571619988591552 0.7791998096108839 0.9621811078345428 0.853894213100981
Ni 4.874746829980036 2.3324945451300256 6.7871071303130766 1.9926640853692779 0.866013107851702 -0.23255885204147048
Ni 7.941007897128261 9.047836042954595 7.1232899672122105 -0.9963305000227423 -1.7223272432480854 0.5284794561690381
Ni 8.609339518103459 9.240554508428822 11.820848784732853 0.02820808700309981 0.7264577420221617 0.7134865265734744
Ni 7.878443844363307 1.7905267022445428 10.044843557758822 -0.24603348948913759 2.1365797850500425 1.522943849517319
Ni 3.3400415107000034 6.955693746863679 13.343061733156373 -0.5567127399831187 1.219446718594074 2.067941615056355
P 2.2705901371150436 9.32709804147093 0.9331817753203123 0.2846018366806389 -0.17159208255011094 -0.17696491682625007
Ni 7.625056643433904 2.403773341211512 7.362205863035184 -1.1053424458477865 -0.9546511180060849 -0.28866006591041254
P 7.544617147021819 2.525120102892989 12.512156482703556 0.32350571283468804 0.2159765222027571 0.28369475148533724
Ni 0.8144169189348525 2.181528805097691 11.60525272443706 -1.3867103489721604 -1.1404380039993394 0.9977492347471395
P 5.7391508848060795 7.8422098369704765 7.004266827389438 0.19899798536688953 -1.0459003405310698 0.59902409915682
P 0.10858774569363766 2.117868441339825 8.605564677794817 1.1580240925122185 0.2903297403033516 0.5255805373546885
P 0.8629630562243444 7.407355294400876 8.631795311915887 -0.22614137855090086 0.047204425599944505 0.037839953665909025
Ni 2.103449164551704 5.385051724866861 7.08131240510906 0.5210114299267673 0.257545346783479 -2.015621979717032
Ni 5.775505672223553 4.465256092585417 2.9566095281606186 2.149560770690743 -0.3824328261881994 -0.5159910938940404
Ni 4.102674458607825 1.4741852361628784 4.451367318828612 0.1670700263100413 -0.18454812849014668 0.6550535792475622
Ni 3.9352547629106946 1.8736976853677785 10.151900184370833 -0.7364102252491833 0.30044060348510837 1.2879499056717947
Ni 0.9824154296731554 9.176541095368155 2.703795567809713 -0.7091747865719981 -0.1208855573341789 -0.36543166364451257
Ni 4.6153577909029995 0.7646797047869602 8.386460422321708 0.6331416096658193 -1.3969204567359426 -0.1576649309460575
Ni 6.716549298070997 2.324374411165581 4.606248189813597 -0.8080900102826728 2.6155233392724826 0.298918253303311
Ni 3.6965376895898254 7.895826877140739 9.568125729570925 0.47427854464660263 1.0906740452023347 0.2128220357341754
Ni 1.9676273814553473 3.4928189511019796 8.736228224761815 -0.5165533941554136 -0.7941410043017484 -0.2645796279224411
Ni 9.113345270166606 4.897936594711447 7.7735863432769055 -0.6507834911172986 0.3962717889538208 0.881446925908269
Ni 7.9641326264617875 5.219871105011183 3.414426211569034 -0.4262266834446983 -0.27192629809549945 0.7928392547711893
Ni 3.9004236619579453 5.466067249088779 3.143812991894235 -0.835309251009942 2.0323354358169707 1.8226123507230931
Ni 2.5717319016339717 0.34356435455903184 12.178652175120156 -0.015723838493160017 1.253565257544338 1.7802745091868306
Ni 6.367671551504795 4.3898986479794555 7.249342504469192 -0.6236385552713906 0.6810317484788787 -0.6539276931732351
Ni 2.832914059538396 7.68984119049806 2.8898023802222528 1.2515862794410961 -0.17686361536169543 0.8297870356401322
Ni 0.6511752830132492 7.909419275298613 5.765027540547236 -1.549108937948461 -1.1652915727079094 0.7981221004366834
Ni 7.9445290993851545 8.368922233666463 1.83871886115412 1.5980249469228736 -0.23522534313004007 -0.10245357588123646
Ni 7.6578995193656105 6.283924540571725 6.305941809986989 0.1391632725974442 -1.6196319836696882 0.6282783680362469
Ni 4.461261061001079 6.217746377838615 7.839930810813178 0.6054060914237638 -0.5482455830523719 -0.25898465033316687
Ni 1.2818755646182114 2.9114024940139434 0.15326241865477258 1.1553804842417845 2.2185293274406566 -0.4601246217437237
Ni 5.867549341772469 3.805490562588729 0.142661648799588 1.1801481781047674 0.8628226259388624 0.13223363535714647
Ni 5.337213544337197 3.2583105971013544 11.414486249976482 -0.2490951591335968 2.193262839564384 0.27116756555260396
Ni 9.33341576583686 7.075275262031147 3.5525270208226885 -0.13756995996839533 0.6926166251030007 0.76382821225082
Ni 6.270815262512421 6.980630176566848 3.2037802741293695 0.32839543682682154 -2.018692648222556 -0.22142237580867674
Ni 6.912510242668326 -0.02866295800195432 9.306541281276731 -2.7708956175296215 -0.4624224166389649 -0.5802301063787685
P 5.725056785007381 2.4594250602584493 2.2278665260904456 1.3303016311651283 -1.484803591002172 -0.10746542727353106
Ni 8.375137759550004 1.019104684851178 5.325718073222544 1.7966933168644865 -0.4078456098343492 -1.0295998035988334
P 5.294698975662942 5.567578214415462 10.691712568355 -0.1747257430830862 0.3848877154865952 -0.4485086347713502
Ni 1.6036149687242949 2.249602285140581 2.317463006524677 0.19399616127692396 -0.26260990579057997 0.25239671270300407
P 0.036760794115695654 4.970590424919636 0.9233400614661519 -0.19009271245745973 -0.5152637288097126 0.9263314451257854
P 7.7435975922352185 7.431966547114622 12.997346565081587 0.4766776410063984 0.5503567158581038 0.3080526115044114
P 3.069800850947371 2.559960494616865 12.263095993887703 0.2871426008246216 -1.1842611718318765 -0.161864827960018
Ni 4.053935073278905 0.389729267208836 2.367258752530665 -0.2101987391787154 0.340241280421814 -1.1579364178944187
