# total energy = -381177.64281521586 ev
CRYSTAL
PRIMVEC
9.13883535359952 0.00000000000000 0.00000000000000

0.00000000000000 9.13883535359952 0.00000000000000

0.00000000000000 0.00000000000000 13.37560930763760

PRIMCOORD
 96 1
Ni 8.753468944635435 6.638970914641632 8.914428510071941 -2.176606976175258 0.25068101556347794 1.9687800796628288
Ni 7.4129754360994164 6.75698983440107 0.366990952954598 -0.5048826426857047 -0.2731259748305554 -0.46451555172256775
Ni 8.430685279937947 1.810439838936325 8.934626250087454 0.29109927147952447 -0.768776814505347 -1.214829531537037
Ni 4.190814005879277 8.30197392281452 11.838591710957733 -0.49465710830295456 0.4921613384642944 -1.1654093292326961
Ni 8.610153728616579 2.6197202648599176 10.984505403061354 0.9884480119508718 -0.18208475455131867 2.125728701268152
Ni 5.016325003391283 1.2599072583858912 5.29386594978607 -0.6572801545852358 -0.8665440406545077 0.23025617205022278
Ni 2.4532289623837333 8.76260777998927 6.865084892849778 -0.735061681641089 -0.9679889727655717 -0.38384384760311313
Ni 2.538485157399669 6.5281533971410175 5.802526214512298 -0.8487862024504543 -0.2677109744625712 0.24489886166406208
Ni 2.657335711176306 1.1080380924758446 12.026585779137957 0.2931512689125467 1.1384122318185619 -1.266265992940458
Ni 0.56441264368584 2.0795237070946717 3.8898812965128124 0.46286516060333827 -1.2312827919970535 -0.928346161562969
Ni 1.394549719653957 1.9153353911276545 1.0285311387810068 -0.5506282243519356 0.22046078322635582 -0.03249591574517629
Ni 6.45252039575267 8.573232833787081 1.5463412054634957 0.014501021829652447 0.954557529851014 -0.4774901096053648
Ni 6.674064042400362 0.5420809856152063 7.438952575592697 1.001796665343636 2.3576110960678878 0.0051704884573459346
Ni 7.361907624142182 3.182919271210768 7.3448545573719235 0.31220185778609455 0.27670829286517507 -1.934202855908591
Ni 7.687487772457942 2.3357218174041097 -0.2428225108855638 -0.031579317468177874 -0.21889883805587462 1.204718154134648
Ni 3.9084696876225147 6.993183034120961 7.736545954520869 -0.9816266181536644 -0.20739032319564285 2.0919130382702877
Ni 4.367275777726497 2.288071929869209 11.159525066689737 -2.327907141245552 -0.5973860493327647 0.2562482252386103
Ni 0.9428353657845514 8.774195823217934 4.803595763442366 0.17109328853682146 0.22397830946131103 -0.0675729619539675
Ni 4.552373748983091 1.0690792373624418 2.86296864547297 -0.014244168623839985 -0.2742870850181921 0.6014861875440672
Ni 5.593515566668857 0.8932891699137296 13.143127557910546 -1.1475324489522754 -0.8011835129708267 1.9978222325314494
Ni 1.5679042874808715 8.404813237051236 12.549304314288992 -0.20826115583637034 -1.5576272598321175 0.4988518631105925
Ni 9.20298997801992 4.019305482793838 0.5656838556835586 -0.3823016999269738 0.6930886796434128 -1.1458116096064266
Ni 3.3250555774689787 0.26643360590573445 0.6427745013108421 0.0010454105453788446 -0.14030252840820998 1.4837137003721028
Ni 7.887015964738244 8.085739939507407 5.820102022664795 -0.02943193210787189 -0.2367664623649148 0.2492658803835062
P 8.089687916380264 5.419557835708588 3.1223086873770565 -0.059932671799890334 0.052686017539806035 0.3732971824355184
Ni 5.181756200966421 8.27347903418126 6.5889184272922074 -0.5816532119785401 0.867986429527989 -3.3932607054052273
P 3.100788557885844 5.145685217824831 3.2462066199196173 0.2813355072245413 1.0646452252387406 -0.8719492708304789
Ni 3.7824451480931165 4.812483280823971 7.200090835949484 -1.7529686222830263 0.27269814326451747 0.22550528762879876
P 5.573199935677279 3.1300602475241806 12.76764754079577 1.1611348702270583 0.7009698821637024 0.7062563273736224
P 7.043099352823613 5.811330568492183 10.415319545670204 0.15903352915880997 1.5661854338147736 -0.8659141203799925
P 7.842555530741831 0.5830375901369578 4.148953570541032 1.0445934487941881 0.9478186684652837 -0.4438881052802032
Ni 1.758174839547737 7.582208389181752 9.016284485624585 1.2653434811261886 -0.06450229344844376 0.6811597894163107
Ni 5.578271989298658 4.138448479301798 10.594565920649737 0.5139532375284052 0.8852115351570239 1.67318960518117
Ni 3.73942865008261 2.731250611518132 0.4985207269011471 0.5529974959150605 -0.3769944287814475 -0.20915667106744626
Ni 6.6783501561813114 8.282956006443188 11.704822008465957 -0.3762904607358874 0.21479175786603652 -0.8391769614954645
Ni 0.3531876560361641 6.072774370294724 4.792882306757064 -0.4026794922523775 1.0317446178559782 0.771676247540329
Ni 1.8372897372058952 1.6018459219850185 7.83638133357678 -1.236940247393147 0.7638058436533168 0.0038036900168063525
Ni 8.201273096050603 3.3378133916229342 2.4492078748280455 -0.46566097818092056 0.24747870657609639 0.9448086779943664
Ni 5.662824493992348 6.089553272004366 12.307352734412648 -0.16835146412562618 1.4851527468114747 -0.8065874575952172
Ni 8.843815470943456 7.373906914961768 11.46823401105878 -0.03262035713818253 -1.4257651488817769 -0.755300377285467
Ni 0.8647111178787491 9.64594932762035 10.376569969886404 0.19627364445719103 -0.29022998150069373 -0.3452168792595345
Ni 1.5642761698453986 2.9060125599895374 9.792484155334362 -0.8098190771586377 0.7400619630691577 0.17273776611877992
Ni 1.0939003141834602 4.383067685217926 3.3923621859664457 0.06737832944465816 0.1143205025221515 -1.0978944742101735
Ni 0.5267697808633895 5.0023608629706215 10.758002110467134 1.4160471502630645 0.738290987211664 0.9420989923726871
Ni 3.7497829505385063 3.6361232552428486 4.594963463382572 2.109155884511136 0.8066944154867269 0.8817577722804685
Ni 2.840404860984349 2.81727446870379 2.6284807524301046 -0.13323893669320924 -0.4627278636945256 0.4880529727228757
Ni 8.423785459245801 8.837427425031125 13.239352183118156 -0.22884900729005106 0.647037393811305 1.0454915351284253
Ni 6.2359208590314035 6.56208589280981 2.7126667898261063 0.9057914161909045 -1.9882585001024144 -0.2623229706777805
Ni 1.134038079057508 8.677671444210718 1.935343957251343 -0.11465551726406706 1.53095977784326 -0.44255653095297326
Ni 7.866362196838574 5.517306818653218 6.574339243252234 -0.11745210617259771 0.806085064037502 1.0080236200899542
Ni 1.8336981749118375 4.065228130446863 5.739340306875876 -0.25166754784646334 1.1961841485217077 0.07360579841160872
Ni 6.7011972445659005 4.418864503298901 0.9025550350789839 -0.4238944357670958 -0.16459096864192943 0.47671980709824346
Ni 3.522490976453252 8.426188972943859 4.694772339815957 0.765875581698152 1.7816050550727962 0.46580701684048165
Ni 0.19558021540744402 6.468595607140068 1.4981621793616078 0.7871090371556315 -0.8175239020020629 0.1215293615657649
Ni 8.543942866478035 3.7995073536987283 5.065223255835518 -0.021079703488434662 -0.29387837688655843 -0.1464523500596897
Ni 2.584334694369864 1.9176566553075287 5.262285790337353 -0.35624305516670907 -2.594683005488364 0.7652389765554176
P 4.739884372773098 7.690613254148955 0.3694940799580137 1.1830031310550593 0.07111208545547754 -0.15002824033640613
Ni 4.900846679860211 6.894712083183379 9.976519280039303 0.046435151534087775 -0.7467100645132947 0.3624419848885693
P 2.512311532946283 0.6596173748679618 3.3058621954588525 -1.4307127226950394 0.08891491796485332 -0.162830534307397
Ni 6.168183811388771 2.1792284008050227 1.8704052209940552 0.32706874759559795 0.6212083485633431 -0.9000306024477274
P 3.166359701549617 0.13942846934286954 9.959211239762674 -1.1722806024312327 -0.010886050784884476 0.2141500105169796
P 0.5006646976751571 1.3025582029822436 12.504322052793874 -0.3069753192798326 0.6349115570820485 -0.5111556201786099
P 5.755163286407507 6.082790533842528 6.596168265378406 -0.3092479173640932 -0.37568907970646265 -0.07780055321924664
Ni 5.886077102851208 4.974313777269699 8.51151553699202 0.5384167698874083 0.5940469576572027 -1.305263200139262
Ni 8.26216515601321 1.0631846885592176 1.827388722983549 0.2583200201659745 -0.6722475745283454 1.186905294322943
Ni 2.7106333989598776 6.196623867009909 11.359115403050444 0.06364020255846459 1.1433240672978824 -1.2081690887977257
Ni 6.4822124718172836 7.509965895709679 8.187839008080463 1.534798691973376 -1.2572954140107313 1.2455359594819582
Ni 3.9498320564339764 4.644319571478035 12.370874037306555 -0.7048728167625344 -1.678183715961652 0.4079777645368393
Ni 5.252563897287943 9.38677195698556 9.358686488176152 -0.9668057510907478 -0.5216873729478693 0.719847950015128
Ni 4.082153253522168 1.1288289429058216 7.485713254447669 0.7262415122462975 1.0113429142711743 0.5241188652074974
Ni 8.109135358013228 4.11060244797866 9.39666017683841 -1.1772824265211985 0.9679822878973523 -1.0237479728037466
Ni 8.405306734160344 7.717490568924586 3.274670436512675 -0.27096419129254623 0.2929689776984116 -0.10417621499929801
Ni 4.681395826508547 5.647261057384765 1.0293536339628522 -1.039690869286248 0.13301679338007413 0.23034873176402912
Ni 6.529588194291569 2.566084440168254 4.375175387006353 0.757253901467412 -0.25996038398287485 -0.861487966287839
Ni 9.027643144085868 8.847379616731452 7.912194370021597 -0.23828932676734446 0.8917999870078189 0.3765007769744806
Ni 7.55046921399788 4.718079111618845 12.170132207691264 1.2512623204427742 -0.9075330814723597 -0.5684752798356855
Ni 8.688692879647444 1.4096013814817245 6.01343317069166 -0.38066647831639605 -0.5446136427267395 0.6491780943033916
Ni 1.8420693480959514 3.319380360714247 12.220584976029189 -0.4150956065285432 0.4953909011451855 0.017918532151633654
Ni 2.5943051637408994 6.990788659258256 1.0123828167107787 0.4930478548343057 0.3551914739737431 -0.5140421976977857
Ni 4.295462809516054 7.875345671991395 2.4135755557834386 -0.15521004164766172 -0.17148306777607242 1.223195387003229
Ni 6.4286406189730965 4.90179711873701 4.748247321005393 0.6738126050226202 -0.4943778864996389 -0.2678287309873581
Ni 2.1475440586332732 4.639795847977886 1.0748933644145524 1.5278610843132783 -0.10700365714576411 0.17830908955897032
Ni 5.952827156275625 2.5516907744859623 9.000006392092333 0.007834922663386507 -1.1024550969976628 -0.3534986596523525
Ni 2.1499658500020398 7.195791013915505 3.3823706972740966 -0.3748791822106576 -2.1348887705008655 0.041930835905831014
Ni 3.7567376042427756 3.3491546862970445 9.297974463270013 -0.24968265620595065 1.0371439344946785 -1.9430713620428148
Ni 6.373524302954111 1.5814023472984875 11.2710773465528 3.132509192979624 -0.4677268595710138 -2.73486289227578
Ni 6.1657985753614195 8.481442371493152 3.9769031145191094 -1.5082474238474088 0.5348048841664338 1.0658747267704676
Ni 0.7762280000993735 5.036503551852553 7.900344042218278 1.8053106262198522 -0.6094998018771632 0.23622293115661896
P 1.265043283854747 6.197473778697816 12.917721839442322 -1.6860206955075674 -1.1776151272702686 -0.6491225584751079
Ni 5.103390687807278 3.267563164257997 6.524368091537458 1.414130907076958 -1.3210672570510538 0.1057949815496436
P 0.6525256386333851 7.108186138213633 7.006438000918164 0.3811035658538146 -0.38283031873693424 -1.8548755816321734
Ni 4.735470315297195 6.3703257105802695 4.70396143876424 -1.3614099225341585 0.37665658582605455 -0.5558161963107783
P 2.769332138437566 5.388549767353023 9.279329411381116 0.02773371846984256 -0.13262392881702964 -0.14074218704878985
P 0.3871521376286956 3.1870226082846402 6.932952625837969 -0.015237385775044724 -1.2200599266980408 1.0983660145299536
P 7.367308675836299 0.0214972824028284 9.619270325571895 1.0842745694338938 -0.1835124881367807 0.4385196418794383
Ni 5.084674353002622 4.238838585663686 2.770717585877208 0.39207137771922795 -0.7694291033773651 0.34473582585805784
