# total energy = -340877.93733640516 ev
CRYSTAL
PRIMVEC
9.17872556110025 0.00000000000000 0.00000000000000
0.00000000000000 9.17872556110025 0.00000000000000
0.00000000000000 0.00000000000000 13.43399265846814
PRIMCOORD
 96 1
Ni 8.358853984492471 4.390964483973385 5.850906823553957 0.3445851592128065 -0.28031940725520105 -0.04190152532979235
Ni 7.121910610872434 7.4276264131398575 10.709000500744237 -0.4712572413217755 -0.6534003599148552 -0.10933281949957299
Ni 5.425581216665664 3.989450326157125 2.1477060591307717 -0.9455301295414231 -0.5799804522618075 0.6548126668813498
Ni 8.014872076612026 8.747187492833966 0.33344932064347155 -0.840321873733185 0.06958073641261564 -0.8300965964607511
Ni 1.8365711374692657 1.4029589774153621 12.815773116701147 -1.7871601805630706 -0.013683153914047402 -0.7882606342615714
Ni 5.9446289514487605 7.434712389041334 12.89551788176853 -0.13127641365019974 -0.14913426776722702 0.07318362327252556
Ni 5.0006429519833855 3.9661547214447608 4.825892873229714 -0.006634217487065995 -0.05453232671992544 0.4803478907691341
Ni 6.263543760641471 2.5352189894339348 11.569031453865016 0.010836942714503918 -1.346198762011359 0.2755191576530803
Ni 5.546538458154845 0.8460260541175766 7.6150715868019905 -0.7763854800905402 1.227596858505034 2.621774719498833
Ni 7.178451558480064 7.2824189795111725 2.7672011738073894 0.9837791457202928 -0.2678662690935129 -0.4004382616266845
Ni 2.6065009698106967 6.94221870643825 10.847062296757251 0.061917563440403035 1.122500702794628 0.13630831964715237
Ni 8.208075064630371 0.9156595354374668 2.3331218166377017 -0.31906001835850856 -1.3514579535277693 -0.11893614691729192
Ni 0.9009102418155999 3.1928012245809843 4.456310582723872 0.3909478056377461 -1.669692904881821 -0.42165371936203505
Ni 1.9832838820407521 6.772797795571102 2.5706213327655303 0.25177784817208254 -0.18443371439946948 -0.7326026785776351
Ni 1.8814275678196695 4.816416757270279 5.573333910809221 0.6247155903856532 2.7506314679639465 0.7556891280834533
Ni 5.131522395479684 7.81612513853605 4.259153399863099 -0.5358742059712125 -0.4547924108975329 -0.20125695660439533
Ni 2.3352696383487705 2.803008298922994 1.4017427963182825 -0.887577207175723 -1.4497481420599356 -0.8225120992452738
Ni 3.3166864794284168 2.419108114882552 3.47177389292802 0.4757474158826452 0.6677841394403532 1.9587363222735812
Ni 0.0229550740051821 3.4793793846792673 8.172085282882072 -0.25508737216128974 0.2274045615340406 0.1184970024973443
Ni 1.5122408803725769 5.273370415662852 9.629028932919882 -0.5581163051988647 -0.10361340051729252 -0.053108706899521435
Ni 0.24051013801342983 8.974516981372629 6.463268232957741 -0.29305330988210176 -2.040050030852409 -1.022195283604646
Ni 9.136851916338303 5.495165132869146 3.562399118919769 -0.6167153457889959 -0.6081635995642429 -0.6376657227884179
Ni 8.15265392150458 5.600380860535747 9.504119332333325 -0.2967582695375147 -0.3465466538145516 -1.7960716241200876
Ni 0.386535396062869 3.8696128891497845 13.488400200423465 0.5241036956988457 0.3997525484135696 -0.9929518133584966
P 4.941274956995375 6.5377398203626935 10.74242482878209 -0.7070824228193435 2.141206999409409 -0.04896691681700599
P 1.9950601865505881 4.314111017363209 7.837028767445403 0.9675619125304821 0.17326664203905645 -0.4314223687130247
P 4.243902947841982 6.172307231547341 5.525172221492338 0.2899152784737523 -2.4272697369062906 -1.2893483286812182
P 5.069630251044904 1.6629280129820672 9.643416584766467 0.05159766957163371 0.7701623819989639 -0.1210583354666173
P 5.200537230716985 7.4413945010313265 2.0850227085784945 -2.030934698814703 -1.8896325254973845 -1.0954118169976361
P 4.475491364901741 1.761241339252412 5.390200902274696 -0.12010779862788991 0.619026767530992 0.8993896264296188
P 0.14988766563925915 6.611527592735703 5.403863434825663 0.057489352465720345 0.21644960518443368 0.5294798724090946
P 0.05268129363538833 1.798580393614074 0.6697155920695375 0.756078393102072 -1.3396529904730412 0.4310379887904125
Ni 5.837247044620568 1.8567184394171143 3.4557331526619333 0.8101592341068756 0.3894318832138519 1.209247923684201
Ni 1.4663931476939873 1.057334077713202 3.019491287820759 -1.2893233889805538 0.0011148303307335638 -0.3153907970370375
Ni 4.518328475694728 8.155994977499576 9.111470905246644 -0.6198695751472615 -0.13633608756129423 1.353214788317876
Ni 3.6701132956024085 5.562784801866777 3.5364985919783387 1.1569406296400528 0.02878349989059559 0.07268148682512644
Ni 3.8817563426700596 4.957310190026305 9.742357735844664 -0.5805049573067099 -1.5067806094938954 0.808648196778988
Ni 5.870914608877839 0.17720446988845842 1.5671158893453392 0.2911218971873438 -0.8224485929971901 0.2973920464667717
Ni 6.4859350949897285 2.413050156210306 6.303659379394579 0.3461126516009265 1.475594156588762 -1.0605042064871735
Ni 0.08779634286631526 8.510137734243925 11.563846391965088 1.0410931489504136 -0.48499541684347436 0.7709252283069175
Ni 9.002043978430306 3.1319003824743894 2.3253299967636565 -0.18893031671824234 1.2625564052993545 1.0184769542127943
Ni 6.505577567048224 2.1532646951488204 0.7111566187503311 1.2816514742575928 1.177571932737159 -1.2310884165980605
Ni 2.962993480221856 2.3575647620076885 8.918437723645626 1.9853305278223423 1.7106264098713895 0.8048519629613493
Ni 2.4557036924980746 0.2452959253645042 10.006524202473214 -0.18383721846605114 -0.6911372123439967 0.342640633891926
Ni 4.472214559983571 8.662477037400391 11.569676718250863 -0.42093843846256546 -0.09663491231693036 -1.7239095001335407
Ni 2.748844641157958 2.788964849273696 6.6068914186063825 0.8656680658074575 -0.281984710772766 -1.2797450012634992
Ni 3.9721851439412235 1.0656775389754318 13.283639361556498 1.6999686730472272 -0.7475654705350545 1.1750710206921762
Ni 1.2639196471620537 1.339891956147176 7.950357570370184 -1.5855903207039466 -0.5433203778366127 0.242699282909582
Ni 7.046883710589193 0.5141297737882626 10.125025217082555 -0.21929735904587394 1.0149717692730134 0.3046710966266882
Ni 4.581771824698614 3.4075833956878907 13.299853579730017 -0.13365159875059562 -0.5821646043973199 0.5397092634465867
Ni 3.3485091199082304 0.4208151812950469 7.485729579786906 -0.5416905555426735 -0.4074856553917692 -0.8239444608164261
Ni 2.4681959375782667 7.523727666622307 5.992688756915246 -0.3321819004524473 -0.3263470389382251 -0.1775215606606685
Ni 0.3002902577656592 7.970997769864547 3.5946806956626314 -1.8173816984517732 0.9384642238335773 1.0291079515640793
Ni 8.1354070967392 1.5948310502708647 4.566643449723469 -0.34553801004437906 0.39954274639560866 -0.22276063500412602
Ni 3.658107522961048 5.879625219150507 7.661365405528263 -1.9590723654567612 -0.5974981494305968 -0.7136083968633194
Ni 3.466804531071726 8.974351764317932 2.1625104251042044 0.05029514871012629 0.6658768951153112 1.1537966846944323
P 7.035804989199192 3.9527537825637316 3.4855034301733925 1.253001414621068 0.34212255660492685 1.0077713948698321
P 0.4175723376603431 1.1190059327417192 10.115352676402535 -0.29684080194899204 0.2349602623941115 0.0313700296708492
P 6.880482600332906 9.1246442117412 3.9333114067159256 0.894171315453473 -0.27553792670615773 -1.183240443876846
P 0.1900399992934113 6.20276224196327 11.084628817579484 0.5946478244659952 0.9294589350111735 0.6241301501958283
P 2.4627988471248115 7.7238973071137345 8.210425736169707 -0.5299372716614873 0.5762348691764463 1.2457115658278741
P 7.109886480780552 4.448221372151372 7.622729397287226 -0.6672532066375476 -0.09870799279587517 0.06362220483633559
P 2.4269651037059496 3.9316518931887408 12.475275452929768 -0.10300199218553874 -0.49044769820729733 0.13206008589375964
P 9.004283587393983 6.684415850033136 1.351648067461438 -0.25448059181522625 -0.08333125322948874 0.5145918995536686
Ni 6.495214786228578 8.993516942662856 5.983674330836438 1.9713830645033144 -0.23097453827348607 -1.1495358525355492
Ni 7.743090021634441 6.877361833744174 6.9345324419047065 -3.2417913617469205 0.353335651711927 0.2497855003324021
Ni 7.123204811134232 2.9897861792586533 9.281907901000181 -1.1696825026867532 -0.2523229220422751 0.04298575953290661
Ni 4.049662763869146 5.420624705024736 12.364753504189798 -2.0727547201742818 0.5779271692772047 -2.2055398571595246
Ni 6.118409756814874 4.865477043790212 11.006429749846049 0.7615851818529142 -0.2837526013064662 -0.39026466352779243
Ni 6.730639910447426 5.83492482712954 4.886211784154762 -0.6145214234614707 -0.014904170805342072 -0.6617250777304668
Ni 9.056326959623735 8.501785094256434 9.199356281747992 -0.37701474049642164 -1.134307465621569 -1.612027688959869
Ni 1.3039939616514877 3.0041049906657804 10.619450103480549 0.7562352303949106 0.1590139887747842 0.4235298533388255
Ni 0.948694685524256 8.412274165511368 1.2424909951677725 1.4412398474786081 2.2246920046079426 -0.8590521031528366
Ni 1.3270417407818058 6.4734244924590145 13.053098237049017 -0.13196264108394692 -0.020738003878299768 -0.16158046395037978
Ni 2.095346938752044 0.9130849030017621 5.447215472105793 0.22545437978620528 0.382949875033934 -0.4351926343887343
Ni 8.718641657272322 1.866484603094796 12.014382285655184 -1.1690029601212253 -1.4104866254561514 0.15079442907846932
Ni 8.000681767358552 6.252162141317858 12.796791512861441 0.5322006137743672 -0.05885975045068573 -0.5661412323858701
Ni 0.5307276626776908 6.621679262874345 7.6174497945171105 3.703818856940311 -0.8480806917429976 0.8412803809917125
Ni 3.4518432088963307 7.37157193797106 0.5272452543136754 1.6291126694666136 -2.0746411385637176 1.0327270363739052
Ni 7.971851391313819 1.136142612803967 7.650900740858222 -0.6244631080552149 0.19752294348325983 1.1262511709759957
Ni 8.356660269155096 3.922509882828806 11.173279699767598 0.029104373565124072 1.5823998387911071 0.36148270629909357
Ni 4.863338400804403 3.668984312395308 7.681959711396321 0.5005513623002025 -0.010881937019826421 0.3232102930814562
Ni 7.661105647603378 5.0178347043972 1.3315842919134642 -0.2603509345530742 -0.8636037270792611 1.862525127757631
Ni 3.00306779471129 4.923936344977386 1.1321939251966937 0.5910277112149046 2.013456853744913 -1.2181272284517022
Ni 5.358236909425863 5.636563395514526 0.6003446222921112 1.1705487073417906 0.2626088773493155 2.561486978352369
Ni 3.761542577927019 2.415574305657075 11.214709711978077 -0.5221938802706425 0.04412372979209175 -0.00083663696868243
Ni 5.8460953357721515 5.966749679327719 8.720232330360048 0.9104155452264772 0.5035508112481586 -0.7847443935781969
Ni 4.942082684818341 7.572283123252885 6.817898380013449 0.8598267765353321 1.229058273541909 0.5395130882753805
P 6.306077973500847 0.24436612049556705 12.448300097260278 1.1448621012089637 2.4877068591464253 0.24608414022141492
P 6.543779421584418 8.22925038380745 8.415939230508076 2.1872739689708003 -0.5831596213207377 -0.468648857164651
P 2.556945032126672 8.486704448652647 12.577279544627554 -2.1776778406419335 1.5001327651600747 -1.719679006991961
P 4.524570008872194 1.942585414233572 1.8095452988108396 -0.8627588625804625 0.021501878627517807 -1.7290321660720864
P 6.864741086510328 4.263361845395257 12.926455693133185 -0.22765858652637566 -0.9965397878200708 0.1432263869232243
P 1.9014555463391256 4.515969543302657 2.8616548461054925 -0.9743853632102185 -1.3349622698655912 1.232675301469206
P 0.1296449049486963 2.062900144954483 6.196092980188642 0.8395898806631669 0.6314958465322802 1.1528399772081177
P 2.3093580969370273 8.515654148125774 4.048898176054907 0.7590266770971186 -0.20304284486022453 -1.3185334348856066
