# total energy = -340861.5256799028 ev
CRYSTAL
PRIMVEC
9.37237037697305 0.00000000000000 0.00000000000000
0.00000000000000 9.37237037697305 0.00000000000000
0.00000000000000 0.00000000000000 13.71741142041579
PRIMCOORD
 96 1
Ni 1.4213105763296172 3.0281097323144874 13.3009510753748 -1.4491758144962332 0.0354421428576938 -0.9621919064678204
Ni 3.5792800820879256 8.886122310856388 10.933106082565805 -2.18913621899052 0.3204954652534545 -1.35634253531358
Ni 0.14353410145967038 0.6129052153856451 8.729211962573213 1.4846333839728947 -1.0383680367097665 0.9275038681673317
Ni 4.673157531297341 3.7305969998047694 4.044825394477076 0.7133538576503521 0.5649029891033949 -0.5090082348183039
Ni 2.7929288455836874 2.259462903216079 3.414263570773887 -0.2122581928109054 -0.17247474226538037 0.1551223670298619
Ni 7.0574135444174 0.17239444117633052 12.290348073090495 0.4632333425760345 -1.5833627169250086 0.053712401921791365
Ni 2.4999954133607107 3.803682743029046 10.711213342378143 -2.2138699742917742 -2.283510874518364 -1.4674342464857888
Ni 7.47569305638922 3.148788371677887 10.145218714577283 -1.3150783864574707 0.023550790736746537 -0.682527873408431
Ni 0.868765299840226 0.5296851282079942 12.101019633343041 1.122590177184641 -0.07754447134438258 -0.3568912302736692
Ni 0.35664399348428294 7.3841437437687105 10.834862085874368 0.15787241897117327 0.7941644013405161 0.9288331285017165
Ni 6.61068888873108 2.5054969946985732 12.364545379426646 1.6625259548197366 1.4989626561113731 0.2711390263075137
Ni 8.056377000085876 3.383753693892893 3.7466499955722155 0.4558236803755247 0.2704484279983923 0.34179114140743716
Ni 4.4665342567240645 7.085399441989559 12.006576132788746 -0.07910615940454764 -3.2888674892991165 -1.3328771052017883
Ni 0.3305091390368739 2.2965212551920713 10.470020080130752 1.0098820134549318 0.5976963814843319 -0.18224930515364096
Ni 0.4019069183787844 7.681210391272773 2.0419742398097807 0.4814467802602676 0.6021546743660017 -1.3274479637664172
Ni 0.980771685009547 7.7616253280340315 4.515044707910848 -1.3966921427752204 -0.06196281485604168 0.08967982115533586
Ni 9.087497058088603 6.812794680842943 8.744438315284441 0.22603596332128814 -0.2887410556599931 -1.0133653440178418
Ni 3.113857547749074 8.927716890034297 8.139253121275283 1.4455999242195168 -1.012861664908546 -2.581392201916729
Ni 0.5873711298713825 5.495292477423313 0.20979394742949212 -0.4252010703936613 -0.6245523253349115 0.24612836319578904
Ni 2.0419114449290934 4.068930193527925 1.7172141126854192 0.9871331497941903 -0.6550929171259299 -0.27060989327692103
Ni 3.8661121012769186 5.588500699578409 9.986837841401586 0.37444029490102615 0.4562898213786658 -0.5672342083397328
Ni 9.307654035305614 6.32965836672801 6.4001329676001095 -2.9443211537440455 -0.47169767129330376 -0.3260279650359095
Ni 4.488240666227453 2.512282590760945 5.964440528937294 0.6257381181128965 -1.577151188797658 0.3038421729674896
Ni 8.635776929058022 1.2424482624424538 0.09336286626425154 0.42293644272920067 0.25225941579419137 0.34086631560032266
P 5.895914443840564 4.847483617982586 10.329210526703308 0.49975354898925545 -0.2910226526053181 -0.7632947083448531
P 2.4176497683275615 5.571977210824318 11.717632518582 -0.3828056361465859 2.1443571150026166 -0.6170069088874858
P 3.3890490830852134 4.267690049459861 6.069803778072071 -0.8042413259605439 0.80959976205898 -0.8883351683876702
P 8.96759632545611 2.4110703644107314 1.9807801599611083 0.16938684736867604 -1.011410020063684 0.2719131854693769
P 8.868652212706856 3.525004685959202 12.060951813279164 -0.6540287375274736 0.6885558247700657 0.8650995948984972
P 1.1048056329231246 4.469983288976763 3.484606958462459 -0.9554766992311738 0.26221524145532266 1.8431935173085547
P 7.879051754920023 1.0801750439011448 10.475012741763937 0.9582743165809691 1.422982443930317 0.5927269532941986
P 6.62908685153555 5.498132305609638 13.236629435573068 -1.5729101541331167 -1.2513795627469286 -1.1880278379631604
Ni 1.6817218837785184 7.375661748690746 12.938633048940018 -1.0269070872580186 -1.0291670869367888 -0.4430033886824048
Ni 3.5923639109595706 2.433779617531073 0.38903021888970596 -0.02990270109670334 -0.24561928476985442 0.3973940754837221
Ni 4.902377590547935 6.298635821194237 3.8140438983425162 -0.6217462233446841 -1.890575349026628 0.3373451898209416
Ni 3.486362403410639 8.681064222115177 13.177302331878574 0.8098571294854247 2.802899167019411 1.7776877222962608
Ni 6.368413117719595 7.80168283849063 5.037774600154911 1.4329518964382029 -1.7425690242162573 0.15627422124611798
Ni 6.1139251482698915 4.989990507662649 5.8349893510181206 1.0965824402669695 -1.3421125077571274 -1.1856601090619323
Ni 8.51548255687495 8.97263866065163 5.6370467657721495 0.2878188009560398 0.19925920944807618 -0.3868618084938305
Ni 1.7006072098360867 2.097761399260135 6.038198271108631 0.9421774110191065 -1.0288660107566021 -1.6802017748329452
Ni 2.869313663136631 1.2959082623592628 9.585054638310124 -3.188879601349553 0.9095285146358336 2.764777677557342
Ni 7.6347140624531225 6.557360101997798 0.8508950014809379 1.918949786404263 1.6063285816925628 1.2180218132220892
Ni 7.118727590605298 1.9857709471202425 5.640379580633723 1.0262193171623744 0.8173603798410053 -0.4620254383108623
Ni 6.637803155869812 4.840866724584749 2.227076677810656 -0.8854997558214039 0.13030247977270462 0.5203776529975103
Ni 6.607792826323244 8.729360046023192 7.084549368007712 0.352312095543419 1.1155556389353627 1.8729494084147487
Ni 7.946270394366614 3.6508193842206396 0.46619294317355703 0.7994400479171586 1.022846801145716 -0.3799303714813199
Ni 5.306654781363424 7.319699325916681 8.87000745744528 -0.5110427487498296 0.16179592239529553 0.2478286337163474
Ni 3.0825350863672414 5.011940598792588 13.543090009780606 0.7342566692412903 -0.25339918582558946 1.3912195496964233
Ni 2.4138258412647886 6.2923563331254675 3.3313143450965153 -0.11829774200234466 -1.0017485857145199 -1.5648854840564275
Ni 7.481503925945396 8.634586638036032 9.709032352002192 -0.14395298067660367 -1.5892549140397274 -0.9192097464793396
Ni 5.742985478440393 7.791748126023622 13.636409763141698 0.17533149498788514 0.0346345593547339 1.0805706382197453
Ni 4.473347969897192 9.366699967892552 6.298431503522746 -0.2000418532503716 0.38784782655618366 -0.9401210427107101
Ni 2.6379098416173448 8.919441087101875 3.276965844479827 -1.0408301250970138 -0.03183565645335808 0.4776369195958741
Ni 4.990056114254412 8.87164199881721 3.706897087148803 -1.1997045029701403 1.365854074348441 -0.28432210065669095
Ni 3.887499850191743 6.821867135246777 1.2279651386922006 0.037673860401689956 0.35706709372990114 0.5916992833606326
Ni 8.350275786444797 5.2767288031491235 10.55985518623219 -0.058684915435718285 0.14673697117964404 0.43667718935406086
P 5.996283156868106 7.374209031301702 2.4902453365876647 0.9013408366187186 0.2429175695679752 -2.337810516402193
P 5.588688146983447 8.562316291023668 10.757467864045294 1.3461931055844043 -0.5047183491936984 0.6364855864373877
P 8.246439296424054 7.8868870564506075 3.4794081046837326 0.06870039069019136 0.37573176001894004 1.4861089400771568
P 2.1919724650321832 8.346714285749076 1.0937649807663925 0.911370710050895 0.4946334541538708 1.2792068693718421
P 1.840658538510153 8.552634632553461 9.561570290169952 -2.9045227908001854 -1.4002670046106722 1.861877723981619
P 8.079367424313773 1.0000319058771912 7.326140018753783 0.096502243393808 -1.2016518565044982 -0.8682275990045176
P 8.231527855353288 4.198962458402716 6.032738865436902 -4.401804973885342 0.006615962654620864 -1.2469204985343105
P 5.574339048127796 1.5873702324526917 4.279695118515514 -1.4883373151870432 0.17147072648089823 -1.5150546765772295
Ni 4.671067492731169 2.814119774723222 9.857386663482412 1.6197489688635267 1.3353530775461067 1.1547623910418112
Ni 5.456059735548881 3.766896189790359 0.3828060278054225 -0.015497838525282987 1.2674232464733528 -0.21485937787917836
Ni 3.999087290410804 0.5229070300418238 1.8042234491559113 0.8843872394835156 0.339915264540963 -1.3459534787697722
Ni 0.7168954122785203 4.078761809922163 6.392903121187796 4.558290282701001 0.9680303675264682 -0.1782658950258607
Ni 4.264634656757743 6.097317308183534 6.811119838278929 -1.1547742181163532 1.9067139064597034 0.09854318508323673
Ni 8.771179562087148 5.806202115789425 2.965443253099242 0.3528749100254245 -0.8396009364067606 0.586213577655713
Ni 7.164530364026308 9.020747037154607 1.315886406788202 0.5956541542433225 -0.008010014788670076 -0.032560450434524574
Ni 1.207208150295329 8.064830878053085 6.877141626044352 0.4854862404369638 1.4048818776748644 0.7712250189355234
Ni 7.224269852011886 0.44021179559827905 3.4862668052340697 1.2406691183079601 0.6494850840208493 1.386648128275657
Ni 1.5250814597585982 1.0224131260387164 1.6359519136533893 -0.35903090232449136 0.7184189308780853 -0.99620245908531
Ni 7.360656583917462 7.116225167748041 11.899154711146652 0.24127052088285547 -0.21469071351179803 0.03768440192465123
Ni 4.871420651605926 4.149560694804978 7.855865448153861 0.17119227600853096 0.3325176865253112 0.689000111396336
Ni 4.440797728012361 3.9814672343372415 11.768262999919761 1.6166304778392029 0.38635221584726365 2.256635904504391
Ni 1.7016194258232913 2.6674984145025773 8.190446882065183 1.4852890152790228 0.9591127533218642 1.1733496671256956
Ni 4.924974375225254 1.1646950788327335 12.048646828375452 -2.166277826335108 -0.2866777453730611 -0.891020171419001
Ni 6.4727744604744455 2.2139038114216176 2.0372683727063046 0.06063252608039235 -0.12167668577690659 0.27722045661490324
Ni 8.924127272227821 2.98647766365557 7.914987296939839 -3.0993555890457913 -0.5325644248716893 0.7478472634415314
Ni 7.284581054582831 4.9585180883567865 8.174685367012572 0.36967166986778915 0.18091027462724327 -0.0781265691000977
Ni 3.4028920739472626 7.479301418936199 5.0751544244305435 0.5532332660749505 2.256467754357643 0.5567983577183895
Ni 6.411376062954282 2.1737619496327514 7.8161256610488 -0.8262617960956931 0.7803606626882044 1.1819152973075193
Ni 1.988845084562864 5.919485955024078 5.724564084710295 0.7748435895247172 -1.2069491003476955 -0.07408016694486597
Ni 0.49237184776115006 1.1565598614540886 3.7423977511889306 -0.33685333778618765 -0.1421238978876649 0.6714775291315402
Ni 4.92322174198815 0.739724631738086 9.01845736710207 3.3449180524357813 -3.358673454348661 -0.009679946291925265
Ni 2.3039254276910683 6.509232980754318 8.32716820758875 -0.514476714132043 -0.2413864776354294 0.3760510910315717
P 0.4844118937062156 4.667084235374113 9.069348400332833 0.7655575362371009 0.3045119453410046 -0.1275801957455351
P 2.8075403708063917 1.6679726166189883 12.285492248062988 -0.47615853527813473 -0.48792981688145 -1.3406289812330654
P 3.9289350990753706 2.2361819355103716 7.984863940589867 -1.336629630265685 -0.295547022838233 -1.0209891791116867
P 2.1899855225387816 9.450254648688198 5.489268855062421 0.2574162774047825 -0.1778036106774615 -0.39781419374027616
P 8.986462906773175 8.355261887418806 13.018852103163011 -0.8143761004017006 -0.6505142966163119 0.1351343539437092
P 5.683292852306075 1.0147746442834218 0.3447982547229129 0.026067386511013174 0.17122775723215672 0.20919729449739455
P 6.347147209618046 6.632029775794645 7.106565065729414 0.445043301930569 0.39434114759001115 0.27227391124290523
P 4.296941217016026 4.73982320089907 2.2020009012017105 -0.5330665613190885 0.0664445047764791 -1.0334091500425944
