# total energy = -340893.65883193904 ev
CRYSTAL
PRIMVEC
9.04667436159190 0.00000000000000 0.00000000000000
0.00000000000000 9.04667436159190 0.00000000000000
0.00000000000000 0.00000000000000 13.24072238005462
PRIMCOORD
 96 1
Ni 6.250953456606232 1.9259646021934678 11.40244648241292 0.55611958648381 0.7216963160777764 -1.0159616439901082
Ni 4.378065693002608 0.26013621714114643 6.18789270817017 0.1369030158083578 0.37092791087239346 -0.8451270084313122
Ni 2.510135506959447 1.510912228294805 4.636093130345682 1.0137705498760605 0.6177440441638263 0.22394642778211107
Ni 3.3167822280883787 4.660584287228318 4.915909482933964 0.6468617874653892 -0.5259600321812943 -0.5863074229211
Ni 5.2626947472906425 4.4958986268074 2.665874006418142 -0.49863357645219925 1.2282149517050072 -0.057292148853249715
Ni 7.196756123054574 6.299488864657111 2.489149936399218 1.05599834819702 -1.2492018383693195 -0.1049524310436902
Ni 5.196364530733503 4.558845387146268 11.485585419968855 -0.008725552798455941 -0.7736503405475643 0.20677377265756644
Ni 5.660187526216936 7.903138552025463 12.537666607703333 -0.6325829089488718 -0.6182981168950835 -0.4149444256626596
Ni 1.8667993517456103 6.48001525191812 0.5536329507274793 0.11960514795985851 -0.38327846201794635 -0.9291704572364773
Ni 2.714436554492163 1.543733562946919 0.5691063825877263 0.17965197674010996 -0.008401336689817789 -0.2274007048792987
Ni 0.4106077427755691 9.29518652563611 5.077711063562408 -0.6931390732653739 0.08765404897455871 -1.059787382925807
Ni 8.474490319194405 2.182826827876345 1.3025627939768567 0.2697187489212194 0.9648419424961576 -0.6399905142668527
Ni 6.854303311058672 0.6775063490160693 4.866587918879427 -0.6189851156597791 0.00018614786887709875 -0.4485394880092856
Ni 0.7177034372905288 7.501710469743692 2.399735320825596 -0.3488526762399089 -0.28315070605640913 0.5623910213148186
Ni 7.3489302328073896 4.100975103405142 3.6748830727600694 2.02183633605786 -0.7821930879112529 0.7632121759333759
Ni 7.568411599950427 3.9904518824997175 12.484332843561086 1.004429989201425 -1.2443751064046376 1.0542793086233841
Ni 7.926750372158323 8.691755251114243 6.947181898252552 0.8099103513208633 0.2243380067935749 -0.11211603867166497
Ni 6.724483533699841 0.7738036744583047 0.14435145041607778 1.5184858137459654 -0.06747423159257411 1.1985194815231037
Ni 1.749038791335861 6.474080633524574 9.289412938046533 1.4825014252315565 -0.09126593469553314 0.3960159641892728
Ni 0.0844344213272085 4.8471900396729595 1.399597423381095 -0.20380851938165545 -0.69876978918859 0.659723988140038
Ni 6.3285377360925965 1.719989919900376 6.999151423898234 0.180531808241902 0.37198026339630774 -0.43379935358563354
Ni 3.6804675848550943 4.394955834070826 0.7015967382236533 -0.7023932448737903 0.1725701301926641 -0.6905512579335398
Ni 5.8607432505561645 5.512808153885737 4.893029538758479 0.07538757290237984 1.291182039455847 -0.34075010173743253
Ni 5.643677345472694 2.9061717713104955 9.108081396765668 -1.2127556797271437 -0.6213093929175816 0.29230409042090305
P 0.313359611855953 5.333177387388388 12.509675292502918 0.9464297585375572 0.6658810088803694 -0.13562646308877932
P 4.186972790065284 6.2060186249587534 12.739468059104745 -1.2919479710875943 -0.5845796415967158 -0.17178260129436224
P 2.4554031269579886 8.513933819492976 1.4515940890499186 -0.6031365786632968 0.4406562286064669 0.19456720328904553
P 6.198871752198232 7.787902013767846 5.783216869785834 0.02599462429154878 -0.897140425384126 -0.6840299118752542
P 4.552820302008917 1.012141929679862 12.573800834513552 0.33508827546596487 0.1552259824872617 -0.08894654253373714
P 4.152007393585014 6.19368800777826 8.249433486630723 -0.9836773300351059 0.3828801981382632 -0.28406653300245915
P 4.74724238111823 0.9574095496784035 3.886588823273148 -0.8065352642010432 -0.28688446206722845 -0.33843148090658487
P 0.1445640472640173 5.725459281871568 3.589229159726382 0.04383268091423419 -0.33112054906746846 0.34944660107016595
Ni 1.1736341140444957 1.0196597160899796 2.4791397911972988 1.0969187405604657 1.0973673980621101 0.8702981083803012
Ni 1.9080521869202631 6.643732918180334 4.713909004696185 -1.2951888466223953 -0.3039360182328766 0.12599588197755074
Ni 6.023529109357196 5.363139972936294 9.070133311742177 -0.3575448046972681 1.0494255800755088 -0.3721101041059527
Ni 8.87911187753246 2.2101115978076504 10.066934795675184 -0.5451844276285449 0.3952767720304031 0.4856042540720669
Ni 2.4571039017415046 5.156803423667986 7.091929593006491 -0.6195983237637459 0.38948253394612925 0.6310929546669066
Ni 0.62876739079163 9.00068108785636 9.126922905497741 -1.0176773411296345 -9.358815507080655e-05 -0.5315313556214846
Ni 1.694143571195555 1.2268918861219478 11.452483638410946 -0.16159691901061202 -1.1826544894663888 -0.33188596647858326
Ni 4.115612622552639 7.012511552623217 1.6066296619092564 0.23964429813334212 -0.2741639291767666 -0.6138076852238977
Ni 5.8473360791244025 7.978434022893584 7.8889018005530165 -1.872438530216601 -0.7461824741445988 0.6578259997863768
Ni 4.948983219801292 2.931294386064884 4.734233263359205 0.9717525535730619 -0.13478725501693561 1.1143693319367454
Ni 0.9974772705092233 7.247236566097241 7.045084103729871 -0.6873173243772743 0.6587906776924912 -0.26283950530288286
Ni 4.82383152642275 4.570569877143274 6.908505555941439 1.5664394588071087 0.9645827752975001 0.4897442443823694
Ni 8.03179130838922 7.16394383507684 9.01620337175826 0.3395139153374862 0.2189762282610293 0.3819970242023615
Ni 4.444658263116779 0.30076935512074154 10.493073869027036 -0.17293496973125055 -0.9333783246702376 -0.013392105036189839
Ni 8.025024395952677 7.354602497643904 4.57942295269194 0.18232798091037633 -0.1400212497223653 0.4052361972359601
Ni 7.269581851816844 6.114574840321606 6.904163152238844 0.21552966447332556 -0.6042596365241464 -0.0584134069418865
Ni 2.458596603014272 5.268240358685831 2.656049318041021 -1.503236858006695 -0.5506912163793871 -0.4274615842930638
Ni 2.513862736804174 5.154532708398504 11.62908829232805 -0.6591262066550391 -0.05485140062224102 -0.3291073752921816
Ni 0.9323774016678192 3.520368588345043 3.883848585603323 0.3180035520695362 0.43045409126248446 -0.9431114927976015
Ni 3.9164138993704722 2.6971483597512065 2.606594767873091 -2.029234428294144 -0.9033920627207925 -0.24207630461360244
Ni 1.007627639164039 3.4102705611354978 8.231863035649097 0.2106365980470824 0.4886342991476423 -0.17415778639475812
Ni 3.8028781358963726 2.641963646030728 7.0892282560365025 -0.7892199128510473 -1.535138334700982 0.16826584639035538
Ni 3.966188701811468 6.819681688204857 5.948023755643449 0.7305342260843806 1.1210259180213147 0.46865939868761225
Ni 0.6935723380482329 7.269337591608574 11.431708855363782 1.5393819404686842 -0.5543563239358 -0.40657857019646754
P 0.18397226553250542 5.552351167602493 8.170320319174069 -0.7715433215068905 -1.1899697921808796 -1.1419207591924527
P 8.493452148695738 1.5512965827289389 7.930609683449004 0.624897367379156 0.43247035036156484 -0.1438020569210362
P 2.0387675850427547 3.294527409112579 10.299798908229157 -2.0467752653913847 -0.20505704707677588 1.2337592785620044
P 4.077752290270639 6.207809866486073 3.6326984301242344 0.14154359990416268 0.4697114941012104 0.6709471105493671
P 7.048625876749801 3.9386234849743698 10.410557342668472 0.05743947306439141 -0.8108794001023518 -0.9855681192999155
P 6.257657042322113 7.706382430926005 10.201486888402405 -0.024568433367983495 0.3931155027130262 0.3550503204101885
P 2.262301862308215 8.551938898565064 5.877304997344375 0.9812486659889551 0.10845992997631643 -0.12184586436491918
P 6.976044408195801 3.866367696698064 1.4787503962050224 0.3415551141372311 0.3167372837626029 -0.11749324382317829
Ni 5.343979116598594 2.750587065316267 0.5149674644256226 -0.22075851697243273 0.2500081578661694 -0.5338834007934289
Ni 1.5522917169107835 1.3633971558478992 6.940230433658647 -0.20606440529536768 -0.3400376490514402 0.503713819188584
Ni 6.929707342019359 0.5811809788832546 9.154727859205918 -0.10471280422905838 0.440688367395983 1.3855083582442589
Ni 2.604899421094203 1.538359838364958 9.164764239763542 0.47287986452686304 0.47903251439182015 -0.0008726324129404325
Ni 6.298728944009158 1.972364995090572 2.672732290265928 1.1129266859529476 -0.05644265636876086 0.12878527179722982
Ni 4.347035599877814 6.53499189212785 10.557357727839326 -0.36087104085702365 1.449107166041827 -0.838260363218466
Ni 8.198711497382098 6.998389693915404 0.06969557942665049 -0.5608956677162147 -0.007398092236284033 1.3370821444220715
Ni 7.539109421632292 3.733960570466437 7.994589574002114 1.2206440813362847 0.401652850760076 0.13296100044147421
Ni 3.0838394094672954 8.245582317346983 12.618647008752102 0.5041347087760866 0.38048315866099636 -1.2023409121517228
Ni 9.184274297732326 4.820375696809435 10.376952566015015 0.5705025946783594 -0.9777262546579935 -0.44993791101870895
Ni 8.696088608142459 2.787723663647835 5.932108846073438 -0.5871471452135759 -1.3830424132022696 0.12549683085394514
Ni 3.657353331813156 2.837525606111972 11.664096208177908 0.2054738228992203 -0.511435356202558 0.20619398889469648
Ni 1.2257972385219187 3.1703979899390236 12.710550364447775 -0.7977698593035873 1.0785245543239943 0.3678289602320955
Ni 3.153987322612966 8.413750947404358 8.220793524877232 0.5807888070957159 -1.0831378847262894 -1.1445983060246159
Ni 5.607698721461819 7.773219261248446 3.412107940702158 -0.24068688046524356 1.1931924128832354 1.632600628015214
Ni 2.94656517241901 8.41961319240286 3.6005103626787487 1.4807625881635789 0.17198494711315543 -0.348523060814632
Ni 3.475379476651282 4.207255434026155 9.148531791922778 1.108792609179916 0.4855088661447832 -0.047004907994628725
Ni 7.20224745440348 5.999030715135056 11.143140749979894 0.22617685977452662 0.922627771021953 0.9487254965502694
Ni 0.5961224662899338 9.01158233048475 0.22931057885734984 -0.2496340623562023 0.002046083895751315 -0.041732860962411994
Ni 4.71675508845626 0.3644877967842575 1.440378926820529 -0.4743168540837057 -0.25567332657174674 0.9709426560772567
Ni 6.0515918932852175 5.576008221107256 0.36469948896475907 0.26232759866347083 0.24645155086316267 0.4394663220634238
Ni 7.881544140279432 8.502770223307555 11.55311251154652 -0.7382516493332963 1.5609172434372989 -0.9631144182820899
Ni 9.351275906794628 5.047899557476655 5.866183015861103 -0.1200229522235675 0.4816558109472801 -0.1670898238043832
Ni 8.093941961382612 9.167176083153358 2.6045954528350217 -1.2566287269610101 -0.6506937596169697 0.12399684926965097
P 8.412203966085308 1.9973338163804935 3.8394122257142054 -0.38409118772722883 -1.41095559467277 -0.6880719431551118
P 1.856621843067653 3.2584673650322795 1.7279672773690185 0.11142415481096295 -0.223610384598931 -0.24796233108073423
P 4.725358475792027 0.9805147560459614 8.424833123520354 0.08617566465681933 0.6500196163680805 -1.097268924811033
P 8.527241477506553 1.4966999028431867 12.2060788516383 0.15694245095773618 0.27405954238841834 0.41936158089374875
P 6.5214490205803815 8.002262963211574 1.4474489028488164 0.22868908467341906 0.19531025210265718 -1.1724680358516903
P 2.0041278688401785 3.334224216293802 5.878960538755989 -1.0722965711364112 -1.1441421923238038 1.016009466508908
P 6.658171410491462 3.7606573065630156 5.974505180889775 0.10822904491243296 0.43668104600880275 -0.1899135065671181
P 2.3416140566012373 8.391423755033514 10.184472807895176 0.11521318953974997 0.28471985031574193 2.2610198925046996
