# total energy = -340892.4452484371 ev
CRYSTAL
PRIMVEC
9.07158788639672 0.00000000000000 0.00000000000000

0.00000000000000 9.07158788639672 0.00000000000000

0.00000000000000 0.00000000000000 13.27718584189682

PRIMCOORD
 96 1
Ni 6.2536352915216415 2.2269841487682838 11.409696424198852 0.08923193498463988 -0.48636015840148494 0.061548610136758504
Ni 4.832952031224671 0.47220700105704905 6.154002040041247 -0.43010159301907214 -0.5278325666136587 0.02059685031474517
Ni 3.142897035567704 1.6115131863774204 4.807124312906376 -1.8741202887943982 -0.33048471525568246 1.1925105563248621
Ni 3.0721477204174175 4.164149202726803 4.335439835320625 0.13502071118398037 0.03301604991470443 0.47162516618415545
Ni 4.9137798806911475 4.389324161139473 2.519372317311932 0.30566739910168644 1.0544631424994162 0.21872117482742975
Ni 7.212928512344485 5.803847813154991 2.7284751431881538 -1.103345470022416 1.04340585624399 -1.0861859275239938
Ni 5.049590625288523 4.501621349528419 11.415844239415847 -0.2933651846955657 0.3778920008950524 0.09522363379170051
Ni 5.728671563039536 7.573415278012145 12.58796689448313 -0.727736094513953 0.8637034858819189 -0.21346969662050333
Ni 1.5148826305393832 6.894751633311127 0.4979285817952363 0.21691446063599418 -0.464930013552167 -0.8278813339769872
Ni 2.574081250483922 1.7578923310453298 0.39782995784821656 0.604194587614166 -1.1912319467227548 0.20075919103237036
Ni 0.7860531039584984 -0.03597519670361474 4.749063427952359 -0.9238426172656605 0.421133585192507 -0.09744583825399993
Ni 8.664609388985669 2.4607226862939 1.4866600129776373 0.4507933170404689 -0.023766763402294555 0.01928353081996034
Ni 7.109340048477177 0.6116246090604717 4.961113612783873 -1.5711692601826102 0.32976094971578046 -0.7266287203823873
Ni 1.1443536169077058 7.493648804346743 2.797582500902589 -0.028025024458016252 0.37064406108338743 -0.8931552154841327
Ni 7.287215746831688 3.5691891009020114 3.7284725795616227 1.0930160630719497 0.458499684545791 0.6088277155108031
Ni 7.691908361034717 3.907976627969918 12.63954885125657 -0.18312065201500075 -0.8472749080122504 -0.017919560592898173
Ni 8.213325098591863 8.925834838282714 6.925659440933712 0.26015604493344874 1.2775230539115159 1.3886325056955375
Ni 6.945262235536643 0.5941563591241477 0.3204474975206138 -0.15072629484469527 -0.37828923633347106 -0.8983740406809109
Ni 1.7444391659770035 6.4992213230319065 9.289967475185007 1.1386459450959228 0.5274826394734077 -2.1557185627620226
Ni -0.02721204265371388 4.815198933423785 1.418163173138521 0.6378009628147016 1.0028611020524083 0.3467765104371705
Ni 6.4997565467264655 1.96027946029304 7.218381443917357 0.41459089897798274 0.379554733309456 -0.2843493543502006
Ni 3.357685025670709 4.210187512046933 0.2660352052776424 -0.0508448505660092 0.43531630445079217 -0.3651735248871195
Ni 5.909967250086399 5.702781250763743 4.671471413940955 0.23631214843631562 -0.7826394314200521 0.7416048820762454
Ni 5.225633862858271 3.4478566108218627 9.05835985369078 0.27566571053327366 -1.0028446469921761 0.019853030170185165
P 0.11732375532378136 5.628793378681971 12.531446365178878 0.9061269451534524 -1.1662421095466367 0.18320498419869094
P 3.8708466181083816 6.14390536254897 12.570387971172678 0.9336611460179791 -0.31361390764227276 1.8765528094952908
P 2.3929669951979275 8.764777864160623 1.459269260039469 0.22855333042650314 0.08483791968200229 -0.39405446958752777
P 6.415835285737198 8.034351738084105 6.209367756187577 -0.21097881187784953 -1.7303508848835103 -0.5164965727755492
P 4.896988371222859 0.8459355637916253 12.574026585136876 -0.3550325797983756 0.693836613553031 -0.37343962155065363
P 3.848086003707552 6.280051755903951 8.101977705471056 0.3460360327267202 0.4104318825042867 1.2446386444786692
P 4.99935217070431 0.8993889891784118 3.708596730158587 0.6931161904472386 -0.23788360668849354 0.8391880172390579
P 9.05989476638772 5.819423729825466 3.6501902177001173 1.5260003769554558 -1.2634994859389144 0.2850031858841156
Ni 1.6352807470510646 1.2626652681694106 2.7336931206307034 -0.6714662162776307 0.31944054162637886 0.14534728992096904
Ni 1.9327744053455251 6.5095901481654845 4.69683103831621 0.20771685329712614 -0.5412812359193968 1.0991903102034617
Ni 5.889102597586636 5.846919713184938 9.338588465621088 0.22348440054402804 -0.3584056100356666 -0.2701851470346766
Ni 8.537144505388198 2.4398671053821794 10.429415177278855 0.7265824405254842 0.5016906181109683 -0.11899476806936926
Ni 2.5257931873290334 5.082837995467496 6.787669700888317 -0.4591548016312867 0.5467707982790584 -0.07450876984185233
Ni 0.8574446875422559 -0.09648450327053887 9.008305552343845 -0.3989333949463839 -0.017466275105563468 0.8605569698331373
Ni 1.3745270203322755 1.068896147562907 11.438999467896565 0.12251152297337609 0.2871906804537377 0.21313185366511037
Ni 4.084790950523352 7.161619610371152 1.371639533858069 0.20786032085352588 -1.0231694745924573 0.22447864613649726
Ni 5.646682550303508 7.991080263117202 8.297445027359279 -0.3647613770503654 0.49580073498909455 -0.3765043765189064
Ni 5.192803785729295 2.865950524191489 4.592260121463807 0.25788653217298163 0.2715763709552484 1.229201741098309
Ni 0.9499676283142527 7.516010268873664 7.010062403248084 0.5499067728048787 -1.0213545328709057 -0.3681290079710176
Ni 5.0343503573756525 4.898512398014146 6.8845134390453735 -0.8583298802748314 -1.0631593847218335 0.6739524730345942
Ni 8.1849945291324 7.183863144253508 9.057032680360035 -0.2522049084071721 0.42120094809533265 0.2552753198023798
Ni 4.486226864618811 -0.022850423122458878 10.461028754451217 0.5202642673480975 1.6636343573925672 -0.4155699750618004
Ni 8.217062592865732 7.168051366293905 5.0763590672869165 -0.5116413015657768 0.4074671434490079 0.2491985174806805
Ni 7.125451188842213 5.93818896048934 7.02624702347627 0.4707952140836924 1.203539046224882 -0.24470165805159147
Ni 2.562569405256878 5.447787982452497 2.260042829915953 -0.6422358586576037 -0.5088172018534205 0.5434882708730446
Ni 2.2063644291456908 5.4106851873550905 11.45710998626636 -0.5371291614242362 -1.352079132051536 1.010818152115956
Ni 0.6941288879973644 3.43946539188174 3.755226507019146 0.4753170132134458 0.4439343851371064 -0.1791380132181689
Ni 3.845273811414106 2.358585676513534 2.7157422622104717 -1.0512605764017184 0.4169318884063335 -2.2077458636719074
Ni 1.0615663044238597 3.4465503021436166 8.118534260809021 0.3972218115719159 1.0690922052665006 -0.3389217902794421
Ni 3.8854518748582163 2.7088941203965273 7.012743964673706 -0.3663752585047045 0.3809690971584794 -0.26090089351927326
Ni 4.225083059614157 6.976404997289552 5.9537694129538385 -0.2282684521962327 1.0685743850898177 -0.18095166938813997
Ni 0.6602038701915526 7.2430189698843614 11.13015906727745 -1.1555224091362875 1.0623782835814348 1.4044802713610716
P 0.16526981960943457 5.622143904646177 7.96153228654232 0.015301149133444613 -0.41794901681693825 -0.46331716053909233
P 8.938843495536915 1.738987141562935 8.278856436299598 -2.152851525626873 -1.2610363691104025 -0.4520914670266021
P 1.8230716911369835 3.279451650384637 10.634229863486972 -1.0388436907946044 -0.42590632399080197 0.00015966550631585404
P 3.981919142111473 6.217167507587272 3.786082606589884 -0.16971054925668194 -0.5368077735290756 -0.5858165993276104
P 7.004463419107712 4.124442861860947 10.342941171414182 -0.6063234610317105 -0.46068975021857433 -0.21840647180048836
P 6.457047510218253 7.844519686688426 10.4320178158885 -0.2721029328826798 -0.6755668687095655 -0.2709839887868881
P 2.5429203455549265 8.5686410590748 5.747879743562581 0.9273346895793191 -0.09314721087864603 0.9148990349191276
P 6.846363782687762 3.861530097187835 1.5459029258537063 0.501828172130097 -1.102971888733081 0.4325156017772035
Ni 5.1381202530038275 2.7150900150301527 0.5254191222018818 0.570043909874386 -0.14972202194989698 -0.28511682864384447
Ni 1.6761028932462552 1.15670004823474 7.054208379302366 -0.28964068465612697 0.4526005454525366 -1.521448238808399
Ni 7.17475526985796 0.6041605064183823 9.414374326453055 -0.5930293150259657 0.6887178042692268 -1.318732181159974
Ni 2.6513076794971786 1.796609868814457 9.086880019340347 0.9288655244015487 -0.40558638148652726 1.1951626492357288
Ni 6.627820155134799 1.700133529973157 2.404817210658989 -0.37178794487984357 -0.11138790225638881 0.987488990471712
Ni 3.9240786967469097 6.726265028581512 10.512862901372259 0.6395541980603824 0.2725636745691822 -0.8391702766272451
Ni 8.130147707822152 7.213073657753178 0.12888005133223757 -0.6504744445173121 0.8366292553729462 1.0466619012874425
Ni 7.753513515437281 3.8729512265344446 8.199963556562775 -0.43008462373820766 -0.26654446495829576 0.3233090234428496
Ni 3.1489749995567657 8.355622028640251 12.671029076084691 0.5936366095926615 0.6742013558206066 -0.6770365112765565
Ni 0.14578223417465505 4.9931562760706845 10.272957498294756 -0.727077892104664 -1.4317182811414182 -0.49102233976384463
Ni 8.668501100256277 2.353342298624463 5.801598966479038 0.19744683882968575 0.1583043643022693 0.554272248862426
Ni 3.6635880460813786 2.5209398877258273 11.379278482330609 0.41317319269484976 -0.5859266425429135 0.5416581596428414
Ni 0.9670131422477555 3.367346266936904 12.830767041305275 0.7223496333910592 0.46931554421437244 -0.9362229932078844
Ni 3.205363990834389 8.45773182365649 7.880487626121606 0.014625463222658685 -0.09872213386326223 0.9092217820286923
Ni 5.531945104730893 7.859632952368689 3.6641577418105022 1.8893083093887462 -0.23419201676951923 -0.31330177571849266
Ni 3.344286290130643 8.464345011340109 3.6617682855198774 -1.5135364401604903 0.023806358390978354 -0.46939242019889477
Ni 2.957383060080672 4.418888466572834 9.228387721228966 1.420890851508611 0.05431146895837098 -0.0858769024694779
Ni 7.254902750221183 5.987683544853998 11.477782321099603 -0.17460361568292512 0.5374855163223904 -0.7109370206787433
Ni 0.16230341031925075 0.16714491685800031 0.9416952471774984 1.5357949944483744 -0.31604514279158474 -0.6719282435157137
Ni 4.937756087889789 0.3230192927309108 1.4643411849145203 -1.4702400913657003 -0.5493668411410086 0.39504871517999707
Ni 5.96938615177051 5.3438820130036735 0.39824543658060324 -1.0178940851261307 1.5021675362019162 -0.2937531641626038
Ni 8.100011892342057 8.943742153080338 11.414715733863254 0.30961738488837 0.03769211523413508 0.9209984629486461
Ni 9.040436210034677 4.828289234970375 5.801851156626644 0.3984052903570558 0.07785248950310464 0.09429675110205694
Ni 8.137867629247063 8.434336198092623 2.902193332742384 -1.810856752849062 0.10767857172560165 -0.08127308514887939
P 8.531492906037176 1.4508190757770645 3.625202528434639 1.0772881108137318 0.8755706696331501 -0.6149484836965602
P 1.8108069041023398 3.383802127647587 1.732513656335182 0.27400889165614095 -0.18828008472875316 0.26916544752091065
P 4.76127741409396 1.250935704829326 8.390995779056592 0.15160741189806795 -0.5890438480156565 0.4816943774946994
P 8.532327492137167 1.6965502526960237 12.593132256715029 0.08311476634330847 -0.15329996910914245 0.042398776681185045
P 6.417867321458914 7.5688159828741535 1.5732800714098096 0.02602573463980034 0.30201720394360887 -0.6019155617720021
P 1.8778912976831024 3.1998031073637994 5.976128156004346 -0.5864393205132739 -0.6309224905273134 -1.0503707175975974
P 6.633244964784739 3.927208394621874 5.875871686425372 1.8793977351432534 -0.530372559426693 0.5930588827123205
P 2.3693990094612376 8.382591859893209 10.514880422553105 0.05451972831443514 0.4527129026606848 -0.5860755094159519
