# total energy = -340872.8383415798 ev
CRYSTAL
PRIMVEC
9.24910807854663 0.00000000000000 0.00000000000000

0.00000000000000 9.24910807854663 0.00000000000000

0.00000000000000 0.00000000000000 13.53700458712062

PRIMCOORD
 96 1
Ni 2.705327077889846 1.4884404435980565 5.885672616423223 -0.12326639886152962 1.089989360430484 -0.06800799260885708
Ni 2.6332580287715075 2.9682422203741767 2.434711128129344 -0.30160737009969996 -0.3140710497843494 -1.050167600447856
Ni 6.4874630502232735 1.0091701680315666 9.088704366927526 -0.11026664416775205 0.6963331547226395 1.7387326811893022
Ni 9.135676886544106 1.6482095342641485 1.0828707597916503 -1.1110243267239124 0.8479035427351849 -0.0756786217802374
Ni 1.116506065749524 3.621395725332963 6.094792172358915 -2.006295560109783 -0.1397970495267012 -1.7297240499327888
Ni 2.441385284423465 6.467919685132532 6.14274047286384 -0.08655207415963158 0.41984571961901884 -0.9407982712833928
Ni 6.023925507273607 5.7449909098261145 12.236801965694989 0.3608139623668431 0.1948885911842063 -0.8806655676575543
Ni 0.9223099454853467 8.703577061504252 0.050009926666178 -0.759771268572627 0.7874219404103601 0.19353721936263443
Ni 8.643707585767212 2.708971226420727 3.3633909342573753 -0.06669930109976255 -0.004001407849909238 -0.5486723861771454
Ni 7.993116083709578 8.104382852304754 8.924432810513128 -0.47701934061653334 0.3655432495217124 -0.5657920765765675
Ni 5.182108698424179 0.6385639620841369 5.855891413746614 0.5579247580133488 0.1995651707242692 -1.1006710085140463
Ni 1.0094661394858515 5.8831633334373645 10.471522772510093 -0.25492744954465774 0.482987128164194 -0.1854423581696419
Ni 3.3898720552187096 1.5719598883540373 12.204150764822613 -0.16350287778407324 -0.585007987383386 0.15150148244782297
Ni 3.4379396692161444 8.561640250958815 10.272650303268216 0.11783262944046803 0.2440779084246635 1.6192568597184565
Ni 8.499513992882855 3.4254348752726127 8.914970048173167 0.0841303520920164 -0.19811738253414912 -1.0266368643157673
Ni 4.046836192651412 6.93425045868201 4.232073626958708 0.29915890855920735 0.5801064363167105 -0.7543817221259395
Ni 5.723153765964667 7.433998259241828 10.272596658442128 -1.0465279468127395 -1.2666136060878637 -0.47641410293236663
Ni 8.262403861568977 5.690865130123788 8.719428182702789 0.1690785720996378 0.5760885734065692 0.758515541788655
Ni 0.2783861253462718 0.24058224643695622 2.819040235536846 0.908975470345841 -1.2710621287775208 1.3613117063933975
Ni 2.968288465913909 8.764334451604144 8.065360865878898 -0.3062952624936725 0.5401800324354181 -2.5519479285136826
Ni 7.346806918631126 9.292393771587887 2.2054349912460656 -0.014366553134317193 -0.4967846961689187 -0.19339812268160886
Ni 4.339542711831093 1.5479769514490254 7.787730392651848 -2.672070639539908 0.08811041978568696 2.5028691687091604
Ni 8.530905465252932 5.666216257446636 0.037006605804336 0.28491422571473507 -0.4996512190834363 0.6515476229768328
Ni 4.3420862165163525 2.4844768783457374 0.5898396614225083 -0.5151742544196999 0.5200446951381238 0.2609186341310861
P 1.688535644910447 7.323008963885043 12.078947440373803 0.006265521293737596 -0.028591952705079794 -0.13806849687136866
P 6.370008628411956 1.2869856234175456 3.715298218669571 0.8921036342911669 -1.3979095601220892 1.4380779048108587
P 1.2026060116225499 4.495380931619966 8.660745367515274 -0.7604029886193548 0.9129030875350214 0.06713098932054244
P 1.3194407432014588 5.5228273369536165 4.4900617696399925 -0.5094036704845099 0.39193125259693795 1.3719270200153986
P 9.13130205848546 7.198469725386783 1.630234817881117 -1.4798074233391612 0.6251663047698266 0.7909080991867475
P 5.122664681652675 4.1046801137481905 3.1434545465783708 -1.005141670556469 0.8594742782919199 -0.3964592223742785
P 3.0403575150322477 4.504324819004133 0.12793736075776593 0.5252228969049535 0.1315936877803024 -0.023191607625114897
P 1.4405578117595503 1.900081241860479 3.8612676402796358 -0.36254560034596917 -0.024933272906569964 1.5910423449574536
Ni 1.7730077477849067 1.6987096636514856 10.531234088501249 -0.8048565909470398 -1.0231458204433734 -0.03980427648113145
Ni 7.025187688011004 9.048948001330725 11.135431140188953 -0.7886429573016547 2.312288203761373 0.5903952198372284
Ni 5.263380609949186 8.625634828839948 8.017805652461695 1.0356238983057262 -1.444408732124893 -0.4231069068687939
Ni 3.5659935687340347 6.198853885863847 11.870572437627796 -0.6499072591599323 0.6463077147341321 0.8080699556780148
Ni 5.040440112009191 0.04029188894689683 2.5449022254703544 -0.2334829065176366 -1.2265709883436813 0.3321266217344796
Ni 6.919266903808845 4.839253515959125 6.808531034009791 0.12273752294125316 0.1887734794254039 -0.09704294638862641
Ni 2.8419641495819947 3.610380037768802 9.8490504084311 0.5798894352098981 1.3767959180719256 -0.2825968904354681
Ni 5.857062350812627 1.979364595177009 11.587012361296308 -0.11502935566371802 0.01682607041840328 -0.37799355946992325
Ni 6.8674811484169584 5.902031513648018 1.8380141780753756 1.6649669601610617 0.5219743080606689 0.9572289060355901
Ni 9.154952027504402 1.1270223014845795 9.283853145310182 -0.8614601983736971 -0.5204182764274585 0.1128742569939282
Ni 1.835966425576043 8.81519529620139 5.006986088567066 -0.7683402411885606 -0.8693306022607092 0.4612124554912637
Ni 7.668102430473126 0.6777718555797159 7.13876673359278 -0.16137786102127044 -0.9022715759631041 -0.5873546332386916
Ni 2.8413629575654786 4.444945545988253 7.271577449327503 1.2557681787329276 0.2691374224964526 0.39700686734763235
Ni 6.195440965031626 2.519678983189731 2.04498146659194 0.5089401005845299 0.6364413634630136 -0.8322583799987603
Ni 7.340055069830255 7.612857508709286 12.868790736940031 0.4757021644670065 -0.7208905323470295 0.48868623543150025
Ni -0.007328993136726362 2.1096012841702496 12.226392094701318 -0.013213156256164342 -0.5633040200473912 0.056076274168277616
Ni 3.814794572492161 0.06509522172675435 0.5628831363127292 -1.9802135183107512 -0.10995708334713321 -0.5738352585960182
Ni 5.2899070515394575 7.201540429224988 0.5242394384018807 -0.690745633332533 0.7773010499262742 0.07143090224747699
Ni 0.780752348365714 4.877859292527393 2.588058563148251 -1.6338560976888699 0.3212786232763822 0.1902634337073691
Ni 4.388128275873526 3.8519944846525767 11.899243747350836 -0.09752759933452881 0.05745567101430749 0.5828402903081058
Ni 0.6989495380445849 0.0775250978959196 7.393573183140503 0.557251128985092 -0.09386994797728349 -1.6985954468487843
Ni 1.801615238663118 2.4755422400695157 7.976882974352853 -0.8451637752065186 -2.071499507610942 0.9574446215908221
Ni 3.153400112353133 5.323065103527296 2.4139996007049733 1.4105125935980805 0.3653972108621514 -0.8558631639018939
Ni 6.42945264518346 4.180041845295447 10.394442556706396 0.6916558038516282 -0.2160135460882796 0.01588170422726297
P 8.782129735293015 8.469417395625273 5.6408829507814495 0.264599425416783 0.6616919104996862 0.9800716149617186
P 7.753573437005796 6.468715108415923 10.82389066249802 0.30624564020265965 -0.011739914144747524 0.42543581211228665
P 4.791176652853744 8.479896634928544 12.221830434662154 0.3964558799401688 0.07049476358645279 -0.6565777292015724
P 7.839506898935787 2.2336965654870817 10.568962124725404 -1.1931253070907257 -0.08474201753408632 1.171649139494821
P 6.310194647322595 7.543535444651027 3.4119339524032544 -2.923856972352423 0.64416007226351 -1.529656228540488
P 1.932416123241089 1.5458681548372464 0.5698588135259032 1.7951794513231212 -0.0031321178710784765 -0.23451160489246708
P 6.593383834425432 6.870912567465072 7.76680243610153 -0.3043201410451727 -0.9545742420215624 -0.17998313482728356
P 3.8961312277727913 1.721332981688377 10.06550728170067 1.3716863647595021 -0.8318976542252319 -0.5429946190660778
Ni 2.721448273040419 0.4971488012268787 2.9024422166219073 -0.3758700853690172 -1.2618308399872398 -1.4723126576240126
Ni 4.901786734784726 4.0928875011165315 8.61341953197514 0.21360467953647083 -0.5460010099925694 -2.5581142052253942
Ni 8.189160175741446 7.248396410081444 4.007413719851477 2.7193938501059036 -0.33516052346479697 -0.9484187639431281
Ni 5.2777907201296745 4.760515860011433 0.721144622383558 -2.5547887403965874 -0.4182277243996217 1.0380595043304122
Ni 6.5816097200096655 3.037490291568864 4.893031529202665 0.0009798474147660545 0.606522207306078 0.3812318639015628
Ni 1.6719889907943395 6.502733327442777 0.8250259782835356 1.5002183828953453 -1.0681542668332635 -2.4304463348620593
Ni 8.311923585513997 4.810784761700109 4.689218186495823 1.3015060470896744 -1.4693607740845402 -0.5393583078650711
Ni 6.204662325654184 5.6180099068300065 4.323313302117548 -0.34927870803373395 -0.5032024267698043 -0.18849708583556568
Ni 3.7807671043573596 6.53971126101248 8.428762016736083 0.6058856021633436 -0.3640666649761859 0.07707755901029306
Ni 8.89206463234391 1.3683870224538008 5.199576563691748 0.8911980917577619 -0.13800524773360104 0.17987514849450958
Ni 8.865556688969532 6.329192315044498 6.21700433529786 0.5886458412462895 1.2167401182961883 0.8949364757542717
Ni 6.930116107429971 3.7091512615283944 13.217910340217182 0.8628838181941011 -1.2960514517330068 -0.06139408683676523
Ni 4.680501827167136 5.4566314713812405 6.102914738957442 0.20947240253565216 -0.2016073979652786 0.6691509378808927
Ni 8.525846203206253 4.346128076688929 11.531538061655397 0.5393238550827099 0.32122642988220806 -0.7158894795880122
Ni 9.144084325667384 8.382448033605288 10.925743689025353 2.0062508229147773 -1.1903418308083178 1.5717544432621189
Ni 1.6034900973433104 7.35899724290448 3.0389359271408862 0.29853721581480847 -0.347777183787543 1.1087856672013807
Ni 1.1502375624300403 6.904699558793267 7.9854383992032725 -0.0754420802893991 -0.7738632278893188 1.2881278260105558
Ni 4.270498121011227 1.9279210567791392 3.9052628720482705 0.8066201106053658 1.5582219559933228 0.33040706794021163
Ni 6.431367210528365 7.861085067774736 5.775481519082212 0.2349263238323825 -0.9194964244818229 -0.15137035618659736
Ni 3.037647526403953 4.1980221111432465 4.532365339565231 0.8812258110363985 -0.507736567194732 0.8626027966185725
Ni 6.017303145983986 0.6843720190102659 0.1636324430553026 -1.8597321383935261 0.28562385018725006 -0.560706434523544
Ni 1.736362782101275 3.9618738870557935 11.845379717403395 0.09981922358218294 -0.11097164065457661 0.6008020169928492
Ni 1.0080140295382667 3.7512162044686157 0.6153625748005956 -0.25397948380909163 -0.5452659315987577 -1.0290197627256472
Ni 6.232862855782756 2.5192997697639283 7.377843225256062 1.9096737604189755 1.929325216101316 -0.5092476045226197
P 3.5045702428620005 7.547040856562713 1.8136205807775436 -0.25812255944318774 -0.0911648903412946 1.1569239174695043
P 4.339468718967522 5.2406925481566695 10.152414674697418 0.6045365443346169 1.3461519679338236 0.9899269104892434
P 3.9634739827305205 8.081019605632152 6.072862537418003 -0.34966231662539776 0.38564644802949066 0.41138576177712377
P 1.3219842478867185 8.594641068111565 9.34169706640696 -0.5912868784135624 0.27074770440636603 0.9727575977988085
P 8.06692396512184 3.7892300381283146 1.6481170431846843 0.45268024965053655 1.0252962911274728 -1.412284855007155
P 8.287126727109701 2.934297994210893 6.702076576279125 0.04368947046815057 0.1367142968363194 -0.6534602666185133
P 7.927678644988807 0.27481042021419405 13.53466269023591 2.948374240767497 0.2232306326620091 -1.0208433975624418
P 4.6151383813099365 2.852415641561425 5.979186647226082 -1.4971299737780086 1.2366687388993152 0.23988006829323208
