# total energy = -340893.30805842514 ev
CRYSTAL
PRIMVEC
9.03707750516310 0.00000000000000 0.00000000000000

0.00000000000000 9.03707750516310 0.00000000000000

0.00000000000000 0.00000000000000 13.22667641060108

PRIMCOORD
 96 1
Ni 6.34616999753581 1.9039585404796915 11.355114641372838 0.7911209865285019 0.7055245914139204 0.2215110788677411
Ni 4.725894348149363 0.25632404350967936 5.9009629067052165 -0.9201183743365379 0.31914897852788904 0.5073352179912552
Ni 2.801936755776156 1.5106287914451795 4.977608578567816 -0.48231787001131127 0.5802383339088846 -0.5038765700186935
Ni 3.680304513499675 4.500581938836605 5.054309867786535 -0.6138076852238977 -0.7346315360822058 -0.31353728876806647
Ni 4.853299062832953 4.598814968245785 2.5330276785263455 1.3174155192310795 -0.578833483141558 -0.057650560633932965
Ni 7.2451151800950875 6.1691246176687216 2.730726394677862 -0.20079570069726063 0.46416279636883934 -1.3338011596779544
Ni 5.1635238497288425 4.546969256219984 11.544256149102315 -0.017714900781259812 -0.26684245581468885 -0.053265544192359876
Ni 5.5647248930242 8.166888019718542 12.529021935505593 -0.8497423957161365 -1.080887398129216 -0.5140054309225792
Ni 1.7901636640932705 6.378215473366993 0.44466757732040607 0.1978247909943948 0.5252113269407277 -0.31614644425613936
Ni 2.2824674828692118 1.641485669627785 0.4028385616880851 0.975841636040771 0.08931626716833005 0.6704778842224324
Ni 0.7314375339928755 0.03829009619196828 4.675669887777288 -0.48518233604329986 0.48692734375886465 0.42501029453909384
Ni 8.710151916952475 2.12496026395729 1.3787615680290917 0.3169437433464542 0.9625557175651422 -0.046213008220952666
Ni 6.823146933342297 0.6061068285318624 4.688803472104828 0.06192913340462883 0.854362153876335 0.47524630787651057
Ni 0.7641571757848603 7.612851926435322 2.6226384325574847 -1.0050169720531466 -0.7679453197429871 0.2424115764658341
Ni 7.857585014699351 4.034576014778301 3.6459066864674607 -1.1647788947375488 -1.8646696849044597 0.12366800517532249
Ni 7.664462674453337 3.813438735142364 12.72948509357949 -0.640405233206768 -0.6452723314910823 -1.1888804157714428
Ni 7.569546252384835 8.709844656326908 7.031222021560752 1.32334679711385 0.8975875402238735 0.06139074440265556
Ni 6.758549905355469 0.8577559919943137 0.379860889142015 1.3399293840628794 -0.13275531218857137 -0.46733836588334354
Ni 2.0666620787945833 6.268080613255706 9.138033123331983 -0.07636022122829429 0.8172343957861022 1.284221548977614
Ni 8.894146809203706 4.94601043805915 1.3108551623633642 0.7085302110094636 -0.7780394707541956 0.5253853906247468
Ni 6.426175242187095 2.0955807259067614 6.825745093043782 0.4312979273200185 -1.1848525255589724 0.2643019487810222
Ni 3.4014022362571623 4.304106842941023 0.6113636963522231 -0.59323757438203 0.06053739526342477 -0.5556171929260947
Ni 5.915851491429377 5.777340208839267 4.75085023689945 1.2486444232039529 -0.9721940119858545 0.6333948633272058
Ni 5.589043667830098 2.886026759332036 9.210925284501394 -0.6123303293474228 -0.4013342910783927 -0.2895342409852497
P 9.139467307487203 5.461277470057606 12.39082966174144 1.6707450002954192 -0.6144969979814384 0.38718525327152026
P 3.984863052977022 6.159247092264469 12.770289304654773 -0.2708166099710884 -0.2625122038704511 -0.7034417407429627
P 2.329378950731498 8.46268059429001 1.589171837001855 1.1686049533518583 0.6292656716501808 -1.3182261880578328
P 6.136175434115285 7.707768348503824 5.844961042864762 1.0375038889372585 -0.8699823769120952 -0.7611280397108375
P 4.68366408628836 1.1647888832151974 12.509882309655943 -1.1868800975119624 -0.06007793912850298 0.621898175541516
P 4.058198934638061 6.101192908186771 8.261368854664916 0.7316896798450625 -0.09158346593595194 -0.18782911323426363
P 4.694192281252638 1.1098976761653943 3.751534756167858 0.3689268212819647 -0.19605021559247526 0.2507126401323618
P 0.2382101259247888 5.555272110249407 3.4406023661254417 0.21209595620142827 2.294452204021216 0.9796227003497578
Ni 1.6361537940664772 1.2122606498652821 2.7644681299037175 -1.2131436591941818 -0.3266154621082633 -0.2345460576748283
Ni 1.7277897571031915 6.647990302614724 4.852906853681493 0.541967463353144 -0.7414413599151876 -0.3752640763539021
Ni 5.921102033295683 5.36036946579055 9.208187050102959 -0.453640813791593 0.9845664175082786 0.3259289775641999
Ni 8.585358917586204 2.3020598662877125 10.189024419037594 0.34902056927634084 0.3368931898851875 -0.458559591249449
Ni 2.4985711104921853 5.116512974017108 7.113134089505996 -0.921463832620839 -0.21749347306791575 -1.0248592035900546
Ni 0.5194448727984428 8.72491850113413 9.160755950300375 0.2923298014525159 0.20336577541728204 -0.12040887480807648
Ni 1.3591493030407016 0.975697079410443 11.434977100204007 1.3968196694920203 -0.2873038089928342 -1.5951933910113494
Ni 4.154606474448285 6.795321772574048 1.686652077878396 -0.27709755788379375 1.4065204417195518 -1.1393630257676055
Ni 5.729018956930262 7.886476550579862 8.240853785661992 -2.221423104048684 -1.5853769191415599 -0.3246706796770667
Ni 5.640274858604765 3.156217294132005 4.390013299018637 -0.48604494115391134 -0.3919636484967701 1.2750311407275976
Ni 0.43620164337831596 7.332404308987753 6.738462290105173 1.0084833333351924 0.5735835475965283 0.9268297249184425
Ni 5.345846882693903 4.260150499330512 7.101904617349248 -0.5692113866707617 1.6447676023950513 -0.20442095615467373
Ni 7.887651370618794 6.906839305500385 9.189630315734165 0.18231872493899567 0.6377855361957339 0.4550888590920291
Ni 4.4694853561137915 0.5897379705586474 10.29754887198782 0.36740935619617365 -1.1687926438826322 0.7384925616995088
Ni 8.186597885140934 7.394760141823387 4.674307096532126 -1.0605245182021477 -0.7395238311775005 0.008404164903295203
Ni 7.356451971476973 6.197202816599202 7.007677724272827 -1.0189538938492129 -0.7505458933196171 -0.887807320908658
Ni 2.261040572774532 5.4527826174684035 2.728888253170794 0.3086845886614555 -0.24778801028639907 -0.9698195982164072
Ni 2.457244556353438 5.139006259224049 11.40640728427262 0.12731074413423232 0.43557855697324344 0.4235326815523028
Ni 1.241242556518018 3.581493111148251 3.85937239124917 0.1021085338369919 -1.245385549947023 0.7414133348907296
Ni 3.562298359127543 2.513274435133283 2.4662328333589922 0.8337100248436223 0.6754815080846109 0.4094772319005012
Ni 1.0940285685625866 3.2287940613063495 8.104579179684464 -0.3792773112783533 0.26449478151811867 0.16782593063945936
Ni 3.8323443006919504 2.5346019373785147 6.826261110153189 -0.4457318433571614 0.36092194869961713 0.6391811309916798
Ni 4.082409264517287 6.825234498180707 5.950562905041213 -0.6081335176572559 0.5492405999757896 0.9636463795261597
Ni 0.5529019400917883 6.970794701004411 10.979793979827436 0.9174791369414781 1.5915390820882138 0.5198228089353046
P 0.2809853235423114 5.640591156307555 8.072306873214995 0.3323063418454535 -0.9386884240292415 -0.3259778285242644
P 8.418733287756721 1.4292770222877333 8.149206074424889 0.9319765592267046 1.040594097826808 -1.4572801887709224
P 1.8255438214195758 3.02543271256718 10.22533178048693 -0.4679765136879747 0.09754636838760619 0.48061734238043674
P 4.051204236867803 6.192747537528482 3.733665743375699 -0.7001134477006782 0.6153714301665918 0.9566563213615717
P 7.085981287283106 3.948253853148449 10.4135469878011 -0.4826040337931624 0.3596847338584063 0.35469576528424723
P 6.298662082576835 7.842014130644888 10.489163827753112 -0.6038767992634309 -0.26854555454872464 -1.1462124445892712
P 2.2933029384590564 8.383488686588754 6.083926668445357 0.8024132716128696 0.06304267818378174 -0.5057653024009742
P 6.898308304602292 3.9660388211224387 1.54651592880367 -0.275996354399815 0.7242656194668494 1.0985531908400954
Ni 5.37387989623827 2.810910573458153 0.544523665798757 -1.519019060541616 0.85765522280531 -1.2943560663084548
Ni 1.3430633055845524 0.9606955312210006 7.123940626448729 -0.5094836317928259 0.2714884392271324 -0.7086441108795086
Ni 6.805226409209968 0.57679777968367 9.2291250543199 -0.1932330578586543 1.3222167972744647 0.30116436902501037
Ni 2.6612927229615226 1.3776933855013858 9.056807873255652 -0.30338271683256784 1.09281217459126 0.42431763934744343
Ni 6.366358828050998 2.0326555572061062 2.4498449975236096 0.5759301934518338 -0.4222005930044406 1.3248195250046344
Ni 4.227354946089858 6.942870132386714 10.663742989246163 0.24870460856339752 -0.3246166865106797 -0.6421643819897199
Ni 8.20327129261655 7.112224959537406 0.22354656442347 -0.0715813117824122 0.7753747794378388 0.9196872003363903
Ni 7.757589755231773 3.9548780307525826 7.979389452628123 0.45766818978343116 -0.3882890278586603 1.0993137231552037
Ni 2.9334262293643407 8.394812144348617 12.489818190806425 0.8929086466909655 -0.10668046947839048 0.7815441414733444
Ni 0.292034054154608 4.758834494625578 10.207158218192372 -0.8835171781737365 -1.0415106961038063 -0.6751053556921147
Ni 8.78322572337406 2.5947707975262904 5.86739287594659 0.2483927337499335 -0.9499192597480544 -0.01407576136677576
Ni 3.3958625079197353 2.8429018268260005 11.726003520248298 0.8698221971851471 -0.7188146236546072 -0.2549395337295158
Ni 1.0157674798152547 3.279419767907106 12.293044871362499 -0.4472253971835524 0.8198569210106137 0.5747875952069584
Ni 3.089406182225651 8.333378093389683 8.147856838795562 1.0256061090584077 -0.8613270152299425 -0.37395461351385917
Ni 5.643473983941551 7.871836485479321 3.455561440051938 -0.588195126862116 0.6577768917159962 0.07144838574897372
Ni 3.080152215149754 8.421851079398504 3.952726302665892 1.1246210915717407 -0.4486683002776661 -1.2084305699892284
Ni 3.3966577707153207 4.043296794298067 9.209522730116454 0.9291007803408062 0.2203006034994077 -0.12756888289162546
Ni 7.262177181891273 6.14645059091733 11.509562809644926 -1.065135791721914 -1.0006173003235541 -1.0545299911816097
Ni 0.5181896227722298 8.992705173392899 0.30621593943996456 0.18184461351605458 -0.29497546660547913 0.4818710122818798
Ni 4.4647589647263946 0.32717472893451566 1.5939334729904198 -0.1347949683264195 -0.07941623444579872 -0.5492439424098993
Ni 6.060598357303052 5.737089066890005 0.3951019198778551 -0.24303249787928466 -0.013038578351513029 0.29090772429400863
Ni 8.011884071197267 8.884992249977257 11.21062623590773 0.48741071115318635 -0.7332480254711178 0.7064301339473252
Ni 0.11360961630335831 5.057862342842722 5.621972066105923 -0.17776324435782934 -0.47005370793197754 0.9086455978102481
Ni 7.799991721560005 9.002546550488262 2.574876575728556 0.7882889163963456 -0.6731734287767245 -0.5826047772585321
P 8.527042658269052 1.6738112948528665 3.7292746275532593 0.4110931702373694 0.7004399778021615 -0.11610716210892907
P 1.6461307273201788 3.446768363914391 1.7180125432561086 0.5619937858763998 -0.8734163422943086 -1.1138643672758688
P 4.766154527175848 1.0499366687937377 8.0432210401742 0.1904902050061945 -0.4885232274910748 0.9866847494028621
P 8.591278203166977 1.5624293180848683 12.304141498484073 -1.468218432949981 0.9238652429734799 2.032135661101339
P 6.430883559420046 7.893209173110666 1.2799573953394465 -0.6351892362234673 -0.878343604392597 1.2069807249165794
P 1.9177310461668662 3.2661081531582816 5.987676373778806 -0.05099654565252507 0.07625454888836544 0.1502465269947993
P 7.116436237523118 4.0207131383189 5.90998281348105 -0.8734636505924764 0.6940325316139209 -1.2841942952841043
P 2.4090136752166584 8.233193055300433 10.393720544082534 -0.9216546084754064 0.5154156810065446 -1.0395335177727776
