# total energy = -340896.56305001286 ev
CRYSTAL
PRIMVEC
9.02572142281744 0.00000000000000 0.00000000000000
0.00000000000000 9.02572142281744 0.00000000000000
0.00000000000000 0.00000000000000 13.21005563620381
PRIMCOORD
 96 1
Ni 6.529225063279222 1.8693803824584432 11.39479572444681 -0.41749701688118424 0.29000038198839084 0.5217845606473659
Ni 4.614336992469 0.40928488493533505 6.0126234458426 -0.028183404412751464 -0.3467963079315124 -0.27653371496052376
Ni 2.637370008433165 1.6790008365631475 4.76204021888121 -0.36178172559675115 -1.1761357145112648 0.39666568195812973
Ni 3.4478707831855306 4.436801048423086 5.028645594051816 -0.4236404107747607 -0.07682764778301608 -0.9804212849916535
Ni 5.126167613463188 4.556283551080931 2.504098008301332 -0.5407474749031138 -0.5062432704786571 0.12432517914334716
Ni 7.1520991372269895 6.10664077755326 2.5476778025174625 0.05518307293004689 0.4187445161350401 0.10966012093200468
Ni 5.083530104583021 4.548638764878242 11.641705169922602 -0.21097701210563666 -0.03386579950950942 -0.517002051657058
Ni 5.70007714768299 7.8911884026102 12.530213451395865 -0.7978727034300388 -0.4591532589693899 -0.8875476394893682
Ni 1.7999996604512778 6.511931780676681 0.4870848000592278 0.9021998421849042 0.7399889437393772 -1.111914956858982
Ni 2.5999222894780813 1.563769448783067 0.40768733221057013 0.564295437426383 -0.08009140613595238 0.27275136509995607
Ni 0.42520986814197514 9.161378204622478 4.532779669439346 0.4986284342458768 -0.06723331922636162 1.043361633269616
Ni 8.57791945694052 2.287632321812162 1.3606618302749829 -0.015479583692837856 0.9554553590749352 -0.6564201205777855
Ni 6.812470258807889 0.8025121085563801 4.786730080342196 0.07412593258113685 0.3560653919382642 0.5508282561778837
Ni 0.670501904305463 7.448991223828225 2.4360133799171964 0.4826796242261041 0.10715689489417672 0.43623547383095196
Ni 7.439387856036416 4.013711322287028 3.711695333528453 0.9829818466299781 -0.6908667322914296 0.7857031579470404
Ni 7.585017874195075 4.013855733832769 12.591323002120687 0.3162246057922425 -0.8822095151059065 0.13997728385830732
Ni 8.045889270985745 8.842797308995195 6.776705836932854 -0.39547037609844793 0.18580488371538326 0.3980095975805339
Ni 6.8986388230074995 0.599444203223375 0.4239859802918162 0.25206324062298524 0.5443902138620237 0.12397602333404453
Ni 1.8761496736650742 6.346102197557435 9.177329362421782 0.31657761825628705 1.0626127681897442 -0.07510243756179323
Ni 9.083756998786438 5.183462894236115 1.3826963244386479 -0.5744363825151269 -1.9909255054116166 -0.31875200019978656
Ni 6.37575169304248 2.139086995573847 7.133747137479731 0.2299836351151265 -0.11424825452331937 -0.24371512576860607
Ni 3.416298808997803 4.3254687723780245 0.531213358149176 -0.5999707793408054 -0.18707398023579394 -0.2975547972968811
Ni 5.636175038692392 5.476600280648072 4.708381401344486 1.1462229861122324 1.1573903155829615 0.5735465237110058
Ni 5.1642381072092824 2.6382455034292223 9.506101200317607 0.20566202765062644 0.6143465884465033 -0.1824249114995568
P 0.30177770970810114 5.372560787662954 12.278839884012339 -0.5164708617439363 0.49945684368444304 0.4889027223176806
P 3.751017694861693 6.127399937253594 12.578047068206242 0.9545924968540076 0.5364578463888244 -0.43099248026445774
P 2.561960104391294 8.538522182117928 1.3066816970489838 -1.328303626898493 -0.05830464927816411 0.4305258250406843
P 6.296857860459595 7.736668048666832 5.906322107022307 -0.26446855626587357 0.5812107251244829 -0.26646707475314113
P 4.8443214047838925 0.9952753475285706 12.603700876735052 -0.44966331720108366 -1.3573714907987269 -0.8861800697178802
P 3.8794898162419442 6.220861284513149 8.190287278144798 0.9883518526926398 0.32118683489352423 -0.16270506447312624
P 4.614463352571523 1.2161257295753156 3.862396002086959 0.8446531541186871 -0.4069362106462024 -0.7490446261837422
P 0.13526036660226093 5.606444311712868 3.608339990241286 0.18905398678030022 0.24326775381854232 -0.39795097642845656
Ni 1.285840403282008 1.0679414322013543 2.4988269868817685 0.6744731214247546 0.4694677535215205 0.31021928013842703
Ni 1.9241845640673292 6.435817870349321 4.754153543339403 -0.08713262925344994 0.6406224914238967 -0.4716596189665167
Ni 6.025562720341036 5.5593210191931055 9.096484168827066 -0.30147444406626145 -0.26985527449908364 0.21397209017821858
Ni 8.666714506128304 2.088136797091937 10.232192524011925 0.582870372215093 1.0828884877196447 -0.04281143873857143
Ni 2.326099947309045 5.245225907205419 6.950154031662124 -0.5267442186454864 -0.09683931501825259 0.603282874433174
Ni 0.5829948255912611 9.070940474101883 9.151226975529013 0.2236085848267181 -0.9564202940913658 -0.2538686692628402
Ni 1.5229370842246677 0.9485130838731625 11.364637178263026 -0.2742379769478116 0.5889181210710696 0.19271009547564877
Ni 4.284816922251802 6.744298983496308 1.4547044340061468 -1.6783410674751225 1.3486536513097547 0.8135376636608054
Ni 5.5992688630338385 7.8349040026574635 8.190776472255997 -0.7825759251719684 -0.43044869194584573 -1.2413556028520234
Ni 5.306564711259105 3.055694153559755 4.869754985705447 0.08611678639442588 -1.108100725319214 -0.28872691459260597
Ni 0.8862094301794898 7.389123612396778 6.967683788170816 -0.11497356272511812 0.17547316277207198 -0.3296223672553871
Ni 5.038148776333766 4.554333995213421 7.098304933866133 -0.26921121315718155 0.40875552324312825 -0.004558308794643763
Ni 8.125532238462164 7.040288497936659 9.164027253914671 0.23293834686807624 0.7695257768562296 -0.4592478755657252
Ni 4.59587036605731 0.25893712209173453 10.414318950068097 -0.03695883661253635 -0.06504711020832024 0.42512676551230005
Ni 8.096234746119864 7.204412219671834 4.627931534356237 -0.19989735725270735 0.051059537679976584 0.5448039043606746
Ni 7.327658448240567 6.055708630514566 6.852795377811872 -0.6522593043318766 -0.043707211079963434 0.3934386903803998
Ni 2.2418719132553355 5.311537883865578 2.4869518449610157 0.0057975805183835645 -0.3084246501318495 0.597030722875875
Ni 2.2669363421630884 5.140211636286546 11.275945022301583 0.6896431442969736 -0.4843693532237013 0.4151701685202205
Ni 1.171773333589468 3.581090434132032 3.8422632274662774 -0.7939198894298779 -0.6475819534608653 -0.24519839518235192
Ni 3.449865467661085 2.875134592774879 2.8862118609054104 0.018829474001677247 0.05020824542327482 -1.0840202873312428
Ni 1.115705550955344 3.268475540488195 8.262255674537217 0.826037853010345 -0.016454031790965207 -0.6113594807937213
Ni 3.719617209384533 2.5962849236697183 6.915279545937721 -0.5302892556842673 0.10966783424148854 0.4315732924685922
Ni 4.1189512362461205 6.973362772207099 6.0250004178848044 0.16418139190833658 -0.2111572464372428 -0.2957365131412197
Ni 0.9660951895671858 7.273585350081996 11.473937764373938 -0.2637147088189845 0.13750388261715027 -0.5698611044396186
P 0.14217136163815092 5.568130123483335 7.898820552802636 1.070754423460272 -0.626552900704708 0.35147263036125914
P 8.526788744026433 1.583084493025988 8.05736818372787 -0.42158198558383525 0.11584799491027145 -0.44261000989872806
P 2.111702956212622 3.1459603953697797 10.275957345521038 -1.6082985609347398 0.16228031823088182 0.860002382881248
P 3.9150872622672153 6.149720546792261 3.5797004730042707 -0.20232884951233543 0.33424752473222435 1.0503547767579975
P 6.797794435471912 3.944574294763301 10.431611330098477 0.30131452144962945 -0.24498910738502327 0.006257807984253739
P 6.400391913034618 7.851285687377511 10.252734163821488 -0.979000750495043 -1.0716805348189673 0.6475649841800009
P 2.366778874600094 8.497644688951484 5.570099535938384 -0.4805381524030692 0.2761372508530534 0.9511670161122264
P 6.934136986095073 3.95026952509848 1.5232908925117343 -0.08019887824809414 -0.16600970336632698 -0.5231834978774216
Ni 5.0693867988219665 2.7024996155625662 0.4980465389531659 1.2886932115957226 1.0344324491007864 0.9624886117726327
Ni 1.5191823840353895 1.0228760042084082 7.000906566840801 -0.3554077037496073 0.4213472438652099 -0.47193035612940015
Ni 6.728386636299921 0.6658554628212313 9.18944368596517 1.1713622043820213 0.6909369234077326 -0.30588105777438934
Ni 2.801331267179381 1.4616975631086775 9.19447642833426 -0.3385482089901073 -0.2860938478451331 -0.30923763295144807
Ni 6.37216848156377 1.944014074441954 2.5939526772059933 -0.09498040743264287 0.6280469687517313 0.1389285308788188
Ni 4.28039431866347 6.832967672581568 10.441228236472696 -0.15030643369845728 -0.35687323255154024 0.03799139164210876
Ni 8.133718567961383 7.073701719332591 0.16345220804747762 -0.5350748499983689 -0.02337492728051458 0.2762894601602016
Ni 7.83485887404942 3.717640576352197 8.551199710689707 -1.7996791389656877 0.09704320349894255 -1.9109060901641801
Ni 3.051000778323157 8.35611234840324 12.282062969198856 1.2097917120028132 -0.3097544246868666 0.9857753502147152
Ni 0.15107974886607758 4.8958853523352035 10.014120259076382 0.03923631979280339 -0.592350029570754 1.3639468300233992
Ni 8.682861522086522 2.3176338204399514 5.87461745472693 -0.13672895212433875 0.6576833035609254 0.045063467997541753
Ni 3.751775855476836 2.6077566158345555 11.602365659718306 -0.6614383997279835 -0.21424334156173425 -0.28462883326383237
Ni 1.1038457527613261 3.2190236117933524 12.488020910591013 -0.44494071491443365 -0.0495623843091598 -0.13215495960041113
Ni 3.0248803399871695 8.356717071751032 7.861674292949288 0.557195336046492 -0.38238731766224465 0.5291525709766629
Ni 5.66477755047081 7.98125607854483 3.735975427228398 -0.7879415603592559 -0.5118156223601121 0.06214973405586716
Ni 3.1949790894273984 8.416837403387525 3.5052491005972586 -0.15578314054231235 -0.15666682869884632 -0.09362980694201939
Ni 3.57051228840647 4.323744859550736 9.16509680192532 -0.024153714428068077 0.044629722894232816 -0.009854524196576578
Ni 7.211795259947868 6.017917934138346 11.251704641776717 0.09696401352157495 0.40997885412726814 0.5210368838480639
Ni 0.4574948743368015 -0.01842962095309364 0.39699275467625367 0.6399257224671883 -0.22504043217723826 -0.021754103847639955
Ni 4.694629811901255 0.3688126466691285 1.563621426948682 -0.9888264783362131 -0.11413692575643569 0.5156077424126927
Ni 5.942887110404046 5.618015286815402 0.39610642881426544 0.8806162024768576 -0.31024190584624634 -0.49528188637114706
Ni 8.130830337046552 8.637371885177961 11.25224618507325 -0.3859809485507739 0.11129534254258254 0.04715711730177685
Ni 0.13133959313538013 4.8774819059747765 5.710363762600586 -0.49821757196070326 -0.3131750203326413 0.38038134297580944
Ni 7.804225574909012 8.84408798718526 2.684415679747091 0.16345145572084754 0.45890000530800323 -0.3888166182273562
P 8.45785930809971 1.933192234232953 3.64151041972594 -0.3664631902328205 -0.9577976340548665 -0.18395317521862514
P 1.621263295431388 3.281508682491362 1.5619038321265193 0.7479776183718087 -0.2399934539426448 -0.3241803703042094
P 4.680278914543197 0.9779820649260303 8.197791263090387 0.5971430800840232 -0.15240368254711817 -0.6997396093010271
P 8.4803062777409 1.4292861968113273 12.328298130712309 0.7120791047029865 1.3226315162143802 0.7153264079956906
P 6.211564791256043 7.795263033351432 1.550054864798432 1.521941890615366 -0.3946044285537269 -0.8204685864526837
P 1.7773631506563032 3.2948667504724485 5.975595422942328 0.07960701030036613 -0.46861774681639934 0.7962891609930028
P 6.847571290144674 4.025589171924263 6.074511916342265 1.1918682947551733 -0.12723129704654862 -0.3509851492018794
P 2.4377571493320245 8.34411716438509 10.153209336785114 0.15521209853019077 0.15656655567555616 -0.473571748387565
