# total energy = -340863.4640466413 ev
CRYSTAL
PRIMVEC
9.32094439037560 0.00000000000000 0.00000000000000
0.00000000000000 9.32094439037560 0.00000000000000
0.00000000000000 0.00000000000000 13.64214429081463
PRIMCOORD
 96 1
Ni 4.597043114968617 5.145114638727282 9.198256420408827 1.4977557802874657 -1.03231694541968 1.5108149274642688
Ni 6.627657431438751 8.371168022146737 6.371222408646384 -0.4796524073640062 0.20747696937217816 -0.4784157067434277
Ni 1.9267230715073103 6.223529250220989 9.14989563309812 0.885821657937197 1.8090628941734328 -1.154349728984425
Ni 4.115616342823463 6.886807645300353 5.109610229864201 0.3870944933299269 0.21773901341981855 0.45183718492395086
Ni 6.320886513242405 7.24284907496929 4.061388953181913 0.10834808698880051 1.6878430934282866 -1.6050510005317196
Ni 1.3793972232911742 2.7871114753098793 10.513413695711144 -1.0981456709890312 0.2790791070901968 -0.40899900671250206
Ni 0.8458001939074214 5.371231426054858 3.119617520667751 0.5944341657932923 0.42015296644679256 -0.1912003436993417
Ni 6.246290996156681 2.7259287970453916 10.020359045574683 -0.2999590358629995 1.8452892234953187 0.3982098865167981
Ni 3.085885023312604 4.608759541930601 1.1971075159757283 0.6260299383217024 -0.7762340421143407 2.867788925714261
Ni 4.42209831174708 8.719640845059006 1.8390838249939008 0.10456625134886507 1.1670077840680675 0.1826866498013757
Ni 3.166958596674048 1.4559874224531633 5.115667911552819 -1.3735486147792215 -1.6039569961365925 -0.9887550016683296
Ni 8.795270986959988 4.68089432972598 11.831368186392375 1.2276572794293246 -0.4121614636008838 0.9125084231997639
Ni 8.053230612701022 6.601773169168721 2.3007343496567625 -0.24293788128294938 0.23445838305702849 0.3956570381879573
Ni 7.199795633332533 1.5777003128824256 8.213089467602773 -0.19904426522379268 -0.3879537560064286 -1.6371116285116902
Ni 3.6624786365729958 1.9310573105982587 1.8432176637827948 0.17850963560555064 0.10069802664271044 -0.8302783734542539
Ni 1.4173800712387348 0.45708605824815746 6.85699180873234 1.5635153431817783 2.4812425915783205 0.5711862510089454
Ni 7.319168966747112 4.532355761654244 3.5419504381619253 0.3652933382944354 -0.09546583170949365 0.3005115659323599
Ni 6.967275357283492 8.715297285023777 1.7242581802943198 -0.26073531447568643 0.6436147412830012 0.5457405572423311
Ni 7.062777752392867 7.026640451413066 12.116884555343367 0.4028651259006223 1.1997032174185596 1.0374139003266132
Ni 8.70212679075386 1.351080194563643 10.034520356221732 0.5927922593144951 -0.45528863380766105 0.4361531985297908
Ni 3.5199147937857718 3.714191235447368 10.856472914184655 -0.7608315915163413 -0.4254808064176091 0.5852249884901985
Ni 0.1416131064704999 4.8599589903199885 8.370315155744969 0.8143059092853976 1.118529633962022 0.016757421963996946
Ni 0.6773530209445947 1.0633053608132177 4.00201826648577 -0.22616066182461053 -0.14878485484760826 -0.14305052346699235
Ni 8.742672898378864 6.604653340951739 4.547881658544122 -0.4017209849938501 0.7116309614219745 1.004743406676786
P 1.7256423405201387 6.01806767542146 0.6557181771725499 -1.963738403473863 0.729643595949311 -0.6434108528023113
P 1.4309140823356326 5.032965037130951 10.696655071437743 -0.2028034751559088 -1.94414891137771 0.8242133982070967
P 5.18175527069829 4.711709371520982 11.421912153423243 2.519729177689293 0.3459221328566752 -0.1976576692889112
P 3.172774865905772 2.251548658777135 12.957785660936372 -0.967244124179747 -0.7148497254695882 1.7527709044499233
P 8.570216787280517 2.226587169990984 5.536145961134954 -0.006704151493052971 -1.4676412202902724 0.417590605036255
P 3.025196355095042 8.208060818162844 11.508485083910836 -0.7864351510170585 2.956123288585296 0.9565624760961847
P 9.020343828528024 8.393258660094151 11.851858418206637 -0.3546111759902409 0.6516867196578583 0.9863926720837399
P 5.692776040937556 1.3479669991735854 2.094260520308252 1.2706078148489215 0.04958758112014041 0.18543438774984194
Ni 3.6231256098160385 1.5523659863250099 7.44570451374768 -0.5951386480594848 1.9637121782216183 -2.2167202992563757
Ni 5.0486987910783085 9.24969498352132 8.063066073106976 0.7669999251105822 -2.1379771796182023 1.0888688736727956
Ni 0.3545370292618848 8.538497613890197 9.189539473316664 0.4993133761280433 -0.2751255217590875 -0.42364735275329624
Ni 2.059872760570108 0.4772034522911562 0.8165231079188846 0.8324275585867729 -2.254350193794008 -0.8252914617626238
Ni 9.158442939004358 4.716873174652995 1.1130586971995953 0.13428486145922033 -0.7882094693086619 -1.8177197985174822
Ni 8.951247668568449 6.980017088116452 0.26610363829568234 0.6870918386300296 0.8988216697412907 -1.4733709236851982
Ni 8.925372727242701 6.726813636706518 10.5061834392319 0.38711480504490103 -0.05250886853199344 -0.530538652690912
Ni 3.657902052930725 6.624385779995906 2.6726055389991576 1.221296370208303 -1.3174057490390667 1.4045401780647295
Ni 1.8017851343566105 0.7623768104925843 11.66180995687118 0.2616459992154139 -1.1203342912709287 0.19990738455503637
Ni 7.232670603813771 0.43036104680392545 4.508824105720891 1.856525201420454 0.2856130515539726 -0.9174652529844071
Ni 1.0641535667428443 2.292588776449064 1.1899192037457509 -1.184639638217218 2.565178054050711 1.251234295418316
Ni 1.5287094297382837 6.7304674468649095 11.993436105088866 -0.005745130013893331 0.11238806138612904 1.210638890494457
Ni 0.42764678782912063 2.5040064346445408 7.532537498580729 -0.882868488846144 0.2859200412714301 0.0444803418005621
Ni 4.225799225176374 5.6419675736584995 13.07242115837261 0.8998585956462373 0.09844111228773368 0.07195797839554059
Ni 1.6082543682375432 7.867631970165604 4.575998286969598 0.5040874004779189 1.34483659155651 -0.7132872660784747
Ni 8.85201689574643 4.551715362927148 5.799057176014185 0.41881984945766576 2.1079433522602726 0.8819313217438552
Ni 2.575451472563081 3.896993594698302 8.759184019079308 -0.04709695348780276 -0.388238377126383 -1.4948943995792707
Ni 8.613754918019916 0.45983387262237607 0.10330682175636752 1.167894557548395 -0.7161779573627086 0.5701526675381083
Ni 3.7227665041864486 3.51585086207899 5.517851743793438 0.0060050685434993355 1.0128007297636235 -0.09362775005949037
Ni 3.6189218639450327 1.3836662157721515 9.56202398079279 -0.6069942618464901 0.17034406907562274 2.097236250255414
Ni 3.2494116697891693 7.512140476209283 0.27764762778845625 -0.010567233992885026 0.8796517816810593 -1.9481845148996644
Ni 2.3330230327426875 7.796513165296919 6.98447809204963 1.3556370246061231 -1.8576356608758133 -0.4278004556897213
Ni 5.082878693758972 3.825567198668325 0.5258774233297233 1.1055123957667479 -1.8735194219856057 -0.12591412089702186
Ni 9.182407086752377 8.791822237575794 5.859955565478084 -2.5136726870825674 -1.5509015110725097 -0.6439749528358973
P 7.619806703606159 8.633608529339746 8.686771467144336 -0.23413185295554514 0.6244304550450666 -1.1493836432284013
P 4.183360965862205 8.930014557494943 5.996608997496339 -0.3155661462726371 -0.2144300036512436 0.15074583522872104
P 4.19613065952801 4.773097110559665 3.7343729440059095 0.6632304586313996 0.24305178115299433 -0.14671331703056023
P 9.094473298399668 9.15909540510407 2.3320154386658456 -0.07696160225771907 -0.9622957790355362 -0.770628523002105
P 5.6403457293535 7.385319708313697 0.6293771886327201 0.015239185547257625 -0.5464090440642654 -1.453960123258754
P 9.233681601245513 3.4695071271108247 2.8438145077526253 0.6790931366952692 -0.7048013400946508 0.7988432948734242
P 5.48339034859547 3.072127309552948 7.614212272848336 -0.47240780998645093 -0.4560921035455629 0.07151112066610911
P 5.951133974535219 0.6014600284148702 9.991684092586738 -0.7661560890530483 -0.6137804315303881 1.0571581728330761
Ni 2.1478717955327875 4.103536399034497 12.919369389079717 -1.9605813459021202 0.25265048058502293 -1.8732502274846188
Ni 4.494773714310792 4.970962115769681 7.024845237544427 0.6535661960687583 1.0857475544349946 -1.4715603528390206
Ni 7.2586760383594635 4.6092815148103705 8.29799767744167 -2.769037738385276 -0.23618462171951585 -1.3015731528821841
Ni 7.94524747319857 1.726854063276748 2.460483217415991 -0.5431789671627419 0.25456235289575513 -0.36672544275527164
Ni 2.6550616576723116 3.438542950207317 3.2346202633086825 -0.8155716633716987 -0.11892920493875646 0.14876377180168573
Ni 5.734785536814771 1.123639833148079 6.04301984326333 -0.6131281426583699 2.2484927065719664 1.455399426808442
Ni 2.089653177549852 5.699943847090113 5.069584230930111 -0.20171975517342677 -1.4411943389526534 1.4086452013720385
Ni 6.348392619817436 7.261257939925469 9.766124697727202 -1.3791968142039344 1.618138429843297 -0.9626863296057357
Ni 7.790501156235282 6.8562163061681085 7.428788864065414 1.2826004684344234 -1.7231769928428904 0.29569280438747786
Ni 0.18974180226859283 2.3764959168721163 12.601685509318463 0.2684787058665312 -0.14543213632529148 -0.371100946115148
Ni 5.551321390519843 2.494993081524224 4.163513879203372 0.10398723891694349 1.6296551722336448 -1.5314940530801755
Ni 4.916434591722263 0.319343007843382 3.944312300438323 -0.3085899720651202 -1.8461248320227366 -0.11279429568561221
Ni 6.194345373675268 1.6455474663082645 13.586170169003102 0.12685925841911055 0.8266088950224668 1.503124757908863
Ni 6.90728575988705 3.6039431064844853 5.904851757799314 -2.5350706931423694 -0.9862214366131983 0.5422176316907372
Ni 4.630188392834022 1.7289978804615183 11.587228421201877 1.3083716638612564 -0.6921070324564338 0.7564414328684457
Ni 5.135001414181735 8.489655865854562 11.896618524741356 0.14512540371815008 0.3695040339416733 0.568606148986595
Ni 1.155275118039863 3.312150945748686 4.987622371578631 0.8048187957305688 -1.6170757929067376 -0.5086318253154917
Ni 5.7320172163631335 5.7432862379996 2.045612647913673 0.18481655166018493 -0.7870450166869156 0.08257689156196746
Ni 1.869399264175409 7.5772099882392006 2.160233231839059 -3.523959906395718 2.2128960404142792 0.286231658974578
Ni 7.165578446874743 0.5689597598937526 11.92537550203898 0.46355293069898235 -0.8141315884910624 -1.8737513354907538
Ni 3.9951897427050627 6.57936561911573 10.92686654958823 0.23383771875389406 -1.2981767256061256 -1.5567818811126866
Ni 2.787549559691115 8.453378750710536 9.188338935693194 0.864673563104672 0.4888860101471322 1.184006118398277
Ni 7.106548906739307 5.345524261726177 10.515364569349286 -1.7328589960173446 -2.908162958655933 -0.08198888026898138
Ni 7.064539410862091 5.224771428557919 0.011737865133831404 -0.8042122724948215 0.479720027377148 0.15582067864846713
P 2.6948434478662224 0.2860737614190316 3.2446607844888327 -0.09169119515840983 -0.43382557883787864 -0.9208791637619624
P 7.802487890581432 3.2801614649742006 13.355999703007452 -0.7145476208481372 -0.4464067579369989 0.27135011387705527
P 1.5681743078266204 4.258963144930343 6.888477958515617 1.8770626592521735 0.2355657571885943 -0.9741956157969157
P 6.554665116769464 5.752672428891181 5.354923501939753 0.46604587232416517 -0.9729419458954729 1.7930927439974214
P 0.5294986101831288 6.6582394496267145 6.668526043735898 -0.14210564305521978 0.36523831668678386 -0.605628234736899
P 4.211789845921115 6.944159415465098 8.176419008610063 -0.5735832904862121 0.777854608436899 0.3159618390491591
P 8.428146954540217 3.418102119397746 9.542461182934547 -0.2681236365199576 -0.8607315477377886 1.6240730501601772
P 1.4504134977727603 1.0960498380745134 8.97279303127539 0.9281751832027433 0.3271975598639784 0.33303396404009744
