# total energy = -381166.212431786 ev
CRYSTAL
PRIMVEC
9.34154127115958 0.00000000000000 0.00000000000000
0.00000000000000 9.34154127115958 0.00000000000000
0.00000000000000 0.00000000000000 13.67228990780473
PRIMCOORD
 96 1
Ni 0.6061268508837389 5.216204644999687 13.258061166312354 -0.5312367071992012 -0.33892924647860984 -0.17699551295386937
Ni 1.8348375462167945 2.27605723179855 8.878129060495453 -0.5710029313535456 -1.0032956184866657 -0.382525900122638
Ni 5.489510123087962 -0.19796688047969843 4.317723044710805 -0.7972947194393817 -0.3117341741210567 0.7302565469429617
Ni 3.7235103957874096 8.629538498611101 6.381650685043238 -0.13648006933832624 1.6275262988161003 -0.2618123495899491
Ni 5.813512146604172 4.045214400107881 10.780477926743146 -0.2609852257029634 -0.5944197676155892 1.7982277512311418
Ni 4.153688379379886 6.282494893363709 5.905731843759979 -1.6105058529987037 0.3201483663266809 -0.3693525959654736
Ni 5.2968688553866805 2.254104609400237 1.0806893003490257 -0.45255915069163993 0.7812785465167835 -0.1668496827691191
Ni 1.4361031911318598 1.0608254466180584 3.6948402709352126 -1.4731536654680695 0.11686152377645036 0.41512594554584636
Ni 7.191735146936054 1.8501950403541676 10.698895442832002 -0.8375741357847187 0.4327122911690419 -0.4234990001008899
Ni 3.770638472382937 3.0331331167555238 9.739743333313195 0.5973801357954938 1.6270987243603783 0.3549258790171823
Ni 4.769249252970032 1.7592084266692443 6.1695117520356755 2.087723425668972 -0.4395462833717398 -1.2317707873770656
Ni 6.530213889431141 2.574360674796564 4.44029527833325 -0.3623108586273438 -0.43596730777122983 -0.781043804798158
Ni 5.979221750316373 2.350995077279089 8.401362941403034 0.2643741967798544 -0.41906204737545893 0.360233921493657
Ni 6.817802584390488 4.251354195198764 2.398817230404062 0.6022791157590078 -1.5358654426749936 -0.29335464317260446
Ni 2.4091181481566655 6.057260987557016 2.5402845999095143 -0.8307841094460788 0.5376027586265452 1.4451445818496533
Ni 2.4344243839341253 1.2132140122281356 11.353592704310547 0.9531076847783649 1.8024456459672311 -0.2812655732185543
Ni 2.5502127901584193 0.35418547808267303 -0.017687274574028106 -0.5674738351543646 -1.1599655325093055 1.1298653706898156
Ni 0.6815289709741491 4.465499691308947 10.8720138230651 -0.8339067142354606 -0.8280361143872965 -0.4953952720205598
Ni 4.515822575079038 0.8853305782410757 9.763190602342883 0.861504164237755 -1.2933597638334562 2.095346232321553
Ni 4.8804976700515255 4.129166833083898 5.275138561674783 -0.4231881537286905 -0.2735998291431804 -0.5379750543642993
Ni 6.748236125241451 4.7280156890269875 0.1441184989678533 0.39464376643209453 -0.29751545941851343 -1.0515400553153504
Ni 1.3802034071184528 5.060518515259139 6.346266794353736 -0.10077104597249097 -1.6166394767002674 0.13167699152272805
Ni 2.1271063534406336 2.095784164971892 1.9000657935182674 0.42974086724554383 0.7970836318698401 -1.5629324740951147
Ni 7.708219631948961 4.927812577475975 4.3492105784631425 -0.231204394896105 0.384171663256177 1.3451440954945995
P 7.601427130137252 0.49135387021463484 8.884363605256574 -0.17721277117099804 0.10010898690845985 -0.39273677921736877
Ni 5.1004816295655155 8.209094401205451 11.251938984448332 -0.05846405767416383 -0.028423288337699436 -2.79636959343101
P 9.141305505193733 1.7700165901223712 4.929516474635742 0.06682168561023975 0.23549016675565249 0.35150425493014303
Ni 8.123796786261197 6.728899134448044 0.3538267628911431 2.983002115254011 0.645551810404714 0.7634849699787883
P 8.832249947991269 3.7569717972473065 0.979990286022602 -0.11379856858041047 0.30669249793209113 0.25714374046968613
P 3.8993088642613905 1.171513371212787 7.8941069651847195 -1.9378497086325592 -0.30564245940102197 -0.46389694430196243
P 6.218337186711957 6.399394943020087 10.855073871806757 -0.39049580570199194 -1.5060987529355223 -1.7122883709548449
Ni 4.977294722515917 8.585427739902661 -0.07771695406075148 0.1118743549745041 -0.596658941358753 2.3768239215509133
Ni 4.636412533606622 7.479090303359248 8.064764783400916 -0.6800174482817515 0.08557891161308487 1.0257218087006656
Ni 1.7979384575047364 6.988332423488874 7.432202304378886 0.5913331582704655 1.5706159587823016 0.6489654640719533
Ni 6.342953349602807 0.2507923632031967 2.0510213666705144 0.8481321138062231 0.19747023586845347 -1.042361731250192
Ni 7.072116708718862 9.149675526329432 11.8707880806275 0.7027699114869188 1.4004508384867043 -1.2528422633353844
Ni 6.684741668032373 7.19059547887963 8.89762579164759 1.3627093580718723 0.4718128567149294 0.504519345809015
Ni 6.322215127592486 6.188201374006868 6.584752610855853 1.1956123351786376 -0.262357937680774 -0.5931172467540817
Ni 0.3903988976525882 8.45565504613357 3.067159681472909 0.40098539237940617 -1.930903359221713 0.6867429399310431
Ni 8.082460465362246 3.6556067310157765 12.247309184307777 0.6697222370033304 2.104838488082704 -2.45270180382615
Ni 0.24094077359414945 1.7148361048003138 10.673177245076769 -0.18591004183467982 -0.09059230566727623 0.40742189203336926
Ni -0.3689432452592071 5.95311214197455 2.35641877624269 0.4634544574479051 -0.7964591109119639 0.5608121068634728
Ni 7.924616439547652 1.8917275336234867 -0.28944112262810767 -1.5293520670365082 -1.2244739966053364 2.5699718758949293
Ni 2.1456773378354623 1.1504668783347447 6.1998773666603375 1.1371019976475705 0.5212819099793344 0.9263864667334368
Ni 2.7849657266986783 8.462530420637892 4.207401308540763 -0.2978239917978677 -0.8717317555030342 -0.3290243286600721
Ni 5.730736747850362 4.807829819142387 8.643539600930502 -1.1554907845674034 0.6844924533339695 -1.2524231735200946
Ni 0.5928712035717362 9.00441455684272 5.490012698017761 0.456430203611272 -0.9732373656487043 1.0108993989758526
Ni 3.359526574881932 3.32177740589828 7.112407711129996 -0.609487460581989 1.114162872352894 0.498824866527399
Ni 4.05933881077437 0.6272228539314455 2.345727382057639 -0.7896572574987819 -0.10442381223372985 -1.555656766369308
Ni 1.4861925363657977 6.673569184462848 10.508344812106355 -1.0878250057893135 0.4490387962432073 0.4307461685816065
Ni 3.608039601972283 5.931000713371653 10.261340443959547 1.2196740041135317 -0.06138971596139105 0.034304943929457044
Ni 4.564361224432925 0.9929404649293174 12.361596404821684 0.4402911319575643 1.394923995131204 -0.5554696116046369
Ni 0.7471206042378749 7.533317951453806 12.886775996612615 0.5323286547117994 -0.09784075969957344 -0.17688341285603731
Ni 0.5718499328555983 2.756651514575578 6.687582430786129 -0.20575227337158755 0.8664931328119141 0.15674087646989135
Ni 8.164068171435295 1.5601028122872673 3.036300833459893 -0.620702355461202 -0.8224336805988547 -1.1055854150965283
Ni 6.295190048188946 6.553885355455535 1.613453289640036 -0.9091068537173828 -1.1416189116813178 -1.0887809419446797
P 3.654429696793569 5.64096453455343 8.159772930678383 0.7409759902429948 -0.5212495140795023 -1.7840396326562176
Ni 2.2534413599575642 3.3982659472588703 4.681132360817347 -0.1687816096845093 0.8350153739186071 0.2186900644791782
P 8.656815799633685 5.033951171386457 6.863762968305255 -1.4098477063205719 0.5221200896099137 0.21462386482960458
Ni 0.07524798465654971 0.4034621092108014 1.3195740006708905 -0.12128664942733951 0.5269722754958924 0.5173013280650317
P 2.060575895261576 6.19364749266994 4.790168700884408 0.42299737787412317 1.191628153719909 -1.529418144387753
P 2.4085669972113464 8.363818352177052 1.8839320172867242 -0.2879640682846525 -0.15834421640126922 0.04331306096533831
P 5.939987276242793 2.6069906790677586 12.634754286555111 1.1585072027962242 1.3136794492274149 -0.7067296674656152
Ni 2.226715209880299 4.287562009843811 0.9439197920368119 0.05027252300230697 0.030975365335591816 -0.11751509820004923
Ni 9.086227776827583 6.378068203898662 8.842143574536824 0.44319570719886897 -1.8294972507683849 -0.33350396169798047
Ni 8.87846255352508 8.368844101475048 10.027462809852787 -1.1821474679229835 -0.1919775881849984 0.7368162024383504
Ni 4.60162463326138 7.761186171948296 2.432505631321098 -0.8872301082489493 -0.5009244293689051 0.3366088258755493
Ni 0.904193018729022 2.7016298354581036 13.085885347611168 0.3271052572604883 0.6496110680757522 0.16058493280632988
Ni 3.202840900206653 7.687948487010944 12.08240762393066 -2.244571774251005 0.21871397573857815 -0.3563075898560573
Ni 4.772061056945305 5.263697041711612 2.826609384311206 -1.0071265621969816 0.07657799366605521 1.5588678171074377
Ni 8.362809465700874 7.543406816215583 7.005298531063264 0.3016361664551063 0.5885427400095219 -0.01988311207717221
Ni 3.513222956294462 1.5375616727778505 4.242552594848258 1.6240961900886286 0.32512602204693036 0.8843502155979931
Ni 7.803419280826072 4.34802046608291 9.628505191927292 0.6989711065661188 0.46680897574243474 0.05729343440483036
Ni 8.275391320848358 6.036672230209831 11.48428647406622 0.6249022524751625 0.22418939703085258 -0.32770792384149366
Ni 7.5415665325507035 1.6606551644129877 6.452910765656452 0.606420134510575 -2.1628513171520622 1.2431088380977044
Ni 6.27728231323679 8.693051638903071 6.723840689754986 0.032836844024362793 0.4770874748503074 0.23461804856334434
Ni 2.6012176064540746 8.682458330903206 9.600805653231344 0.9619576789698272 -0.1349471776335676 -1.3500253348463007
Ni 0.22699478636928067 3.3231506124908554 3.221479143699893 0.3520891808993356 1.2683089915124157 -0.4477090216881902
Ni 7.777842140346675 9.345278062669124 4.853731351346043 -0.28733543356171803 -0.8873378374714073 -0.49765887124375585
Ni 7.344273177209268 7.788332691390635 3.0493995428756016 1.1577602973278704 -0.24264374708129827 1.4658316778853593
Ni 6.531353557487565 7.125045882552413 12.756916426508072 -1.397886677303954 -0.6920201291695824 0.5413426852849517
Ni 3.191575001222668 6.7836592504050275 0.4724858248018209 -0.04428288107777535 0.004383473779676322 0.012255677438901474
Ni 6.8365323749899005 3.635457026116559 6.563026987914679 0.08321298248406958 3.2567906633692303 0.6460284929308164
Ni 0.19374450374606547 0.47927152050826116 12.821053581768641 0.33418813224919863 -0.9304367255434105 -2.3142957211097044
Ni 4.487433630624368 4.736591224074498 0.629283597974453 -0.2844691677575165 -1.2940303075379198 1.1483708856931707
Ni 2.729206065806963 4.2379210585992855 11.831972107610705 0.4354775126190048 -0.8859620401698032 0.8252657507310109
Ni 1.9535031472064845 4.765680784137625 8.793361110951194 -1.6688099880562357 -0.7926181398993188 0.44414598692728025
Ni 4.670471793719069 5.567455944914142 12.328331175732155 0.40645901389946776 1.211742150860965 -0.7935979873140849
P 4.630676827158722 3.097374897280289 3.245391621493596 0.7879094215697399 0.12542689684795819 -0.27158305582346776
Ni 0.43250682987498656 0.1434365664422887 8.215118761284035 0.08907689746401433 0.5238057048424527 -1.0706469513481303
P 3.1088369686346424 2.4344150423926796 13.399801308828035 -0.1348674734355677 1.0982480008948505 0.1341820173327689
Ni 9.064891696164713 6.825546722249299 4.89128901873005 0.8886025631164438 -0.49759125123061404 -0.456800185356181
P 1.2484129403970057 8.896127408399638 11.151297887678874 -0.4437464374960164 -1.2239541195461243 1.0062462164745574
P 7.5242099485438665 9.016586585346976 0.18417222622625634 0.5553695956916629 -0.6433257492876727 1.9247548231218141
P 5.70357154532513 6.842043884443094 4.212172967911426 0.10263766686758453 -0.2363103486641027 0.5772797655011929
Ni 8.647072571905413 2.470239853838437 8.705488967184397 -0.2199221371140664 -0.3234434921381849 -0.7849706506563899
