# total energy = -381172.4792445112 ev
CRYSTAL
PRIMVEC
9.20217189022613 0.00000000000000 0.00000000000000
0.00000000000000 9.20217189022613 0.00000000000000
0.00000000000000 0.00000000000000 13.46830873113433
PRIMCOORD
 96 1
Ni 0.15053281117645587 1.163973539765425 7.302679015815442 1.3430967260472675 -1.9398009188216594 -0.1589869921915907
Ni 0.3640774954291772 2.494303945755418 9.158221550823798 -0.8353660723898065 0.3011846807399845 1.17892998942695
Ni 6.985773694721943 5.904518479466565 7.488365964637163 -0.6942243359097527 0.988662441954523 -0.21926522025635786
Ni 0.7323134524053665 9.058360500011629 12.2064226362954 -0.020137137069507254 -0.0513672987283825 0.7255568274744473
Ni 2.5573572286058845 4.175577587015149 11.795154562186456 -0.6812785743823622 1.1623546015667725 -1.028511455630661
Ni 4.2831509782180035 4.680059062851152 4.244294806759146 1.0749646048868777 0.7067461225258473 -4.02272280933693
Ni 5.152112084401538 7.37765739341867 3.93002590795646 0.14567613401529747 -0.9406820574205025 0.2855387466726115
Ni 2.585515875062748 6.366706772585004 3.174466848748909 1.9015732427990286 -1.9199064938905772 -1.656292315205199
Ni 4.851403506323961 6.747290204010807 8.139531903300517 -2.9621044458693953 -1.7680167748654003 1.0677377481211354
Ni 0.5276267789628989 7.8878166094062685 6.1474208531935775 1.7142493513359571 1.0658112205223838 0.21225870703153768
Ni 6.868988929302317 5.797055514328248 12.03416257670414 -1.52598083657143 -0.7040294949256326 -0.31596312460073966
Ni 5.108318947640684 1.4599890101001907 0.3440038773308106 -0.20643258726806385 1.7824332074010465 0.5565101370540093
Ni 5.154210179627736 2.386150817713746 9.669047004067433 -0.2349283807149115 0.2947363540114795 2.435184877988309
Ni 4.654219363749559 5.786500622992946 10.399312052975644 -0.38246650763961226 -0.40622555773242297 0.052818172242296124
Ni 5.073553141655707 2.6559124912049064 5.021107202521196 0.6185763102571347 -0.5352306588499428 -0.5108242049811202
Ni 4.57209918042242 9.158259279729181 8.81545260498139 -1.1899471664730603 -0.7040809169888584 0.5937811055903257
Ni 7.749351526649268 1.7902365604413395 3.8312893625681568 1.6045969437134366 1.276041327159667 -1.144950290047396
Ni 1.6206957426892963 0.6606046065296298 5.40061674046938 -0.9807089914354014 0.5976498445171126 0.07923882832766997
Ni 7.594635408061278 7.818689893006282 5.594102530099007 -0.8853501176174172 -1.4725900796551155 -2.292922397640251
Ni 4.3129108026106495 3.1540536705020923 2.138443989962181 0.42313518900356806 -0.8167407439791353 0.9405576160274964
Ni 8.924211235943604 5.8581211280170535 6.158842589135492 0.43317149019364753 -1.993362396987883 0.27879551441150696
Ni 5.663863276152875 3.945863766262639 0.37872091180395073 -0.6424194354233195 0.7869275172724447 0.08671173966594745
Ni 2.71302117091448 7.401859105896301 9.531427600921344 1.8383408172019435 0.27437116009156615 1.1878355194466963
Ni 2.592445110612427 3.262648502801911 9.581732194621045 1.031704765756978 -0.4703167317853771 -0.22266370441494554
P 7.736302846689846 2.4540812517479176 7.54563384192311 -0.7095864201881199 0.7095085157623329 0.6841769789760797
Ni 4.6807860344426855 5.506469325499871 1.9634637683145002 0.7562874237890846 1.1426347545403417 0.30270291715672387
P 2.1369375943984594 1.3986381290779983 8.26613446607466 1.2774222666675936 -0.6755193033010818 0.2526553656810294
Ni 5.4841448561193635 1.6157357719571885 7.748843566752399 1.2880352662967494 1.3047173549381208 -4.1462360341019435
P 5.977988621071662 1.0663016856826968 11.402727935339088 0.20895638213118206 0.17603829124692263 0.10362599892278282
P 2.563789546865148 8.042468312789945 1.400313844607343 -0.2528119458635517 -0.061706218760545335 0.3785383762297997
P 4.180473142542944 7.801776300788075 6.010017701090538 -0.4318273174609273 0.12799979978145698 -1.5200906963392402
Ni 6.7575874345288565 4.085709174826349 2.8516178447317206 -2.7060711648550684 0.43847927555980615 0.8086993617318976
Ni 7.154403497441558 0.19840435058753267 1.7524561228945101 -0.42663934550208465 0.28476021663537415 0.38871788786596284
Ni 7.671335512054076 1.277776801442559 13.222377398286989 -0.6211669538024462 -2.1746794201352415 -1.9760118215245772
Ni 7.860605786670012 7.5605873714957905 2.9611154101091275 -0.2228501093941388 -0.30668144218849763 0.11068110599735131
Ni 2.828186354054233 3.1177879104738246 0.2493696602400466 -0.0932575112042652 -3.4231919457470203 1.2948975406342216
Ni 8.125002593859097 8.218469055317385 7.938059548553272 0.9741727329787804 -0.8100101101235211 0.166725498486429
Ni 2.639909914019127 5.257035250055511 0.5840314925110507 -0.14231287397001943 1.5260790527121912 -0.24194440702142847
Ni 4.1046288405503075 7.1861049801356405 0.0608005911339177 0.6360459277968078 0.3638154681973283 1.1790947971395886
Ni 2.756308188212874 1.0096347102312702 1.7229199112825508 -0.12586398438537677 0.6840715637464669 -0.07483452861238725
Ni 2.1472992401208217 3.9720347435578414 2.539786601303683 0.0916801394148163 0.3221090895974775 0.07551458539854737
Ni 4.721634476149227 4.278687924776311 8.183061857940892 0.5209633502976512 -0.700221176923136 -1.093681978790723
Ni 0.2001113535018295 2.7414650847047297 5.0687035969881356 0.22737602228895037 0.8457620709121498 1.7137240749601068
Ni 1.8901629466750258 8.338207717963368 3.66285464589589 -1.1275734893318452 1.758798855811558 -0.7366709351097378
Ni 8.704389750139175 4.602089059116183 8.13049445013539 0.8039744454524025 -2.228945123457342 -0.05247004487425802
Ni 6.086334994726274 0.464763981073758 4.2637564804165375 -1.8836701372663627 -2.0761030678212244 0.1639152827311435
Ni 7.524708102693402 2.693328522738765 1.3447152413303092 -0.680788522119821 1.0553879683065308 0.4845084499047269
Ni 0.3545127578058884 2.08742990879783 0.7680491673238578 2.795322126003102 -0.6156030865614236 0.4295066397475506
Ni 7.665170056784108 5.602724045087711 0.7788939270785682 0.04407950681771763 -0.6717755199879334 1.477461548814804
Ni 9.047575554375209 4.008484547027003 2.8959695533356897 -0.43096651212252873 0.24268488473187882 0.43202117863928824
Ni 1.0309653450309464 5.120530229944037 10.287040952943958 0.13487672940694834 -0.9785240679689405 -0.3012438161126941
Ni 6.5625842067290545 4.581466991563951 9.543819245796772 -0.9858385993524827 -0.7675730240052329 0.08090670294839615
Ni 0.42451368055012384 6.454946400321888 3.9755757393606523 -0.7278301968896562 0.07827543597313616 -0.10444566661060076
Ni 0.94114294370237 1.7026134782314526 3.117981156086764 -1.1470470246754245 -0.962435389937194 -0.45911700641481573
Ni 2.75811181393364 2.42252700380655 4.186583384780643 1.0869030081956765 0.4963872036201838 0.13208091182936607
Ni 2.5311678469665924 8.33276003211289 7.288307983733192 0.16217618855284974 0.9553522578381676 0.5528918235751317
P 1.7413914312279306 1.8230607081248795 12.185331257968887 1.38722174139094 -0.8405923537857524 -0.11393689393048766
Ni 7.529373603920077 0.8857026177845054 6.0039700336227435 -0.7787884331050782 0.6687192496601129 0.07697677176637065
P 0.8167535033049824 7.275476475034026 10.823388630353643 -0.5995092663233547 -0.599658133196393 -0.006329798872769745
Ni 7.264047377354475 5.546103080496508 4.48664412994627 -0.300341873123715 0.5938127301592095 0.20196400997374894
P 8.301445040644685 3.7753107095856757 10.363540449586178 0.7195934108021607 0.22434751987527168 1.2260007176625078
P 6.335621835417918 7.802981785325934 9.114718282482352 1.2134424213815231 0.07071305024484596 1.705354877059805
P 6.232391869420175 7.144299512536448 1.4118561290030436 -0.564867250769453 0.601885479865015 0.18298644042998163
Ni 4.714981305760889 8.239505220611631 11.063757646116743 0.5277734312409491 -0.4277372065519537 -1.0740184389235246
Ni 6.599319277531603 3.216941314255754 11.937258183769941 1.5684510899204989 -0.5008249276765634 -1.280442541551156
Ni 0.8474767951107112 6.646949720035108 1.287254118431423 -0.45417046104281783 -0.14505418416058244 0.9061012341218395
Ni 0.2697027795900745 3.3055858375626053 12.316754838677264 -1.046990745381771 1.322013165904091 -1.5500854429291175
Ni 2.628333581586861 6.518330961365964 11.83018539072632 -0.28392357966669163 0.8455059890372859 -0.22679623852608036
Ni 2.7085397131286983 5.238768938546729 8.430488019445091 -0.37773902025695594 0.5421160731158664 -0.8213293917910823
Ni 2.6467195213322245 6.3953071233000145 5.6110188829688274 -0.9786593079952242 0.4344732397242066 0.2031109790939986
Ni 8.193061858301895 6.123953474045116 9.789548526775924 -0.5346377624609502 1.8954331913395612 0.4020472579850172
Ni 6.893245854812216 3.7830405341032463 6.12925208470847 0.1241446877014249 0.044996876425664446 0.16410631569602704
Ni 7.854790013937745 7.799374533884402 11.43157766491651 0.049888143079694726 1.5358397316433807 -0.7661638023625321
Ni 8.202420467271383 7.934646462941882 0.26306801354582665 -1.0157479853174056 -1.1189554086455311 -0.6305753916005398
Ni 0.9918377094967689 9.06907182827169 9.70687989399492 -1.5150006834108425 0.926722509916617 -1.2938613860602233
Ni 5.101794607660973 5.665096367206868 5.9989594509443895 0.43619407907005525 0.6300506294453213 0.6629440377392325
Ni 5.916407685748351 8.2588389840776 6.9536608749374595 1.0573995994199208 2.58057587666302 -0.6635762720065926
Ni 3.739919155901657 0.2221441140285184 4.422615416859062 0.8467092653167676 -0.05983239877660018 0.5158854215541115
Ni 3.0655839884640907 4.139284220470747 5.838296888781098 -0.696252422083375 -1.19749232581017 2.4482298840977257
Ni 1.4794147952866086 3.2090918615016024 7.197855233619553 0.2120010824947768 0.6594470803295676 -0.20150403961819494
Ni 2.900193350304219 0.9646913019648253 10.448673424040761 0.4929275272063575 0.3233272782752948 -0.3422325998202299
Ni 5.850437314359707 8.69342076106186 13.070024397480084 1.5259178445439785 -0.8878461445663935 -0.07832325849193608
Ni 7.283519173401117 0.8326502555122476 9.085721318152213 -0.056542672281734874 0.2998947582839674 0.7872026253107023
Ni 0.9248550991832039 6.732281461405859 8.41820496019979 -1.3917872492744352 0.02678935227870225 -1.413022761614444
Ni 3.390448268159074 0.11554983393122317 12.604303390513675 -1.0805562400420423 0.5808597695429675 1.3942452238966245
Ni 4.714604016707056 8.93915556334424 2.029647630094583 0.22580404981614013 -0.9575297251054606 0.1887428832977846
Ni 0.4947667428083847 9.091433106340377 1.4362869755645884 0.903964904505127 -0.06594853897666707 1.005444032288236
Ni 8.469872395579317 1.5070305135928332 11.096957242419709 -0.3810467444739502 -0.1476453419265264 -0.7870373033774316
P 4.521238775531216 5.314493612302783 12.533016004117586 0.3171664008802215 -0.9059695936399818 -0.23292112047689564
Ni 0.08547897612346554 5.727100602444236 12.532988397601454 0.6682345967142104 0.7820221095510274 -0.36863860061758447
P 5.9379959813652805 1.7975062763566736 2.598063956862937 -1.0162305813807788 0.5932265186384363 -0.25375476939279523
Ni 3.4614798341723194 1.6680133113432807 6.4055279757900925 -0.248993600558726 0.007400920449761447 1.4813004629449198
P 1.2216803606579054 4.64074738387608 4.702634751528479 0.3087504089023844 -0.6543382983480925 0.12385903814020605
P 8.959915663477144 9.067148574314341 4.348566458632352 0.07916503766694108 0.2915181041844979 -0.5672051548740102
P 0.48699826916822647 4.25600457068606 0.8158360467521231 0.43723846117416953 1.553371569879557 0.40939778481281747
Ni 4.248247139652356 2.781825811292901 11.850710835472084 1.0398875586780865 -1.1001012520535054 -0.02879918361987943
