# total energy = -340897.21524062444 ev
CRYSTAL
PRIMVEC
9.01227401887857 0.00000000000000 0.00000000000000
0.00000000000000 9.01227401887857 0.00000000000000
0.00000000000000 0.00000000000000 13.19037400125467
PRIMCOORD
 96 1
Ni 6.358330651411955 1.985836586083892 11.389742722135965 0.4388744541156958 -0.4544370844406431 0.27680008124803296
Ni 4.773071627086086 0.41223493838090813 6.113171559956971 -0.3333406966472388 -0.7599957258786072 -0.4718218555759939
Ni 2.836207738774717 1.4479930766311149 4.913018726342734 -0.5735208126793929 0.10886796404801251 -0.006030779575112195
Ni 3.52446610391822 4.185237032880974 4.9611505789363495 -0.8274874409726781 0.45184284135090574 -0.6688902280203384
Ni 5.097973122742549 4.6946468173664515 2.5029924202078466 -0.6529779276654561 -0.9902891789246688 0.5204835824477552
Ni 7.1018162325933725 6.154851525481146 2.480621252066379 0.7183389695697693 -1.2991725138604915 -0.026598319313818706
Ni 5.026496776398442 4.633399402191246 11.20304625314148 -0.08320295518174059 0.10027456595204666 0.7132001056813073
Ni 5.474731243901975 7.835586582232871 12.16110326728691 0.30307032779847165 0.15537922023567435 1.2162883754707505
Ni 1.8514725906678924 6.391694090343475 0.4656416750389815 0.9465806822931248 0.3321667309437957 -0.2209408081865679
Ni 2.900483278066883 1.7989490568772661 0.36095960456111265 -0.4680657309676713 -0.8319369921035995 0.048994941841464
Ni 0.6702365205105052 -0.16344660412264903 4.550916365418434 0.04874914437924508 -0.7154937868114903 0.5387700394617688
Ni 8.641518211052457 2.321480712536242 1.4460743634629567 0.29151656152260114 0.4993755968245465 0.029016184726691964
Ni 6.82012859152271 0.7367876590274716 4.799779501552202 0.366008362083589 -0.3734972142614664 -0.16215896216166914
Ni 0.3904378521032814 7.241254138360113 2.2242662124253796 1.4210559163315655 -0.2878823072041235 0.6937767068493729
Ni 7.541344843260641 3.903621490003574 3.7102144816713234 0.9139243297106842 -0.29080822260166694 0.021163521451492584
Ni 7.660973770428928 3.76476036978292 12.565730945051369 0.06318820262271053 0.26112535082525345 0.14845369676043466
Ni 7.749636523591622 8.923818686765838 7.002743401551207 0.7990489831263271 -0.29187857284771024 -0.5491205294581576
Ni 7.015938272145384 0.6631312435646354 0.5493918375583554 -1.0961790341809639 -0.17455065095780262 -1.1768805630970893
Ni 1.8888194547770816 6.420136827584933 9.209492456696417 -0.2220237568381015 0.5738216317492634 -0.8711357737902481
Ni 0.05566611378938941 4.843466500531278 1.3678685520053526 -0.42959122904155694 -0.3796020416076237 0.2140865042688958
Ni 6.466982628656257 2.1230124110370703 7.049661300815793 0.1843036165795084 -0.3028456133821752 0.1349672322382256
Ni 3.3922199929292622 4.247223454537105 0.36664634955457265 0.9632216332839154 0.7949809837045405 -0.38859216092137594
Ni 5.903102659162107 5.520522608896857 4.6858544426982744 -0.16797634017439458 0.40142942189536024 0.9776365231576646
Ni 5.254849779004291 2.9163448805842997 9.325265031752656 0.4004873696970651 0.1579852903999537 -0.5333480971152492
P 0.22423439331581554 5.651597124245325 12.469150909041202 -0.8133034361628123 -0.7900544929372006 -0.809305884967645
P 3.9670408632507663 6.133483423453422 12.55240900139157 -0.3235645910970814 0.10573790305946307 0.5495511892376729
P 2.39500284511413 8.387101711582764 1.4943774492655684 -0.5848493503183347 0.33308975697869736 0.42460534579119136
P 6.3299419878154435 7.741750783703702 5.712236210914891 -0.33070865834103047 -0.30834340327195287 0.31312719781384135
P 4.683453572862684 0.9161066803965261 12.557341419038037 0.33690681673194234 0.2986179484540728 -0.0002771649207866194
P 4.034137244354269 6.191801849527399 8.215426901154204 -0.9966927684581675 0.7221570577642789 -0.20155134791636253
P 4.7567413863124735 1.1364207344537756 3.855164294312867 0.19504542847704473 -0.6771902632456015 0.17273596634656702
P 0.1740198041643722 5.438628073626538 3.5650024118517925 0.7076727481051748 -0.25966007913363665 -0.21709495207791646
Ni 1.5742820744018846 1.2619166520986747 2.4758600676289064 0.6321571342653629 -0.5558879300889782 0.24915969382294506
Ni 1.6407385840401958 6.518091235404137 4.8647814301414725 1.1688751762941094 -0.16019541067739507 -1.0233329967535152
Ni 5.909870877054481 5.7426391177856315 9.06451740968723 1.1133105516549278 -0.5856191386048237 1.4067801231388417
Ni 8.58869727221463 2.281763620323598 10.099486973948645 -0.014183747699549767 0.7520371331531629 0.5283257041999934
Ni 2.540893539177729 5.19188101946498 6.92398333523291 -1.4289186069090938 -0.5636886570803195 0.7595144153668145
Ni 0.4785229184924719 9.056794791961563 9.247573821149452 0.02103805161722183 -0.3902875463459278 0.11854122547171841
Ni 1.298857963870771 1.0950994574410746 11.384572380451736 1.0834225058462439 0.32087290319753126 -0.4215511323458998
Ni 4.018834402834625 6.8513110601080855 1.6177464702092683 0.33441927442339825 0.2887986483708059 -0.03390385183629645
Ni 5.723316801991688 7.8694727330655345 7.954072753037972 -0.8204377332147482 0.33574133566893144 -0.6240003094861835
Ni 5.446027150709946 2.973572821485205 4.920260088628383 0.04753841190059555 -0.6541053564016799 -0.5363840557280956
Ni 0.6046046339576164 7.253393671650431 6.901969053148084 0.569146080650465 0.789577553300782 -0.32910711818186544
Ni 5.081462636485784 4.61040909081515 7.17777979024056 0.6030157368147163 -0.6638158988212245 -1.2476285803449285
Ni 8.052016346128186 7.18121436792203 8.733782268968538 0.332803078976214 0.103996237778008 1.7618605254560173
Ni 4.568655224642883 0.4154135674763018 10.367581401907364 0.35172177025758783 -1.2316939113925434 0.2666863898527988
Ni 8.048835013350546 6.931240919612043 4.570622604091493 0.24211564249197012 1.0993456048344035 0.8592117686591525
Ni 7.254763537322391 6.074597224107513 6.866631926176045 -0.2445319652429466 -1.079236492789354 -0.7735343837949904
Ni 2.3435067105774725 5.177371258071207 2.6949124033040888 -0.5108272903049138 0.11762642696693291 -0.23300108178521164
Ni 2.2756532984447295 5.347432871425552 11.371078302355528 -0.21922382549546113 -0.937675923604327 0.2708541480772432
Ni 1.2762101189126647 3.29069672454364 3.9215640266239853 -0.8002890261810153 0.04438906763833646 -0.3243510915541188
Ni 3.639949384974001 2.663352320431509 2.7784733080661526 0.04652848257884245 0.8299788399359641 -0.30623895533444034
Ni 1.2385478252079585 3.3551885584155894 8.268478554210468 -0.5797284841520016 0.05631204432816753 -0.47591093804370294
Ni 3.8244036001580684 2.6059441340474514 6.996148219322659 -0.9343000651535587 0.3923559988391823 -0.15878438926248137
Ni 3.945645724400569 6.888459654185807 6.046401423177975 1.4607015557476457 0.04981075287454002 -1.0015259281807525
Ni 0.7071751286003541 7.385576696720286 11.267349730483534 0.0468778954984612 0.3455626926347275 -0.04295104964022926
P 0.28069448845849154 5.446757144916713 7.981099662009267 0.16134983599681244 0.14149732004725954 0.5789957197510351
P 8.543266398186052 1.6842228068507263 7.991665652231664 -0.2775187045816124 0.020902811590938195 0.07225545503130136
P 1.8664600025920193 3.236487895485538 10.400398697024933 -0.05443539613074496 -0.24206730575253793 0.17467612079207334
P 3.927044390539236 6.095073110993633 3.873604308466779 -0.13913756156583135 0.22265907642925525 -0.09621427983974398
P 6.924598873557875 3.912264260920734 10.366367448578332 0.20461121778860888 0.7186138204977108 0.3590568704664203
P 6.347497897874493 7.686595665859049 10.083632581250555 -0.1562438822288148 0.22281591372209364 0.5839903447521491
P 2.4340890781357403 8.410831029439784 5.801746117848401 -0.776518663234295 0.7278474232808368 0.6373317364877669
P 6.904573600379637 3.8168152653173495 1.5387232454855677 -0.18813456028982437 0.3032886144568648 -0.2043890744754738
Ni 5.299316339698002 2.7903262510382585 0.32302694263167786 0.5457819520032278 0.30343208201326455 0.7622462124756808
Ni 1.4513276180694352 0.9054091109714276 7.197987111356782 -0.00991751622402808 0.8231106520612211 -1.3380239395100504
Ni 6.757979948931743 0.7468020980714221 9.177281687629655 0.7433694301758359 0.010847998458097446 0.40625563963940997
Ni 2.8847748842101466 1.5425408448187368 9.190986652941152 -0.9155641793069522 0.34453296581863246 -0.15439191662174054
Ni 6.473922079757627 1.8722098335045827 2.6828954369423146 0.04339739314902849 0.7209607234633325 -0.5718364829984345
Ni 3.9249715674829826 6.830294436772509 10.490594438021839 0.9133386324105431 0.8063452596774243 -1.0118314238718185
Ni 7.982811092871799 7.257827710535983 0.1472722756919632 -0.44459413020829236 -0.10888544754950925 0.3759927269898105
Ni 7.634108181165054 3.937336407627241 8.275654126894766 0.3943056663663855 -0.16121331041894815 -0.2440984772499538
Ni 2.772193555433121 8.483623167810904 12.462279049996015 1.4186323944917376 -0.5594625348141138 -0.09888205647989422
Ni 0.10379255901851149 4.900054569966993 10.233157925481924 -0.2427460769871174 -0.6311153232644098 -0.1079505944400657
Ni 8.571709135427511 2.24782339584599 5.678561848524932 0.7664810764926347 0.10242143709172037 0.2811604150992577
Ni 3.8129039383329415 2.6420833534195194 11.358244823955072 -0.9005967593638425 -0.2875190103274339 0.17185767750667177
Ni 1.1371507286605431 3.39867278122612 12.499634025151947 -0.4582207198527915 0.0890874389869756 0.003111291935472061
Ni 3.196266115920067 8.311975394204818 7.927916429750302 0.03974591243937026 -0.040597461806388145 0.819009228298338
Ni 5.574632302939225 7.811577883876963 3.5623906548009137 -0.595950859548135 0.17638127640863815 0.8907563762346531
Ni 3.1684812746921156 8.307955919930519 3.6436164793287373 -0.2349039552348793 -0.07227550963595941 -0.031058926188333606
Ni 3.3826489577738665 4.34145579312921 9.212658468607989 0.014958163971729077 -0.03541900292924222 0.17895109401834342
Ni 7.132557099745024 5.989097779174144 11.349116291460815 0.4076144676601496 0.19869870895891587 -0.11290999532787005
Ni 0.6084231345182012 9.057876264860479 0.41174557189414923 -0.27287889181675584 -0.072516679112488 -0.0016272511907778427
Ni 4.614113135493933 0.4944719400692172 1.7068607383072594 -0.3222949803560385 -0.858458949653528 -0.5107691833734687
Ni 5.857806969245894 5.535428910353565 0.40298834509518705 0.2560525642880364 0.3632603670248067 -0.9986185247259705
Ni 7.779656408810664 8.774214935749297 11.362874429189844 0.21012700540051554 0.4877938055242179 -0.029012585182266164
Ni 0.26346752640619536 4.7391223903343205 5.811125191564239 -0.7076382953228135 -0.32183321022827155 0.1630480496348418
Ni 7.655269000887153 8.629243493649776 2.601313627585265 0.7372352922536399 0.864545265056924 0.8013046119297232
P 8.700674778623094 1.3914951299369769 3.6030432210711187 -1.2709181470004884 1.5038220410862035 -0.7290707541649766
P 1.8335111282717498 3.4094334365703216 1.4675875631046185 -0.6851642825900135 -1.3096150493500542 1.2641237497864746
P 4.851721743659661 1.1254257599814756 8.182463607195283 -0.5270980024404793 -1.0484462468813749 0.23735061700315896
P 8.564706598407037 1.6471102618696354 12.448903933918686 -1.2002763163132102 0.0763548219116556 -0.05202987201304588
P 6.1086906572458 7.6924896931581355 1.3982588416922728 0.04743196822971831 0.31130274301059296 -1.4040565535600917
P 1.8043564213718397 3.110667535970965 6.07251809245935 0.648177163842703 -0.3454451932202567 0.04476701980304548
P 7.055096603360255 3.9222408484132227 6.0087030803766375 -0.25170508595261815 1.466626662982829 -0.3385672351535008
P 2.440334584126973 8.476936060385947 10.174645735513558 -0.6158933641083328 0.27430688251253404 -0.14954075917702633
