# total energy = -340863.8005925471 ev
CRYSTAL
PRIMVEC
9.21931512518363 0.00000000000000 0.00000000000000
0.00000000000000 9.21931512518363 0.00000000000000
0.00000000000000 0.00000000000000 13.49339958835890
PRIMCOORD
 96 1
Ni 0.5932915174740645 4.3519593343692415 8.02880204052089 -1.9599532253998178 -2.124778935760373 -1.6965473060705039
Ni 8.293428656360948 3.217190695099141 9.52561134656389 0.4700840469492807 0.31413044226737513 0.48037051647695334
Ni 3.9054310186029637 2.781393662306641 12.906922448228833 0.43919532779022424 0.8018604844331932 3.486013766169248
Ni 6.290716800352596 1.729967633073439 9.029985567329526 -0.8175010191839276 -2.1139828735861332 0.0923923349904925
Ni 2.1622428874329636 0.3573508010952691 10.170623222700234 -1.3127124573284554 -0.049341783657921474 1.8266150441245832
Ni 0.02787459971754017 6.132338183336681 3.436175246834146 -0.26427006710182227 -0.6421258154423005 0.9923620022932974
Ni 3.905218974351764 4.498657078938614 11.349500753946057 -0.6296389958291995 1.0782134508414787 0.5458889098947373
Ni 4.701205435411033 5.886320755368247 9.111431764215473 -0.9091667604210405 0.4191998585049039 1.0482493003792204
Ni 1.8955188773690794 2.7070122267117624 10.295963501516125 -0.3112487498442059 -1.3754378613821345 -0.717806494105067
Ni 6.044238406620685 2.275714219770812 11.381480714753136 0.2593410052313211 -0.10131483429110294 0.7138925037626415
Ni 2.382980952932241 1.1617259171183187 7.964222580920618 0.5692147291048713 -1.3321821360172927 0.4718334255402197
Ni 5.983980962018785 0.24228083948967766 1.8027449078114122 0.6064800412142329 -1.0082005119874506 -0.5891160960144887
Ni 6.80633466474902 2.3044784834118657 3.16101740716166 0.9288974060807486 -0.15638375024078874 1.762517442313726
Ni 7.024362251559044 8.401211671177473 3.789121981025142 -0.264187534690345 -0.012569352024578352 -0.6241653743091379
Ni 1.0968034989900177 4.620435014334344 11.221367944535015 -0.5579491834933811 1.0839398118022945 0.4188093079347045
Ni 5.629950036352088 9.15729693575005 6.274376485968813 -0.5919396815062128 0.3911758624881521 -1.038769128802927
Ni 1.084624783518918 3.173177684002221 5.55897052809168 -2.5376867906089777 0.7747484587077497 -1.0036748562029554
Ni 5.769419837750119 6.664172823292275 2.632386479262241 1.5766716780580783 -0.25724298505171184 -0.1780460657055708
Ni 4.75125709800952 0.5914863755442831 3.9796354433446663 -0.2750129074406231 -0.6854473610480711 -0.2217782164861987
Ni 0.49323705464801915 5.557661385323402 13.394385445723524 1.8704420686118626 -0.10347430383626696 0.33536646882801596
Ni 2.449120320676125 3.515601491744532 7.409117467293106 3.9899592417526644 0.9721091655815323 0.4500988620766055
Ni 7.4811332265898125 0.24074305770271365 12.928444939725642 -1.9333021984711933 -0.9709074319639471 -0.3406773395179681
Ni 5.643613061581588 2.4737727697069505 1.3458070631742647 -1.2957411195814392 0.4793135359673487 -2.953469395902217
Ni 8.84667976568775 1.4802901369429866 11.115025908695122 0.08773529583445536 -0.7828476907761163 0.9868552135424553
P 0.2551371746330908 5.470944505897841 5.480574080696905 -0.2430816059496652 -1.5763034960853821 0.07108997396829048
P 5.730265405800262 2.082744731863475 5.155395924097848 1.4697659799427591 0.5083824283088471 0.5039115370216871
P 2.6373971771112514 5.542043865256752 12.847861670748923 -0.4535857921839414 -0.16303082324366117 -1.064597916940573
P 7.9379318595663895 8.375259298693638 5.665378943001512 -1.2424151544647892 -0.7320558049352296 0.7939543422122392
P 2.541341131317618 4.544329566784056 9.536865364713451 -0.01745136270722801 1.317901971949195 -1.5775021443791735
P 3.673768064509248 5.026730238264225 6.128337922441215 -1.0547328512210352 -0.14096278770002818 0.5201349408590848
P 9.041059808831331 3.163654131328757 12.586643435764026 -1.0187690315319164 2.7883243545290304 -0.5964838492334695
P 0.6969295281453911 2.1952019395216706 7.381024369803677 -2.047835331224783 0.23619027814647064 -0.2253196539805539
Ni 3.590130436383723 8.033591474803432 9.087373039088007 -1.9055306847848792 -0.43490081417992843 -0.3997659181500083
Ni 0.9001951473457822 8.683820561450824 2.332900710456418 0.6632525701185868 0.8058981448376766 1.6023657403900726
Ni 8.303791166723943 3.650480074138318 1.3675969148138898 0.4269933864073937 -3.021290469311248 -1.1954004762781476
Ni 6.56943513958219 6.235972506281899 5.0588779906092105 1.0484151365331233 0.7790689404599743 -0.5282508850979999
Ni 0.6221470523362869 -0.044498869011625974 6.5214273991789655 0.8140169172900691 1.0737489873122217 2.0853901495501055
Ni 9.013152941510347 7.963497020808902 0.5104928470380704 -1.3642682179185601 -1.2742834639282958 -1.1717183021698596
Ni 8.515070214756642 0.9707846785702868 4.566827461836384 -0.12535747706260345 1.9783075595372897 -0.48767219234468917
Ni 8.908310888264815 6.903072939872602 7.245267186664701 1.0274105092569983 2.4405962788118676 -1.7864878370863941
Ni 6.617145096102207 7.596807975277088 11.539744090328183 -0.10145830184750268 -2.012087484201212 0.7747332891990979
Ni 3.4679007545397846 5.648158184009485 1.3330060439224691 -1.8128136194651168 0.5986230070636593 -0.0943934245809213
Ni 3.3469617768335866 7.639124632364407 13.305112972105238 -0.9118247668691779 -1.1988051310843224 -1.870798423510017
Ni 8.093268102543348 7.984738323189988 9.719241859376055 1.6627866646802913 0.8679098106537826 0.2841223259410591
Ni 4.83308774034221 6.762284776391023 6.933894032750296 0.09613251875921508 -0.04391392777413082 -0.42057822690966923
Ni 2.0182832794986525 7.13917038461098 10.935955460488186 0.06031987993597999 -0.33157023501037736 0.5001723816942288
Ni 4.485086246861809 5.644544212423814 4.217456900038454 -1.6161103436696749 -1.4591151850971322 0.6295307523861093
Ni 7.986748133918755 3.496222491047899 5.198521115134309 -0.6220994929190446 -0.19285587702489365 -2.243268482058549
Ni 5.811155677975456 8.08341265452018 9.303429536293399 0.1504226475613474 1.1305819371408659 -0.5134235902771803
Ni 9.03042071901025 0.8670701475822228 8.856608968233076 0.6890314788549037 -0.05904461276798219 -0.14278878516517343
Ni 4.214914212887106 3.2164254919317665 3.8946269030385565 -0.4774759685379777 -1.5723329414734084 1.1415273804087762
Ni 5.024858717264502 4.4957253366828915 2.256879158675084 2.1534138258882463 -0.3972814611652577 -0.48477198797875864
Ni 8.953494752400971 1.5307013528369868 0.33807966638729026 -0.17663941516603127 -0.9279664096260472 2.9661698741880205
Ni 1.2348627451518053 4.457714099826461 1.91735851331116 0.9439458157734388 -0.6322538077442272 -0.2244593628627876
Ni 7.020775937919182 5.978596881901358 8.873894262431989 1.0193431588678317 -0.5782536993786879 -0.19128261900050283
Ni 1.9610958668815195 6.677291908920871 5.735545307655144 -1.049270285444567 -1.4789931549679818 -0.4863532164229495
P 6.7639258145090055 0.37013706944263364 10.836360119562567 0.9701186175140647 -0.1248180596193657 -0.629701730746335
P 0.9300445243940639 8.858286883612138 11.931781643193677 -1.0754783112985027 -0.07293859714125503 -1.542236893418976
P 8.45702540581944 6.11825106960478 10.700144736454693 -1.2196608914874092 -0.9354218374628277 1.2007949078208418
P 5.88198767719155 3.997605732668109 12.721658464023802 -0.2571972194154409 0.003192795905684824 1.734384945743568
P 2.2765255195145344 0.22976654094276547 4.1599615622913175 -0.8370048935448101 0.8578082034434065 0.39932086019278973
P 8.192956558553192 0.5760080671382046 2.2956187214378105 -0.43419607480342 0.8238773550239166 0.33727962669032885
P 6.735373595119152 7.411859291654276 0.9179119054993119 0.672328564277926 1.4618870914153146 -1.7556363989231765
P 6.585863959392561 3.7401840117112193 8.403284173250071 -0.43898501155163105 1.7773524504440295 -1.169185765555993
Ni 4.559218760944409 3.608292487464773 9.283864305428322 -0.19827936203331015 -1.9953467744077635 -1.0835880848898305
Ni 4.4370997108837065 2.0572164478820403 6.919711960071119 2.968365853398075 1.457503360525322 1.8664416892032178
Ni 7.674259442856732 2.084044655316484 7.120750192702382 0.023999962459023184 0.1202695210167348 -0.7304239257587614
Ni 2.6283069322554566 7.270103100069391 3.651772622139112 0.5769182683967162 0.5136519042379024 -0.6202477844222866
Ni 3.1417490382482622 8.493690622646515 6.0620851571195145 1.1015737228339737 1.7463174355150957 0.08477749875771205
Ni 7.753711501849873 5.166319890760761 6.7030082669338045 -0.8319061388656641 -1.3431926281951834 1.7163332304481798
Ni 5.68245403681228 4.103885999095694 6.250979707677703 -0.2618290617604975 -0.24365958994032233 0.09877329881617183
Ni 8.09045621138613 5.800986773233122 1.5255634284372563 -0.5066777869129144 2.916740415912299 -0.5473156150389348
Ni 0.42144163698625503 8.171272729039167 4.537034322611247 1.294750730643712 -1.2236301605478022 -1.0454917922387412
Ni 6.242702606428685 4.558195416949488 10.737210993495994 1.2699239014080193 0.9197936440072675 -1.0066663347311116
Ni 3.1839089669759986 1.138115250712954 2.2621682798452354 -0.40622787172526814 -0.007056392626149138 1.9808907468834338
Ni 2.2130136566224774 4.594408887328353 4.182589449688946 0.07647489242928765 0.78089159549101 -0.0686523110610753
Ni 4.812897439901854 8.989791196617261 12.078819580496496 1.2464376453606212 1.3412838412082448 0.8793309080065307
Ni 2.42231055187222 6.340104672251675 7.862739124227789 0.9223102397815341 -0.9995682902337495 0.950616285815079
Ni 1.5858052002031973 2.1258450307487076 12.72993003368366 2.59367179061503 0.09836012253815318 -1.5215181728143858
Ni 2.8290390836197705 1.912832751445329 5.663449340315592 -1.3548150429254602 -2.0280465786336297 -3.4387239799443488
Ni 0.4418808589388882 6.074127426724625 9.055433643268115 1.0378193632951482 2.626912812056347 4.047626514557145
Ni 5.375635224641043 6.1128577701720825 13.268235711026964 -1.072511772471011 0.011982369172856782 -0.08308776976011496
Ni 3.7959885270379172 1.5655319259254161 11.23276947172889 -0.5900442642557128 -0.22777891415432383 -2.3354664416500484
Ni 1.218138907252808 2.3128957182529817 3.110701150214937 -0.10352418323759591 -0.14344184536814006 0.44747376574893255
Ni 1.6538437468926122 0.04597764718086476 0.25491222334051333 1.744250268573422 1.020959354315016 1.347456031457228
Ni 7.633823526084405 5.655782557737418 12.588113916549522 -0.9094511244306788 -1.1476049540614235 0.05752637635124286
Ni 4.09221434596442 7.90246515372436 1.8301640733546356 -0.14986806060945804 1.8177480806522566 1.315676939273418
Ni 7.39763388819333 8.734277873921172 7.599618022571252 0.1466816924616764 0.39830810265755917 1.3138339725274082
P 1.3427932690126427 8.352081940105943 8.65988814094255 -1.2033395286195663 -1.3602256724180701 -1.1730696739914315
P 4.818834678935456 7.659148985129909 4.477245219225042 0.6245690375054598 1.3462771806577782 1.0165974778018942
P 1.503117161550438 6.6113000502213 1.9065765241033996 -0.5345179490536343 0.12660369076487873 -1.3227125059639606
P 4.343532880212856 7.246953399427505 11.021220297758791 -0.0189081497584126 -1.2747652886607208 -0.4711626247254402
P 3.8027278464999714 0.58112939677045 0.46209605153047095 1.6693316648876606 -0.3176004030938466 -2.995582780132499
P 4.42418345019104 0.5047648864610876 8.24759759629287 2.2329884402887803 -0.37949071284073993 0.42879367284092595
P 3.263951062146392 3.2480477433063863 1.88315208786648 -1.0736286596842735 0.9404262326559546 -0.32366075035531355
P 7.132928908173482 4.524415845801789 2.871179651785441 -0.8167047485348774 -0.1802451302394186 2.225203911247355
