# total energy = -381170.2091744048 ev
CRYSTAL
PRIMVEC
9.24212782354577 0.00000000000000 0.00000000000000

0.00000000000000 9.24212782354577 0.00000000000000

0.00000000000000 0.00000000000000 13.52678827835410

PRIMCOORD
 96 1
Ni 0.5117384519677404 5.903381258854731 10.291274483104072 0.15645548401898862 -0.10261529827008134 -1.1143459348979776
Ni 1.277095671856094 4.1029778397389665 2.1593889108218907 -0.9082313930909649 1.3562304352157482 -2.727724481458786
Ni 5.974961536883168 5.993796992870509 9.656624976584984 0.5440893947921532 0.6780207295666968 -1.81478385581761
Ni 8.805501737061242 2.8719911423288216 7.68367565680403 -0.7677542867781036 -0.3180156362543943 0.20399929523622284
Ni 7.1609205887730365 7.558507674700127 0.09359502589980362 -0.029903472427651727 1.9630295503322968 0.8851369731653466
Ni 3.7220358255651638 5.361811067517051 5.890293482003076 -0.8825098199551447 -0.005252763758507083 -0.5606295585390216
Ni 2.797065214120101 6.702141376206012 12.534422023453182 -0.16999568459726852 -0.13981119059408822 1.5207818088689937
Ni 7.146364237850533 7.390337921439258 7.936653021071296 0.43309847086386705 -0.6366223691255681 2.0337963366332135
Ni 8.407794503475742 5.8541854138004545 6.447042943661467 -0.2563868076990036 0.9687829294217767 1.2348555969499766
Ni 8.007185241833312 5.448502224122181 4.173406548672201 -1.0073862436162717 0.44105372115520175 -0.9642598447404425
Ni 1.5201821111981138 9.005196387462847 6.984529963038791 -0.036916927631007394 -0.38030061033654505 0.28258609180219074
Ni 4.14586131166304 3.37887562889688 4.480572355306973 1.2528214373997777 -0.42331799443833545 0.18533540027813242
Ni 9.195131351150698 6.190839152659568 1.819759206885287 -1.442879182854244 0.710562410948144 -0.27066234378141124
Ni 3.3585984010086434 7.818775229194486 5.7568390083200525 1.868845413548704 1.463391700985299 -1.1293971728041454
Ni 6.867898934171153 3.0105953294937624 9.386833409629903 -0.03613942603503453 -0.7726653509264758 -0.049199858763418494
Ni 6.706300333612442 0.09982329566912106 11.670398622267452 0.2091157905271818 -0.6312523630629064 -0.34270593991222265
Ni 2.8415475741137572 7.359931321734473 8.590281236555056 -2.7682838909383873 -0.38965814029204504 0.07981295566358512
Ni 8.024625136557606 4.956312720390174 8.693030589812789 0.8480174426052298 0.9559040165765795 -0.11780743262948744
Ni 5.6064686685459435 8.271121920972899 4.317682629526755 -0.19373699407826633 -0.9408849174599279 -0.06932876830280964
Ni 3.8715919339003686 0.7545051136958436 3.79889058579771 -1.1594356281477645 -1.0608219948379085 0.1585455337787979
Ni 2.8573700965133293 0.13049052337137526 1.7896344920713827 0.2959172616934581 0.02692073565024396 -0.9684008634920095
Ni 2.4128052761487244 0.24253191168782923 12.936168066786703 1.8142817193702108 -0.22427604320738795 1.0985274798084823
Ni 2.5637107351091264 0.42332363857083394 9.573800726155078 -0.30599007254842786 -0.6752804478173984 -0.4370877945289182
Ni 0.32531179990540215 7.616446572435475 8.629522386003854 -0.2857035543852499 -0.8305858773923437 -0.8706364655563265
P 2.87266581764142 6.63735406194141 3.6563316922456335 2.660894054097798 0.9592875883368316 1.0721474471530565
Ni 7.267657920077157 1.9142017358832453 0.15727236064326733 -0.9183183450133218 -0.3418469343460371 0.43333141281027954
P 8.083848690025162 4.2679313326055315 2.157048804121206 0.9244262576832725 0.29441599455758327 -0.7575521494341211
Ni 4.8071725077956104 1.6241837727415611 -0.03412101077510467 -0.9633905547616118 -0.08123169038798268 1.4244191763768437
P 1.0455618919763783 5.6011267188105744 7.847376841384881 0.11140949952294361 0.5264590833048999 0.9130966916030662
P 4.771340779207329 2.26555045757841 2.388601068256061 0.2676400120153197 0.5441336177665274 -0.2846817979889549
P 7.311631963054473 1.6781762820045858 6.38046450507383 0.005000795648701066 -0.5303908142591381 -0.07713180928699619
Ni 0.3944863521274087 1.6391929879149865 2.5577393964862507 -0.706443503683764 2.0056941790803586 -2.0802338021601465
Ni 5.286589391226095 6.158750485737073 0.5373474632510192 -0.584989989661257 -0.38103028941371797 -1.190946297161536
Ni 1.098205050614206 5.691727295377748 3.849588276582086 -0.24253858896200164 -0.331761525085577 0.2119591735132479
Ni 3.1152346978395284 1.1800533323727387 6.116475145807096 1.4420955106106843 -0.25620194538170715 -0.7257280629449888
Ni 5.1271904170290075 7.035837634242777 11.477100448356936 0.43143728111136015 0.1901665031181886 3.219296265968198
Ni 3.81488223913181 1.5277606558053853 11.112553968492033 -0.24157673926936463 -2.2987935117090474 2.2856965693157734
Ni 7.6226018293969915 8.436463583197398 3.1486172626218027 -0.018992481942102773 0.10818919281343302 -1.518940641895197
Ni 9.309964786206 3.4656869331604185 3.940516024465232 -0.9729494020946404 -0.819633235035582 0.4316141730088566
Ni 4.769658711989617 7.11234396626594 7.636006611224292 0.9475078220930843 -2.582870072013836 -0.20374629868515232
Ni 0.8733246783720207 8.063894936601871 0.1144822342076496 -1.2166187622269755 0.06868753517438493 1.560377568883745
Ni 3.6712595766964444 4.581525963177886 2.441193395192255 -0.3784314183382902 1.2138417137024706 -0.755268495606267
Ni 8.478274968323369 1.9868263743270744 11.66255298017341 -2.0549560014299644 -0.7929179305279248 -2.306868318297382
Ni 6.529775697028434 6.581014052275646 2.5086646233031398 0.5021099650365739 0.5155401223995509 -0.8663311533127532
Ni 7.119894784490501 3.436223030467758 5.193028561198299 -0.0731190885831773 0.41538074186912977 0.0746766628782843
Ni 4.851340635451893 8.33239722676096 9.741045342446204 -0.04469091514947142 1.158021007188425 -0.637653895713876
Ni 8.978061500917786 7.58316567105647 4.64735763785788 0.8370663429103649 0.16240193141041062 0.5752077134635125
Ni 3.448357943966962 4.850240822271081 8.097000237557051 -1.2447363463987982 0.8324303868002502 -0.4963437519767581
Ni 8.201759753561225 0.968288463364918 4.369679763447451 0.9093526511796016 0.7140146311628026 1.6745381487892645
Ni -0.10116617680501928 3.4926000086438025 13.187130647243743 0.6833994773801069 1.1706003865153323 0.8014825322684842
Ni 0.7469792492157201 8.79322819164849 2.5481765670897336 -0.10248828577391382 -3.4386108514052522 0.3073198471034449
Ni 2.2597094329542693 6.5702284894016385 1.6036819611533775 -0.24820684299137252 -0.03900723450113282 -0.9559302418288247
Ni 4.727339009847305 2.5423706625503586 7.182007427036391 0.47996891016316057 1.7123300228260574 -1.4020516073149207
Ni 3.2003546927577857 3.2817223838826863 9.774024026253677 -0.2484827223605785 0.2938200128447972 1.237073944757534
Ni 1.4084632731338473 1.6771411637167633 11.639638973289498 1.0785651777539427 1.7279142504175595 -2.148792267955835
Ni 2.515781061531919 2.4774077478619296 2.8064025356039144 1.8785958080672485 -1.126937141299427 1.4327132980648356
P 5.123696892807606 4.081942757390003 9.136033490618091 -0.12562975688738365 -0.22359778619344073 0.18330654277356173
Ni 5.672438975139486 4.676682908636993 11.45376684888135 -0.19967881348399802 0.16422175822796878 0.2747221156730817
P 2.7813443551237977 4.776081990650659 0.20077690354003394 0.10435516377932351 -0.42604876310593726 1.0662549929280218
Ni 0.9159937329364733 1.9630371379622977 5.853568963891546 -1.5867036083727837 0.04739802966798934 0.4662003956241584
P 3.1383492588917066 8.402360132464674 11.343388119314712 1.1698007734321723 -0.05571863371854274 -1.7711146970644336
P 8.02432938847537 8.656065776384445 9.849327957480003 -0.6562676541603213 -0.6421170736915522 1.394897769878959
P 6.622113793578738 6.753897290597135 5.88919828988605 -0.39624350681904663 1.3737051949617438 0.16694044271071248
Ni 4.389409857383552 7.517916250413376 2.102725426691181 -0.5854695004008369 0.0893463490753171 1.9030724530523742
Ni 0.2714736341727937 1.2206724830422002 0.05507753503972447 -0.33668750163228467 -1.1951441372929674 0.7137485219856095
Ni 3.6088936998551415 3.469559384612183 12.164613076150012 1.4968350682454092 -0.015617137711966652 1.380005940368791
Ni 5.790839871436749 0.2567213501458097 2.089645043541582 -0.10480767793570983 0.6243322389043054 -0.6723753583554614
Ni 0.35500768000006583 6.1881774199194535 12.598714883892796 0.07670372061064208 -0.489705163614318 0.3153725422045924
Ni 4.796479366197302 8.540030864745061 13.53328067218087 -0.23468515435585388 -0.47085023569134393 -0.8712021082518092
Ni 7.236364076125668 0.8734337354773448 8.421033851219542 -1.0284921723569511 -0.0944643870281728 -0.11051912649819032
Ni 4.8089747226717305 1.5510046066435412 9.129635165701488 0.932044950570795 -0.7725290824589276 0.21417315044543114
Ni 0.32863619319227483 0.6796466530183835 8.947957118784537 -0.3612752182739778 1.2623566305837228 0.4211880925795263
Ni 1.5917531470989805 6.66220614297672 5.961701856458713 -1.8037517663731646 -0.49625762002085494 0.9914320342798604
Ni 1.8796269366444613 2.3560770971250258 8.112149933069537 0.4844182041837657 0.04354908823554435 -1.2041836217874164
Ni 5.7886402450751255 8.768856701246813 6.63361839397768 0.24494462730033298 3.0084732629419215 -1.1439005086266427
Ni 5.815969216299153 1.4544151314111085 4.606534236169125 0.8436871906609922 0.0378504951888703 0.8183363706010293
Ni 5.5139549715718115 3.9164994317622375 0.11976965539035697 0.28343121341130545 -0.8003234789633764 0.9210018053827558
Ni 5.490775715626645 5.7495552875822575 4.53347614194227 -0.6036263738155218 -0.6232690877471136 -0.9887640005293938
Ni 7.166475107442513 2.296132657707022 2.660408343234127 0.10554918408742467 -0.11778223581850683 -0.11796786946675167
Ni 0.7136780151560606 4.414391328204839 5.911070708992841 0.9888401051829682 -1.106933187373674 0.5954456377769423
Ni 0.6987455096414646 8.412202998326558 11.108630685338635 0.13651709322384875 -0.07164301825828306 0.15393580292092843
Ni 6.0091204403813085 4.396387663698784 2.67808760906248 -0.567592620120416 -1.4649243355797417 0.035231569508784484
Ni 3.321223237116197 5.905460737557946 10.437106938241387 0.43711941909780205 -0.5737015612316313 -1.1201836246256773
Ni 2.10981136589898 2.349450491657448 0.5482504011451634 1.2035179631789596 1.31621275717223 -0.6967640716124709
Ni 7.667287516197184 6.811374081953991 11.489707634574959 -0.40272448655769993 0.21168020882024835 -1.7283353971153785
Ni 5.834804672286493 2.3240716093506584 11.584490273867488 1.7616430101285725 0.5691116278681037 -0.5709772203219328
Ni 8.349606068296008 8.850889825556742 6.533032622784047 0.36584329726063447 0.6595018448269029 0.05678641286142478
Ni 8.009329415429516 4.185778060637194 10.983467324298516 1.0946050048256246 0.8238053641354006 0.8535669116685494
P 1.507834628764803 0.8232998144747296 4.2225894547478795 1.0201466286057335 -0.8784652175721258 -0.737927176114342
Ni 5.9820317644740975 4.8205735927718845 7.135272760553964 0.159725413019512 0.408840883868083 -0.09904506442031974
P 0.9391942457750512 3.1278686862275045 9.949264007105477 -1.1789927243440856 -0.034972659420442996 0.5965180449055146
Ni 7.705522197953626 5.366265773005715 0.03597960262940017 -1.2560381445648625 -1.64353372998795 0.5105313563310498
P 8.170318035568618 9.299706024603475 1.1811466760642513 -0.7966881962036345 -0.6223756293985668 0.24629059980526616
P 3.8598544318866677 9.179539881940372 7.829467446580038 -0.01911538067321224 0.3305135116110889 -0.6252344390036007
P 2.6276477736373027 3.3834412399163827 5.958847887465145 0.6647517803719326 -0.0019764070000804672 0.9238901826741442
Ni 1.7704589257894718 4.5585223076565455 11.674754436991117 -1.39993841762666 -0.7735791209899968 -0.23751233939200386
