# total energy = -340862.23630492034 ev
CRYSTAL
PRIMVEC
9.31369836933261 0.00000000000000 0.00000000000000
0.00000000000000 9.31369836933261 0.00000000000000
0.00000000000000 0.00000000000000 13.63153900658019
PRIMCOORD
 96 1
Ni 4.9525217939494945 0.48578666785524643 4.583414343762196 0.0019347551288676356 0.15186709331735782 1.103545501848364
Ni 1.3852449693231284 7.7744140332821825 8.587596753675843 -1.0585825639844284 -0.9948117493853706 -0.9227285582658753
Ni 5.270510079877406 7.329414844208616 4.398842922641857 -0.3534629213184106 -0.9066370520206515 0.6989829336406607
Ni 2.0417303047432798 2.522475467731419 11.077601875170062 -0.41953693012934845 0.8930369447387135 -1.634097781386031
Ni 5.396515103611186 8.711549038313539 2.534484550265408 -0.4497977858964189 -0.7159712406685411 -2.0854045477278085
Ni 4.699729395828254 4.315893263215603 3.5605718932503625 -0.6011123491444164 1.996837242910361 -1.098568874569379
Ni 5.8965582493901 2.5063720834431713 3.7148262951707736 3.2164911924192348 -0.5003341040830738 0.43771128704553003
Ni 8.47259679580383 1.5617488650123048 4.274005836669642 0.10926057150074087 1.5840839113617493 0.07396780973671778
Ni 4.840980943610536 6.535608341671097 11.381994024380806 -0.5439382139262697 2.176167574644994 -2.370254752973828
Ni 7.531885330641363 7.466503168869529 3.154474159061211 0.5461097676562917 -1.2692482154972333 -0.7856458223465437
Ni 3.7942702785726805 0.27696237647082533 11.08931105662014 0.03170144486833895 -0.3550896582885562 -0.5493863815250345
Ni 7.1331100260227265 2.3113525556169 9.08115383998782 -1.3475974421310986 2.1497397194707686 -0.11954986924189089
Ni 6.709914204571363 1.2357228574876555 6.583638152218272 1.7737503349150678 1.2290292200761865 0.008070949933592551
Ni 5.4293924584622655 5.1499349422280964 5.627426830414682 0.23673509490634714 -1.512052656526112 0.5359096871948383
Ni 1.335332860357992 3.2553983247557645 8.465853678264969 0.20902374503400775 0.30962252709469257 -0.38028338394536443
Ni 5.39224011611072 5.700011275049501 8.12667393469041 -0.15649456478704016 1.7193756168189294 1.1455958940511948
Ni 1.833438756899222 6.433930697787463 4.891255355437913 -1.0893576403837562 2.0754353523302385 0.5273558840875563
Ni 4.826470201724423 7.492469759613101 0.3566215063024943 -0.4284882257853653 1.1237512873722775 -0.3301193614964637
Ni 7.014146158172067 6.595970420081816 6.608147149184451 0.8532334395885306 1.7849821990751453 -0.5686030636628013
Ni 4.901221943943901 2.557597423862699 10.505895409514055 0.8726344698229616 -0.5934178087136361 1.681861421923555
Ni 2.4019468985733994 4.449852185261797 3.3599557641408015 -0.6903363137092563 -1.195588681029554 -1.2378085089307134
Ni 7.550093610735941 8.672152094681794 0.79669561173718 -0.22683300530128672 0.03667524393384652 0.2565253901593969
Ni 8.446751283137614 8.514741280421713 9.388245098953758 0.032946115908717453 -1.8568352764617055 -2.016936070542765
Ni 1.4633030744242306 3.171351511674706 5.442214626854186 0.6268336651699205 -1.8091436268126972 -0.9727380574147827
P 2.9245664489299377 7.526399562367345 11.148867500131535 -0.580535296324013 -0.16359338061535053 -0.12318180956752335
P 2.2767335391915573 4.01747305732795 13.24219476185484 -2.0219330095367245 -0.8988733489148327 0.11854945300183452
P 6.646804585174505 3.185573528914819 11.99685830502518 -1.7057562262632817 -0.6232791150494428 0.18097712330943672
P 2.9146659876815817 4.795837448153546 5.275282418864855 2.8681815331669895 -0.3327616842153172 1.0985156527339404
P 7.286599773316148 3.5249367523450617 5.39259589938418 -0.0911774887467849 -0.887469477953265 -0.9066306242627483
P 8.710440708220826 6.019284851337031 10.988356155721336 -0.07217703638488214 0.036516606868795175 -0.34382179868422075
P 9.500344771188203 1.4995054195534494 11.474102774674073 -0.9534385857552226 -1.52803231978382 0.3125229885709392
P 8.710161297273084 3.9229483337065343 8.84217924460229 -1.1043278885403434 -0.6806622809546019 0.07673148852478398
Ni 9.303788483149345 4.5417131911813975 6.139903763368155 -1.2944599388761706 2.230648993522326 0.6380094792810819
Ni 1.664665230764265 6.8637206176055585 2.6158918612601214 -0.06380783848458044 1.5950098142456337 -0.7955178300446171
Ni 2.929549277498019 5.909271447512402 8.967453143022809 0.3217077403940008 -1.3814344452852014 -0.18215031768193146
Ni 7.390186725342692 0.4593329706927765 10.741653053521237 -0.9902876362627718 1.0477852162586083 2.3955148130921966
Ni 0.24362306218614505 7.872543158129481 6.125113610534298 1.560557288994719 -1.3624183091940147 1.1397584614338114
Ni 1.4388173617036963 4.921749334904745 1.3466136116881977 -1.4378773587642786 -0.1168026455140569 1.0523862053657296
Ni 1.2037768724623865 4.989413352749812 10.389849523327657 -0.22169234164061175 -0.3932486858567808 -0.048002238910891525
Ni 7.20118384659115 4.42802087654482 7.3060141773351495 -0.5126579157557494 -1.4319905609661983 1.1576160584405224
Ni 5.249731219063594 1.7768114714899985 13.241758880776361 -0.04135902256276103 -0.2868605508078285 -0.11941102967118143
Ni 5.323281494207778 8.735885731861945 6.812593071017742 0.6635919557358765 -2.8118532908889056 0.8784626464689645
Ni 4.112537975448336 1.75890122973968 2.4907278644790476 -0.26402864051497754 0.7597417008862722 0.1704397141132226
Ni 7.622507614692637 1.6209560448390208 13.244035148630642 -0.01063768221950426 -1.1073975286046025 -0.6885226575392852
Ni 6.918839083896971 5.072621932987642 3.7090601845791866 1.0680737913043155 -0.2474095439010578 1.2483842275640307
Ni 2.2617291712977647 2.545666576394078 1.129892235550737 -0.9610305391698675 0.20858331506247949 2.021505177970686
Ni 9.083556774138408 1.4573143664442747 9.072361708832176 2.7261679356049435 -0.8011228349362203 -0.07267068819184905
Ni 0.7294926219558886 0.5713227412877739 13.31648640738037 -1.6496789236537397 1.180870915203405 0.32447399028522833
Ni 3.9667413429161016 3.7049146574845078 12.299288058012943 2.3585395214194285 1.2728966108830981 -1.0896810851614458
Ni 1.066772371085795 0.6908640584304356 2.1230984982053096 2.4140987467419714 -1.1814931221684362 -0.12378421903821261
Ni 5.737443028348789 5.553376409674039 12.97342192026236 -0.4358575216662429 -1.6159558203696816 1.0849525693375253
Ni 2.912533150780478 1.6436442137957425 12.842367940702866 0.7084384226266057 -2.020028336314844 1.0681879482846766
Ni 1.4146576284221952 0.7758338590088708 6.905437603473397 0.32662960317565043 -0.20320071059432745 1.7344643928312515
Ni 5.869148035416524 5.831166773920009 1.6930645594928513 1.3049263856251334 0.22791852505598167 0.7076205547110007
Ni 6.364245607420389 4.693414708409264 10.450101700098932 0.5123082457258145 0.1989635325845283 -0.09904326464810685
Ni 3.6746078833526634 2.631753089393659 4.782462046085094 1.2709155758973274 -0.08628210832769657 0.5620462363808901
P 8.584519507771368 -0.0323883856925287 7.173760593440012 -1.2684907685059186 2.0517395513751953 1.5854602228839856
P 4.713718570611913 1.3802993955480793 6.9933887188642485 -2.177922866773204 1.5989723984378075 0.5509799512643996
P 1.805981974434355 0.2450657540463241 9.508107738686325 0.7617826425757009 1.3278068897677324 0.4011478860991995
P 7.060388670023514 0.29030983744450267 3.2696333811734384 0.46500714664700554 1.6590865901208844 -0.9231939279380681
P 5.587287585031766 3.531381831539664 1.4611236690318359 1.6519602634887487 -1.4008568156758712 0.8618371220971416
P 0.47002695903272235 8.08919840700931 0.9253513139952144 0.25644131508602286 0.1596462230421444 0.644894122216057
P 0.45648391039562497 3.0698415143597186 2.737186016414957 0.6981234138538428 -0.01833556508439423 -0.08633661571471582
P 1.086098294971344 5.745797415686301 7.741869177458917 0.7996220820209777 -0.4061062585457393 -0.3600310614542316
Ni 8.475148749126548 6.108407629968751 8.714343147790968 -0.5587989330881861 0.2706870263717597 0.34335951433582157
Ni 9.469050745041 5.196661766388964 3.564060804617845 -0.6930179743064775 -1.0229583870229157 -0.8201829368914648
Ni 3.1509824535842506 8.815126676641825 3.183304712019147 -0.9108662596106507 0.10200954636528238 0.4575455481626378
Ni 8.436720430113644 1.4449550888557814 1.951163902881555 -2.4134446580977404 0.7271889637612315 -1.5046072559916603
Ni 2.42825809615252 8.4646242700949 13.3428087813974 1.5582034440505617 -0.8849317991330758 -0.11944985332891685
Ni 0.7037970598316277 5.444983589346317 12.955905647948358 -1.1873776059736714 1.185353890675423 -2.747822794870558
Ni 3.0718812142782417 8.54831716264215 6.287329361725729 -0.9032622220111476 0.8702335736909529 -1.0219361164059884
Ni 7.813969309784316 4.817650129474006 12.909871762937893 -0.6024318392867882 -1.9885978857197044 -1.8927078219885987
Ni 3.8798072833750337 6.500169719799041 6.495673997649859 -0.9096560413526334 -0.49426167263674875 0.3907850548076367
Ni 8.96361496797065 2.057666042462882 6.440588129302349 -1.4948440059573096 1.4639761127338593 1.3047566928164884
Ni 7.865203963902101 7.156804074391323 12.531377967646087 -0.384571469797757 1.3731642348566093 0.0985706958870625
Ni 3.7857016761752322 7.992140357461691 8.8377626888883 1.3977984884655217 1.3836965018465008 0.230816415429067
Ni 0.6002836860213233 9.005442786847757 4.195419644877306 1.1381679770182396 -0.058986762946853254 -0.14148446453145308
Ni 7.416535177714845 8.780097857493125 5.116843372317081 0.1359391092331917 -1.2154887623875907 1.942585423545332
Ni 3.1618794805462227 3.9074317124085467 7.079621456926481 0.5327130346344116 -0.09699023877382007 1.142296911584949
Ni 7.930846909225162 3.960491851384919 1.8426844651600338 -0.6869671401267072 0.04505909712216756 -0.8322743208383603
Ni 3.21555432360763 1.8118216632421813 8.742056056957933 0.10394198750130486 -1.0923311211897833 -0.24877274279717157
Ni 8.605512583645117 3.352642648268544 11.00948521158965 -0.055033691836376186 0.6192111156276562 -0.60140365513259
Ni 5.50225351993535 0.7366697578335772 9.196040170741085 -0.7180170674539763 -1.6000075245705412 -1.0645223265076313
Ni 3.8713318179601663 4.691989712575776 1.2295618460899254 -1.0988498961449074 -3.050159329826798 -3.7367973687488614
Ni 5.021005417241273 3.438319358544769 8.424495269780067 0.8141115338864044 -0.2821878279225076 -1.011785915345864
Ni 0.06299785501776108 3.037681314274513 13.366991798924547 1.7383351886405674 0.34339319578723443 0.3723834123719974
Ni 0.6564238650116483 8.300312005425571 11.263290940081372 0.6578038882991897 -0.005649999196925754 -0.17237318369050958
Ni 2.9191831313367587 6.008928018874029 12.838947019332668 1.6865644838261793 1.192887480048307 -0.09663594075819486
P 8.440445909416882 5.954983078563137 0.8106372866597239 0.46920370122685645 1.3117632060413085 2.9370891547719804
P 6.109022334053785 8.585218035140727 12.420526330978229 0.16934031040145675 0.4356724022386303 0.3075157651643349
P 8.569580335765382 6.45854680228361 4.934071357700207 -1.3947746140375334 0.4840801041180566 -0.0782065304084137
P 3.313813840230542 3.9055969138517015 9.82456392125078 -0.11862761453793763 0.3214920248387689 -0.349164808163689
P 6.2855355434412195 7.890369576595477 8.962232815149147 -0.6941855122520173 -0.4028867231671771 -0.8023304820910763
P 3.7601914566463073 6.174702534169878 2.4455527024479786 -0.13730025124677644 4.221183691253427 2.695055530470855
P 2.2777301049051735 1.1230364222629527 4.981713718399844 -0.4832321542954645 -2.253179056304042 -0.8718073459359759
P 4.061983221303391 0.3114798735851548 1.0097725377462476 -0.9799188914339382 -0.9926275972498582 -1.5593555553771339
