# total energy = -381173.6844282671 ev
CRYSTAL
PRIMVEC
9.16517249936278 0.00000000000000 0.00000000000000

0.00000000000000 9.16517249936278 0.00000000000000

0.00000000000000 0.00000000000000 13.41415638265866

PRIMCOORD
 96 1
Ni 7.106665594038098 7.8525181672000794 2.887638822572643 -0.7553469142526862 -0.05553068607745275 0.2644940101871703
Ni 4.164333604550845 2.063905196062207 9.201306196090778 2.1977668980823246 -1.0703517887052147 -0.4623892494081843
Ni 8.631640316549749 7.023418332188847 1.2052770082792124 0.8453810334236473 1.0651391341560235 1.1231709893887751
Ni 4.505910418583628 4.045772933045624 8.525005367506076 -0.7957052634650749 2.8029626732674955 -1.635601619625067
Ni 1.9008201165350038 2.696494567425987 4.235774291181094 -1.544010440379631 -0.40597204696072015 0.19360201116229883
Ni 5.697529486798131 1.817032109508046 2.319173580629571 -1.0194076935571799 0.18107739633272688 0.7195579295785349
Ni 8.969917668481273 7.15095170757499 4.312221911550002 -0.8630355132806168 -0.17942391988970388 0.5783339177973201
Ni 7.620556816309105 5.342369887115167 0.33384324147433325 -0.644048229275994 -1.1324981803269722 -1.0827984991089996
Ni 3.504734469819263 9.1663639759212 10.125769651000883 0.40956413518735274 -1.3672422129452195 0.8542333416079546
Ni 9.030215338381772 6.8374111562304005 12.173628463043972 0.15865249167030743 0.8934465214723065 -0.042033680032282444
Ni 1.262575833736567 6.500673553279463 2.472269538645214 1.2327606620941607 1.8609611257046208 0.5990724358962521
Ni 5.787522315609955 9.05273416722286 9.277767564218442 0.6281536695329246 0.9618908302876339 1.8413209828761903
Ni 1.4828424245130802 4.4874425959890845 6.065036406877804 -1.3375390294538319 -0.3718591644374112 -3.0704656454843184
Ni 4.790223234814569 3.510151086768829 0.22825128906155878 -0.3059887869968472 -0.39261182360373026 0.5004616307998735
Ni 5.268681900187062 -0.16413082570985219 6.505718064225387 -1.0758143544816827 0.6885691945065044 -0.11738782859356559
Ni 5.471278038376835 5.542821374939123 12.602116774892904 0.7798526127035343 1.6216004202499685 2.1620661022466057
Ni 4.4128564221556354 6.716394218494243 10.898612740668408 -0.7894091460437179 0.6950630297609642 -2.168695434637665
Ni 1.6798294771307145 7.14290468611692 5.926118970725068 1.3762099636614686 0.1736214542753139 0.4932553428594215
Ni 3.5891457085764586 2.6462877524518373 6.511687341076914 1.3957076673747641 0.4378313575631621 -0.19373133765131154
Ni 2.5901510708679263 5.052163864964478 3.9009439606281333 0.04296904736235825 0.4730210180904176 -0.2724978543282533
Ni 2.306296513262159 2.8799354950834544 -0.2896771916972376 0.9624004229342007 0.7030411628704344 -0.28861789981856745
Ni 3.705864180408477 7.25367496099417 -0.3942316465826164 1.153666072653839 1.3265516772043928 2.245777107413016
Ni 6.691859051702385 7.181160116146511 11.21632711157109 0.6415555447611273 0.9445615949805669 -0.3444854004101487
Ni 6.971295996161466 8.00644723939629 13.480690211078004 -2.172704041576426 -0.1243380346591536 -0.3837944824224164
P 0.7963691709667482 0.07453576538467917 10.386742438934423 0.7530545186740838 -0.9414837273861915 -0.33059295869877253
Ni 5.824109684243911 1.629146073186383 5.1421557772590525 -0.18342481351898088 -0.27094619357041727 1.4937790550279049
P 5.971733117757717 1.551590383461802 7.9198922667905265 0.27292902832840094 0.3313342077401713 -0.38641289388187
Ni 8.89390172773728 7.689863850780539 6.873949949450087 -0.8481439408807651 -1.0223549491109618 0.0903681054716121
P 1.464255454675991 2.1650887005008004 6.451216449416099 -0.9411404851141597 -0.9958029096540462 -0.683245725411062
P 6.9051509462037375 7.27228942634877 5.467811770136013 0.5388258324003689 -0.017888964465278868 -0.16696821062485437
P 5.242002083029385 8.7340244585863 11.595787249629822 -0.38796224064686086 1.316904898143248 0.7905126635205418
Ni 3.3531241862664363 5.443122628446096 1.5548889290458099 -0.24283709403902692 -1.444491007426054 -1.2475493903675612
Ni 7.337701262506219 3.4451975092365545 1.6046145724635261 0.1326509254002232 -1.029697505518962 -0.6336679144829345
Ni 8.464779185951105 1.4502327407456426 9.005727830486931 -2.9642114649100693 2.209410910079156 1.7018226955368305
Ni 6.132618555884081 2.103333768172246 10.600872030202595 0.6293883132709741 -0.6627136668959812 1.2120262577602867
Ni 7.490988772627185 0.7573484490331152 3.8964099497906544 0.7592462493070924 0.002393697043157168 0.596178916398541
Ni 1.2108476001268371 5.37976379092943 10.23650326518812 -0.2698172221722966 1.0611873485971273 0.27956607402894434
Ni 2.180651163411736 7.353584506454777 11.27720035430481 -1.3169056694741965 1.1149221191164218 0.3738404565334981
Ni 7.718752474511558 5.171714375100076 11.184669689226766 0.42687254455881324 -1.5138488291945862 -0.9245987787053948
Ni 5.707482864136927 6.396346394672171 1.5732119419147987 0.026381318207006177 -0.39970421167413744 -0.0698221629994604
Ni 8.092288245064031 5.106403355840166 6.10432658488304 0.9081979687498681 1.1170365943562635 -1.1762611843455355
Ni 3.7830899239229323 7.449278072563776 2.590421443456779 -1.4478085018350615 -0.6997077276218272 1.1384145458114072
Ni 0.6784665588472782 0.457958924033923 7.858186826393491 3.316601979099908 -0.5707861873570492 -2.312278690679676
Ni 6.624513364146697 3.29070936151763 6.772431916215116 -1.0065691470316147 -0.1697408882739851 -1.2251599669287674
Ni 2.098027133292722 1.6910934741375108 9.459501936755759 -2.9444702777274 0.053429580574049916 1.171777694652885
Ni 0.9350034032891256 5.67133542378314 7.86733550158648 -0.9186173643109792 1.5824273495949326 0.47619118828828316
Ni 0.1358434372950629 3.2973174508926504 10.271232853355615 -0.49351116762396946 -0.5112273539568098 0.40555192870416606
Ni 5.89898914359747 1.3121135911179618 13.154444897609071 0.38055514954951236 -0.5210952478898251 -0.4538691277523151
Ni 9.019556242760206 2.368262244558294 2.9360501802533574 -0.6156987315990234 -0.053083252978224714 0.6853548013342649
Ni 4.097821947692976 7.299546649374166 5.3595591681454735 -1.327935702036113 0.877595927593295 0.12256628747071151
Ni 7.527768609883714 0.30949046161529475 11.193134642550994 0.8314631377909746 0.022993889792012015 0.6944598489593266
Ni 0.5061878947818184 8.93210216673185 2.6875530251315762 -1.0510970542406608 0.2174669907053545 0.6816372432733616
Ni 0.5584779534660126 4.413534644920895 12.611734706918071 -0.5066420485789727 0.13549842215134728 -0.7747862539242205
Ni 6.7471800329334854 7.827863853165675 7.681388815766557 0.6028560713084004 -2.2183575777494826 -0.3023563324505825
Ni 5.059028579169596 8.898530139851545 1.5458071596120961 0.9813833917946067 0.06217184554305421 -1.7667947295328408
Ni 4.41011603557709 7.43987460557519 8.36117790900609 -1.1575060152252195 -0.24140807490198427 -0.8242272821641674
P 4.212239961226617 4.540408127886786 5.199796463650788 0.9667795258385027 -1.0912620564953208 -0.0732792683101254
Ni 5.468024402138093 6.001620745291616 4.199570026757785 1.312795761070881 -0.34578946393355287 -1.7010619061114058
P 6.468183016754571 3.6672329783062425 12.12679993065461 0.5766405892552973 -1.5780335914026113 0.9636180973913856
Ni 4.822447981336861 9.165355806945815 3.821089645639676 1.0123644135571532 -0.08977572330325183 0.5697739440424509
P 1.3873963180616757 6.0801296129565605 0.16940079989936221 0.7703873535255764 0.9916999432292662 1.1438287748484428
P 2.2781227729864133 3.6105097256821077 10.76734180793534 0.5294824435122558 -1.8006687565724666 0.9505208978877953
P 3.0155983784801985 2.867351713236155 1.7738348184645698 0.3653573587631514 0.11752255439921695 0.6881750443918794
Ni -0.3805379623451434 3.727952246141902 7.946130322633534 -0.7817835111776601 -0.3634388015841999 -0.02411360521875202
Ni 2.8171357330895015 0.7179354577163323 2.6182954825916607 0.3462304081257134 0.22843043169539368 -0.12372045567981273
Ni 3.4138984451371166 5.557219860942115 6.8655124916433685 -0.7197070535618896 0.21957272419444768 1.0413088645056452
Ni 4.78946252549678 4.364519302372199 10.888364244775 -0.6301434462694439 -1.716040124687793 -1.9270420764940939
Ni 8.585823619204772 2.4472935270559377 13.065441907427623 -2.8626014679760505 0.8231875280457436 0.911904728177494
Ni 6.828988362699688 3.3567260990603103 4.204265344631326 0.48895877236659663 0.4904106743217748 -0.35292350387517285
Ni 3.3666978067441136 0.5808519725815464 13.361049882251871 0.2551061412143671 0.23878632100842104 0.3346758705188946
Ni 0.6512643268569028 4.520373060794144 1.9539057121925014 -0.2565680704718743 -2.378079905445201 -1.194563325088833
Ni 8.46953591048042 8.288532918708881 9.237671767550149 -0.4294606170009636 -1.5447149226458234 0.5117058362551251
Ni 4.107445378821647 1.9254194395343864 11.623943576077812 -1.2157582139988934 0.5164695761923557 -0.1909748579520969
Ni 7.6870134821319525 0.7008359953765603 6.506227647816582 -1.3291739453185882 -0.13801887458035586 0.8066041697657658
Ni 8.871923644073897 0.034100857333756625 13.410655461909794 0.9672528659304955 -0.5660527864371219 -1.4126980312851734
Ni 7.49294095437043 0.8247711240378313 1.5407369861831623 1.0594166298499497 -0.23605066724481283 -0.188367759346553
Ni 4.113705191641534 2.5416306476344195 4.053221468739215 0.24069562221599192 0.9498776078768416 -1.0439738129323182
Ni 1.0163901351201678 1.5130325027395954 1.1159761499914016 1.1551557698254882 0.3744603495056841 0.4649145869331993
Ni 6.084849676795861 5.942807833336684 9.248752461106875 -0.1272698635939679 -0.7912122606907277 -0.5652948252251748
Ni 5.370580288080927 4.04253762715189 2.5939087915943593 -1.602378338795563 2.0982857745658507 -0.32255414755469614
Ni 6.649415137838695 3.443694420945981 8.986827411750223 1.3240415091880293 1.2254515300272573 0.9072654296332698
Ni 3.024479430636086 0.6337414335474694 5.264184550039596 -0.38002704496018425 -0.9799916536534027 0.13112009057799354
Ni 0.9334911498260487 1.4824024962329125 11.883520508239068 1.4608812758586194 -0.6454805908471464 -0.7900683768942716
Ni 8.552636529569615 2.726629654617481 5.628808106849669 2.1069871589945905 -0.4120727605418193 -0.5975056056297645
Ni 1.8194517150489686 8.23965505374774 0.7912128449162814 -0.20431348404253202 -0.5504816714717423 -0.10434436514604609
Ni 2.933890865611534 5.259535058028572 12.237292500805003 -0.36761941532445075 -1.342199925264611 0.08722158942283044
Ni 5.845217076519461 5.634207309971479 6.604258332913972 -0.6636770592505151 -0.06638022719744698 0.41223268315845135
Ni 1.845324997026337 7.627027428096572 8.943043549666523 0.0142613950150206 1.1791040531109693 -1.0657551704734678
P 3.083329003281032 5.8011875878126675 9.081665867264645 0.47506813042743345 -0.4375050845719949 0.3084241359112172
Ni 0.5063638660938854 0.26593297929243115 5.433135339969037 0.8273982236929815 0.6787894894119213 -1.3693019236877257
P 3.1268177468101195 8.955418365580742 7.3045040911813075 -0.39151704787765473 -0.7856350237132663 0.5046401876575953
Ni 7.64039024960667 5.28370361792029 3.0971949927615707 0.2775220470157221 1.0882065574984483 -0.5725836455771042
P 2.0157147190388263 7.8841838381996565 3.976278012537868 0.6382233950641009 0.949872722780835 -0.19366603163101484
P 8.180017276267492 6.136495423853059 9.087057738248452 0.7758666314725928 -0.9092310380000728 -0.14110239860168602
P 0.16412349357184938 4.350414101889319 4.157261757447148 0.15099368957346898 -0.02297023564292818 0.17250122462794162
Ni 1.9102052531785834 3.505412692584522 7.998553276319028 1.406392915002752 0.07101258376313577 2.896156164003044
