# total energy = -340864.2737001434 ev
CRYSTAL
PRIMVEC
9.34457348953485 0.00000000000000 0.00000000000000
0.00000000000000 9.34457348953485 0.00000000000000
0.00000000000000 0.00000000000000 13.67672786589933
PRIMCOORD
 96 1
Ni 4.4531285303678345 0.34933193389561346 2.7837886664888427 -0.6271810212070101 0.9173629230785879 0.9545259052821304
Ni 4.880147511606242 0.23286303706739167 6.410090632794777 0.6225013563431537 1.9256937899963156 1.2593340417073149
Ni 0.05774759612791004 9.265425092835795 0.8002991884368144 0.418490234032389 1.8014819965023814 -2.039181512204527
Ni 1.4633041632502581 1.891276290999077 12.435907167513692 0.15863217995533327 -0.663035054791142 -0.4113592794145625
Ni 7.973855503785143 1.299577888652842 2.2597646008392545 -0.2716853857292869 -0.3798475819595265 -1.073101840646526
Ni 2.0995481480978277 8.903855505312375 13.386069955565599 0.5707044262765204 -0.25992515986956527 -0.31909858490592785
Ni 7.834929727605714 9.162690850331142 4.360729386299616 0.03695652261969119 0.022881018363231562 0.1361270568742817
Ni 5.290467739765168 6.486909569247204 10.780092639508926 0.0445962985531361 -1.369790690398686 -0.2990223829813431
Ni 5.855010811138279 6.147916471617475 6.278164876722699 -1.4795217737779423 -1.7777535425371898 -0.30305721517234907
Ni 4.040453469653772 5.256444147172896 12.818089015553461 0.29971812349678706 0.22907320748571516 -3.2829454673877265
Ni 3.3555616344806425 7.792570775334149 1.6311822319121472 0.14488372002098918 -1.0154314825182513 0.23335435135957233
Ni 1.9573424265737436 3.081102162350015 8.323328540742592 -1.8617576534639872 -1.4285601951284108 0.14410467576311956
Ni 5.70051697528878 7.881138644213454 2.73864129344564 0.523852241809672 -1.2630778250204635 -1.1657325169000698
Ni 6.292196688487752 1.8313495403003024 3.848754213890477 -0.3440287724887042 -0.5869391429678279 -0.07255267455674601
Ni 0.05617490438572951 7.404873759937072 12.270541854701312 0.9308216196866549 0.2374938274492426 1.5023079184345225
Ni 3.937111829863074 7.585523057381123 7.111570020621173 -0.6386219160541001 -1.1084336831786006 1.7113514609628722
Ni 4.892772030582391 5.534987197980485 8.66026863554548 0.6329629179961098 0.07860350873651624 -0.7379659997720776
Ni 7.099922944046878 4.387847338978214 10.362309834847887 1.2947098501034475 -0.3552796628121752 0.4735673775121908
Ni 7.578458559715714 1.2392025984197557 6.608020850255552 0.12169211239587428 0.8283503031936057 -1.0821986607414718
Ni 5.234232095650833 8.557667085986397 9.70626469847518 0.5645504908599825 0.14025547722035844 0.8541433529973097
Ni 2.7048055267833613 8.128125069867487 11.07823219567912 -0.002371328445653981 -0.02907300610655638 -0.4461501618415026
Ni 0.4430309081559725 9.150683073214672 10.414924456680017 -0.2632848203704175 0.608299868031791 0.41464334948247294
Ni 2.7312319810132277 4.956315131276553 9.507404695938071 1.2478188419788638 -0.49681606362748637 0.46604407255195224
Ni 5.819445363896811 2.058245132646622 10.904728693691073 0.30567974039686063 -0.11881016286238893 0.0705137897498463
P 8.526437520909942 8.389399348604075 2.33635459523771 -1.606561266528659 -1.6402931115634654 2.627272766498927
P 3.3187627035198166 9.063647714410934 9.084492654810706 -1.4712685326302144 -0.9272683551177578 -1.0063007238615767
P 5.547546304941214 2.2372871634260574 5.798960189581848 0.1348463903896452 -0.48326532152624513 1.0706670059527883
P 5.912433216103813 1.8428994333088298 1.5303028872733475 0.785428564129415 -0.5973171437680422 0.17929562184195574
P 2.123535668609874 2.087353479508727 0.7952213471254602 0.2077299659232487 -0.5623321430524251 1.3092075294989902
P 9.175791942562498 8.67097004126827 6.2868086073318326 -0.6610190528023777 -1.751280950167958 -5.429012623102914
P 9.208712875466254 4.964884105296634 11.099663040845591 -1.8388686646809556 1.3750447397087737 1.3577970083719195
P 0.17194669602104182 2.077709879521025 7.806060601828575 -1.0310684177245597 0.3758253481740108 0.26742326801882327
Ni 2.8042504793697267 2.0466578613435686 3.9866707761177054 1.7302914924004844 1.2068598830679989 0.7389396765392564
Ni 0.8327556960310843 3.3429184263572296 10.294732681717008 0.8668973102288683 -1.7037656781958141 0.24062851642348237
Ni 2.516979596790321 4.224438779884268 0.7570478293834417 -0.35997295452278644 1.0886963526506734 -1.0365803486817244
Ni 8.655719697101668 2.8636913122396632 12.006101634418375 -1.3299625026581547 1.1498832085726391 -0.5745042596385848
Ni 6.669240889944925 0.8546388185613183 8.748524395665495 -0.7373399361523043 -0.691123842607558 -1.2677628892009585
Ni 6.6400577864937675 8.86199181544328 0.7193518193539927 0.8540860173968129 0.31391549804309166 0.2217036544945214
Ni 1.0027848855429435 0.779471068269576 3.378097008250354 -0.9215314526339806 -0.23513124075433697 -1.6672526708714448
Ni 0.026147985935648058 4.052358456460296 6.248322980830522 0.875120469469609 -1.7975950027431493 0.9394389290420208
Ni 8.062385994369922 1.9202631584039733 9.996169816361306 1.861437551120407 0.5334208593347136 -0.5303195947015705
Ni 0.3527959673408085 6.358954322511149 6.761801695136968 2.297482763317424 2.168265803299414 0.44080303859697634
Ni 6.960548628333137 7.8657855097369085 11.506764997845831 1.1443455665838616 0.7234174125339412 -0.25671179513859016
Ni 4.776189129955864 4.208048397734627 10.739554944638138 -1.5379220680937062 -0.961947394557182 -0.623519513195023
Ni 7.244081681459944 3.760546111095984 5.094102738387667 0.7600078100634653 0.05237517116760658 0.11939483172126532
Ni 0.34913476339198896 5.248837664236858 9.02629838806321 0.2662215344012383 0.13178574918645045 -1.3997844085472988
Ni 9.264200953690068 5.018288343600625 13.575698453812155 1.9409093213944897 -0.43492703943217353 -1.0530950585072962
Ni 4.987796999841059 7.986162307257822 4.947952672333729 -0.6065610309638134 -0.6663011271369234 -1.123624017765794
Ni 1.9123296153908342 5.527904011167812 11.48637233480982 -0.560392502827551 0.24969962548681515 1.2167108077201498
Ni 7.434112930830017 5.732923956642803 12.218433708760008 -0.6232855428073459 -0.2925306046094123 1.1815802825656039
Ni 1.0544416885778454 7.2585003585733405 1.3171550316536833 -0.16727828566610545 -1.8114277948611834 0.1999040421209267
Ni 3.650457689143347 3.9249545395684997 7.359516133987159 2.092272992712868 1.7765186416888246 -1.1010721006072068
Ni 9.121387834879936 2.2451085715556185 0.37795903521569707 1.9114748181834564 -0.17806277787611915 1.696873064841039
Ni 4.706160895161444 5.184294694164126 1.1358908612646783 1.929866690427083 0.2638777167594101 2.487513769299013
Ni 0.8829304496880311 1.79294334267486 5.513266671031439 -1.1923336644273659 -0.45475178746758455 1.4361863442151008
Ni 9.294150312179008 5.418787424872851 4.1903170692688665 0.6694769537617439 -0.07278587361347463 0.3666755633539427
P 5.920039699039849 4.043116673138749 12.622471580066481 3.498712701793155 0.38096498339342133 -0.6061745941586723
P 2.807380911536277 3.2338579075040568 11.396721429846625 0.9637975603920435 0.3122771911087202 -0.7646077707293218
P 2.920973548600725 9.293570948613857 4.315417548760499 0.03946951884953202 -0.7935748473856333 0.5711019188252552
P 2.1346744003786156 3.5918485233266133 5.588366205935672 0.7928821921939829 0.8162833447267426 -0.7456960214264835
P 5.830901811169023 0.1583325866973174 11.982263627084432 -0.7380112511877162 1.672893928317622 0.48381065250675387
P 1.9591178955637276 6.498337982798521 3.3043384196622414 -0.8433017822971154 0.596147034719341 -0.8569790226738919
P 7.116453494800992 7.916115383316138 8.746883488535802 0.05079677093689316 1.114654981497964 1.331424689025978
P 5.936579594367595 6.868822293566387 0.26468878594153583 -1.0753507845817027 -0.8408466358884035 0.23177440846696212
Ni 4.618863888296022 7.762920443201416 12.5074090415698 -0.9504563631984471 0.47467140920964707 1.0807488156688225
Ni 7.501562063302146 3.722354838664066 0.9125957331385738 -1.2054807433322852 0.8844875125068058 0.1855457165167256
Ni 7.174791667982412 6.1822017122714295 3.284260668757612 1.7078946127625232 -0.3559340085667225 0.3221363432909871
Ni 4.35656170645997 0.23681205388406126 0.4207889539982892 0.18042022236470218 1.3301723046761156 0.30860488446345563
Ni 1.5521990922066657 7.44669072693801 9.070871069828078 0.7196751718826897 0.18667288814263333 -1.1661346374344947
Ni 3.4407467677053463 5.048770342786561 3.2145641663271105 0.4008591512141871 -1.5910927385794147 -0.9874763920662218
Ni 4.134067408294085 2.7472766139385043 2.031623376827857 -1.4568500432120395 0.4504161362067081 -0.013863645355969673
Ni 7.4107888750458075 5.860935270820647 8.41998226918523 -0.546266347838814 -0.7730875260655589 -0.9804976467555437
Ni 1.9793302083286504 8.827566406184854 6.355465993174512 0.6117196923466175 0.3206332763828994 -0.26336812411284316
Ni 2.6668665578394934 5.78711313913184 5.2924693474370335 -0.2732573582020971 -0.08445199709749326 1.8391710264127228
Ni 7.018354160817562 7.958670571633965 6.609907519671752 1.1359347168123468 1.9150733341679917 -0.061183256377539796
Ni 4.369905757605744 1.620115453360368 8.930698727526208 -0.07200143003896632 0.7425939854623921 -0.637235834339851
Ni 4.341769246401314 2.932327205562991 13.176953349010564 -1.6493246256381144 -1.473270907772224 0.5169814828317678
Ni 9.10196981087369 9.307251404410364 8.062458882044249 -0.2903654786372935 0.709076827541553 4.654088300938932
Ni 6.125545562343677 4.0196898270445915 2.929322925140465 -0.8725683924717166 0.46467933099394165 -0.24166981320380315
Ni 2.200385442155285 1.2313718457165632 10.186085193018348 0.40044186117111036 0.8591256367032495 -0.5044707519592666
Ni 1.5598522980108598 3.4858904029190967 2.648785742319915 -1.5001291656156488 -0.4587138574391261 0.28169494744648904
Ni 0.6396837224013229 7.928366119347028 4.279010155434833 0.18211072269324766 -0.4226587635877818 0.31503701324204453
Ni 8.727261752824392 7.1367312195813355 10.117359591788158 -0.9095141164581304 -0.7172616773451905 -1.059003710682247
Ni 3.1019779398427745 1.860551332898723 6.475014861471674 0.8856889890140746 -1.1553606867474424 0.1342465520221172
Ni 7.862094403152469 6.553863439316862 0.9880821333911499 0.7647121575176701 0.8511292487613341 0.390935721452888
Ni 4.896827575538459 4.193480207443128 5.261067842205758 -1.4377495749371627 -0.48622671814741425 -0.5685966359048982
Ni 6.896005658260404 1.6989182427947618 13.235147615758057 -0.40551130527421775 -0.07105886362003891 -0.29476515036688594
Ni 3.784991515715974 0.9429422360068523 11.952517045843294 -0.18308491368105886 -0.2825531816817263 -1.079350135549083
P 9.039052796612838 0.2940905524156703 12.329132331370783 -0.24232313051708587 0.6886702388607431 0.32803188283981566
P 8.642609260296682 2.1914800634844713 4.0627131785013555 -0.6471111844720339 0.2954863448036266 0.7417524633977032
P 2.3756802989084917 5.840246384800517 7.688044243606977 0.3963350380915884 0.9654654350127695 -1.2401438419321094
P 5.206254442198139 5.950904825744677 3.972104454740932 -0.011162187264406582 0.9119314676503713 0.16748937323564703
P 6.165643127796421 3.443821132430108 8.781991051669328 -1.481982576613609 -0.8574382216984976 -0.12249378236156325
P 7.914115644558999 5.6642133067304234 6.19444964493023 -1.766162752375797 -1.0520555614991882 -1.1776261830138623
P 2.497047621234343 6.412012811590775 13.406161723330678 -1.9508952289626078 2.6860785237832254 1.1149072067180863
P 9.229504551796328 4.970462815754636 2.0350154570560894 -0.33523842789058395 -0.29819988708004774 0.355727034762239
