# total energy = -340854.97527707386 ev
CRYSTAL
PRIMVEC
9.36662196630911 0.00000000000000 0.00000000000000

0.00000000000000 9.36662196630911 0.00000000000000

0.00000000000000 0.00000000000000 13.70899804035149

PRIMCOORD
 96 1
Ni 5.327462847739891 1.967393342712322 0.36253603342655877 -3.026716525422826 0.06627095531309232 -1.7187757784514013
Ni 2.944481862388667 8.973345450369019 0.6818675871389883 -1.7517013255348282 1.7356306452252108 0.8581768996367349
Ni 6.774240617571249 8.616102494921572 10.588349621050591 1.442299141981058 0.6271301133644167 0.35229152671812874
Ni 3.522205728383503 4.961415267800557 6.346909104519657 0.7348693631246247 0.422173339310931 1.4469117010524049
Ni 7.200759107850613 2.9003650737112294 5.943768765590615 -0.6512226355372461 0.5970911438001653 -0.5684729658428403
Ni 7.138883204240601 0.757684770635942 7.018856502510391 -0.5177253029763278 -0.06565774720912564 -0.16047437537039458
Ni 7.707877378717948 5.435975161291508 5.451712022577487 0.04245791205389462 -0.34014666382547865 1.0879741297726682
Ni 8.534800217698608 3.688987796152177 1.5156805131156397 -2.0762349654133985 0.10624749570602993 1.571382661744997
Ni 7.516507928724588 1.3718541620541131 11.974988058953636 0.46035267859412976 -0.5267858705166992 2.9614791535805702
Ni 0.24369139936749368 4.469667623306825 9.613791025922394 0.7424425474861923 -0.6524595932681408 0.9615154492260859
Ni 0.44083724502484073 7.216691731532209 5.48370840264588 0.5622966618287993 -0.2279393509915881 1.565912382659045
Ni 7.626762433930983 6.830627680806531 1.38778959572225 -0.986208581097392 -0.8721356758096722 0.5560211132327327
Ni 2.4023417926115775 8.017921926915797 12.188382183447237 -0.2886268986796319 -1.669102836706306 -1.0925859175130666
Ni 6.114511977718459 6.200909697200558 8.987755998008135 0.5213557006400633 0.7994349057108361 0.5741211652675532
Ni 1.4492224581211268 0.23339373536070498 10.41903013543633 1.7165654010636437 1.683360632176901 -0.21980309503769888
Ni 3.8900048665994142 5.396251318238215 8.852571292219178 -0.3996036815405311 0.29019424316675185 0.617849202283123
Ni 2.096268692056879 8.166279849604106 7.255500455635655 1.6028087414647623 -0.1076654590994791 -3.0324326019709966
Ni 8.319499049006552 7.894095186721375 3.8663756897848556 -0.2722479431009763 0.8781132335493457 0.11650979686398644
Ni 0.23675166927596214 4.481628799345273 13.231623406247419 -0.04532469207872839 -0.3110206929937998 -1.1104221743635392
Ni 9.157446401845672 5.9245381543732805 3.620395088049471 0.8397467179560054 -1.9868207392146233 -2.0688978083220366
Ni 9.342521481989511 6.843263253614569 13.233144545627718 3.9661742235179247 -0.48547004248704784 1.258694094130471
Ni 6.072699378003792 4.297696447061018 1.3898043560714042 -0.44698859858239787 -0.292091974410097 0.6977575458739919
Ni 1.913947398722203 9.38835236245633 5.149908228239175 0.03549459336218404 -0.730822960969393 -0.6576678769419577
Ni 2.268474033847684 6.580211046986722 10.259279590652826 -1.0673515684263102 1.4570858133719293 -1.5402121496794636
P 4.639980907494055 0.6539869006894636 2.0120562054406927 0.4348882157744381 -0.7260224542569561 0.3758813982229269
P 0.15704265442115817 4.263892308985249 5.8566076664318265 0.55725524275015 -0.41595049832967074 -0.026654883583366994
P 1.84437213199269 2.560787566978358 9.743916819277235 -1.5821661255137462 0.15466728177031427 2.1037545109899063
P 2.3749069573597272 0.40053454474431444 2.8822069406899806 -0.012947818409919638 -0.7747669706505108 -0.370099244323511
P 4.796206792494263 0.8637982923446093 8.850583695073242 1.5445850819361786 -0.25588647102381734 -0.10365916615356341
P 5.865247438380036 8.726741031621762 5.484778070855426 2.5726208834820015 -1.1160667742438264 -0.900897578433713
P 5.323360267391544 5.23971633471861 10.897981101227064 -1.611446105424786 0.12226932505558298 0.01569015704174717
P 8.262268989809282 6.709639027017474 7.162389678309582 1.2999926957689418 1.7652119584267536 0.17908787670652385
Ni 4.525698754913711 8.173660747582412 12.992798903567143 1.569702960049729 -0.7625981964984608 0.9213733297895617
Ni 1.1801568802977567 5.765521016076707 7.811194963819352 -0.18454272917350797 0.5651883815542976 -0.9636139836263276
Ni 8.991985027750781 2.2730824117732253 10.57368149131198 2.029200232622099 0.19377633195663402 1.2857775806108243
Ni 7.019280810477926 3.8384041471038723 10.894718706854166 0.35749158286182947 -0.8209195579471733 1.5672046191079074
Ni 0.7495657828598055 8.060952187464448 8.818148020442436 -0.4518199585327702 0.966947933095567 1.166078844495895
Ni 0.45263356851961034 3.4115765583051134 3.58753510545113 -1.0435896901200221 -0.02618205771200652 1.4848483281971785
Ni 9.146599853801408 0.923990077355002 8.766286908860858 -0.9002674010488817 -2.4675604661055375 -0.009896947398737794
Ni 9.149615906020971 8.333614548058973 11.211944643985982 0.03576713029728033 -0.33401098324138606 0.04824546526994917
Ni 4.811465019406269 2.639691989020552 7.235335055562692 0.6053731813032993 1.466128897410804 0.47287420809990816
Ni 6.268770872140692 9.103054429053763 0.9360627161928681 -0.07281389863793265 -1.5592064313937792 -1.5572670482792212
Ni 7.171769413379983 1.7240110418642243 1.2677076309234205 3.2676746572715856 1.4111214308266729 1.4284889755708432
Ni 4.250123374939424 2.632254891311447 2.7090490134621277 2.7646403806485287 -1.566697854674818 0.437081366771015
Ni 2.083164788158846 4.999780950692869 4.6882714628455195 -1.6323692287306983 -0.63607035327684 -1.0782111368486333
Ni 8.492406887432349 9.096722592717045 1.8966538048930834 0.3109052504618581 -0.874430899601752 -0.570321846126121
Ni 4.41830106935628 7.8694890712530885 1.9044131143921046 -0.3325284851585886 -0.07914652572417982 -0.5073835547306875
Ni 3.4791848344566514 1.2877231650475855 11.79505712750229 -1.9914260991971184 0.6179340486874454 -0.1696745538124239
Ni 2.4102846878978763 3.7068967770335486 8.001434799223647 -1.3292233104992848 1.4905327801764654 0.43564232033164324
Ni 3.955655518794778 3.1187946940844453 9.904010182418615 0.19802816525445252 0.3697999679155374 0.32125059825192415
Ni 7.112160232245542 3.40552572062239 3.362871998270094 -0.13559740962305677 0.3123890340962362 0.9795998175316227
Ni 2.783900498251514 6.205649207831297 0.41497693889755033 -0.02009008588165572 0.9706652340461541 0.15335010562078752
Ni 1.1130075686144127 4.3570714626504605 1.6145911026601991 4.525244665099942 1.8475803335223404 0.19056373855660727
Ni 1.8728279290207275 7.572539060331473 3.166928826851852 -3.346405949835217 3.3623347052503316 -0.09003926137728364
Ni 3.4103963639583283 6.267244112787313 3.0084802424985315 2.967918738558327 -1.9758475280325716 0.9637998743848886
Ni 5.221320289503645 5.517830069200665 4.858496700787829 -0.5433203778366127 -0.00750247902463224 0.5525619510395388
P 4.960918836845164 2.5787246477251293 5.049928907147249 0.5465648529158393 -0.2789209842457777 -0.27985789423775026
P 0.3849737759481728 7.084191499551098 1.6497815007623504 0.25741961983889217 -0.8562020352985512 0.7367418975569893
P 0.6565439884408312 5.8098907035427425 11.493554938385932 0.3820337909775679 -0.19218456198948194 -1.0489057030162967
P 7.40333103751663 8.71100510699796 8.62080734905165 1.1772536301657919 -0.7571533713338056 -0.5054526562565618
P 8.922372294534068 1.4831389956584946 3.1019759879805795 -0.5814778627429406 0.8069795508273134 0.07630365695874601
P 5.120254440282933 6.3218234180152155 0.721352581336385 -0.9087746671889446 -0.007962192269870159 0.32521112556156895
P 0.8153588077065267 0.8037891564593141 6.8813001680817045 0.049479594787366396 -0.34325049956178305 -0.3577512642811193
P 2.6874242937127435 7.043746426619214 5.132292422620139 0.7174933337400224 0.33792960156950186 1.7486867070782206
Ni 8.778866281938097 0.4231390131339663 5.081829747673283 1.240398895365709 0.5853296323888628 1.150838630507373
Ni 4.111825204064187 8.720540327990241 4.2709425652140185 -0.9775822728809616 -0.7773624992918289 -0.839553885218909
Ni 1.537090737225807 2.8564918172005886 12.043368144741484 0.31130300012090906 0.4984744251665157 -0.6388306896307966
Ni 3.4335131865604334 8.552615532361981 9.023098135383444 0.10283152804594549 0.12292521347202702 0.9960980722969618
Ni 6.913372417786676 1.0195099498080045 3.892464541484063 -1.5106496055309984 -0.062428184528234426 0.11291153798976683
Ni 6.2603409125208005 8.111363345991405 3.0951074442147273 -0.02573005777625246 -0.48044096470357256 1.6954972675394346
Ni 4.543692035391282 0.484586862127723 6.475554971630117 -1.7048699670035863 0.5969996125276235 0.8824457994864287
Ni 1.4161301833021487 0.4820119777949359 12.893956690361723 -2.045466316771974 0.5886831222421282 -0.6860312585759991
Ni 8.660519015496606 6.60008701844607 9.406881413700852 -0.7808188332715456 -0.14408539248940994 -0.3320903691799055
Ni 2.980121858337213 1.587670494945162 8.281481804445198 -1.2756353499705 -3.15357089874593 1.2598806582394044
Ni 2.965650427656397 5.084511411494589 11.725374144622076 0.774623245983795 -0.9845746450383946 1.069022785481146
Ni 2.4634589998557987 2.1028908936693944 6.273141337872517 -0.43169721964096613 0.9969781609090702 -1.4751385571085822
Ni 9.139612353938698 2.840465527300993 7.613017853101837 1.2667781566901861 0.47748445317841 -1.9576885977353575
Ni 7.371615656102234 6.010186544111389 11.103588753018423 0.39962759279993104 1.192967184246307 -0.5030910980029206
Ni 7.818590848392538 4.791542214837922 7.870034208641842 -0.9657207455566853 -0.9614884526428924 0.006526231154291986
Ni 4.802145230715388 7.801749662396352 10.776506319766593 -1.8241354722358392 -1.851368339809863 -0.4774839389577777
Ni 4.819754479699163 3.4038022622112125 12.276462148204594 0.26851470131078914 0.6551019159869944 -0.9606875540081518
Ni 7.500088240709397 7.525228253620277 12.714204661386754 -5.764354923561215 0.4567371933287295 0.2920025000200842
Ni 4.656147696720648 7.355392667144842 7.406108240880295 -0.05423973518017111 -0.23086475216849917 -1.2765982281044015
Ni 2.2988031552356976 2.1339599781795986 4.015296546443337 0.3408367479139678 0.8238956098563618 -0.6342777801527916
Ni 5.910516321538859 1.854263284613364 10.522094821749137 -0.7878693123604238 -0.21831185520415305 -3.008166016114148
Ni 3.5001941671537837 3.9241930361689787 0.48561531720134987 0.2304271504104483 0.160781107977536 0.4837443180451927
Ni 0.4011555517696465 1.6024510241453738 0.9986373697891505 0.36891525131773883 0.726984046839277 0.4180194650435575
Ni 6.25877668668022 5.315651537650242 13.077300818796944 0.8779653951175718 -0.5145823864719717 -1.8623338376824312
P 6.804410506388665 5.708347156610236 3.5838605797190373 0.9574212245520544 0.4958094767398429 -2.7457186040433617
P 2.4804781516661816 2.120125477781175 0.2008241180381601 -0.5241116661186458 -0.8432994683042703 -0.8589222624431917
P 7.727772083420895 3.317086077587917 13.416132742434545 -1.761432179669347 -0.49837132392974814 -2.1064168883134173
P 5.485355991420479 4.706633788222005 7.462671396605415 0.3214166915161432 0.9296024025675732 -1.06971852599659
P 3.265579024310374 4.306857003181301 2.7152721969859686 -2.6723478044606943 0.653519659101539 -0.09941581749617717
P 5.322395505346156 0.6089231465480581 12.04366974996344 2.202704187482942 -1.889799647202868 1.8814638736436629
P 7.637112551019851 2.898473016107654 9.139857759429855 -0.6849225988928527 -0.29678218079691465 -1.178741527565228
P 8.565522737202215 -0.25127836302539697 13.33656516356892 1.5001834158923517 2.6235282118548304 0.5751917726239126
