# total energy = -340871.8844731855 ev
CRYSTAL
PRIMVEC
9.22734101765948 0.00000000000000 0.00000000000000

0.00000000000000 9.22734101765948 0.00000000000000

0.00000000000000 0.00000000000000 13.50514629327178

PRIMCOORD
 96 1
Ni 1.2172154304802478 7.937109393108283 6.727102361238428 -0.6165088862051447 0.4551703630622419 0.3712811804467541
Ni 1.3981266736386366 3.22055415795524 3.002382912763107 -1.6869565770582753 0.24353849098142574 -2.538043145507132
Ni 7.756299650698377 2.4048203244260025 5.289844380857666 0.1341475645504077 1.0562048077808712 0.4115395137461687
Ni 7.906179346843523 6.353808444875005 12.446882689782976 0.4945434655432257 -1.0459756738536952 0.005638172122383838
Ni 3.4654293273389656 8.594917289339968 6.5934821622660555 0.701954614674475 0.6831624216686363 0.052035014219368445
Ni 4.8854247986051345 2.4036392248073 9.110571541854158 -0.17443880797028666 0.8738498302873016 0.5952425206272007
Ni 5.463093240239725 5.0253297393767085 10.018211534931808 0.07098970094500032 -0.20977476426741937 -1.2892051182351345
Ni 0.9035356719026606 5.046718715284142 10.33728467419011 0.41640481225827 0.9941972557298233 0.027403331713617324
Ni 2.1604249767623744 2.275203868614216 8.760801808052603 -0.008803200113926775 -0.16822239474692963 0.37695251979991856
Ni 7.905607251715714 5.980202644393519 2.948903091121906 -2.102504697743205 -1.5165412884250848 0.5490138286769641
Ni 1.3338674725086244 7.05824209402311 8.793079046069948 -0.5734673337336381 -2.056443127498452 0.6217590788604904
Ni 4.713021163637708 4.241559414278598 5.474176199239905 -0.8045966524174337 -0.16814808986556848 -1.5831171765731058
Ni 3.4277910043336064 8.160650950629202 11.358881403056895 -0.4508570803988687 -0.07892489663167697 -0.047325781669157206
Ni 0.5225978264444503 4.678935366829227 12.669041991656384 0.5140283137407147 0.22320209341691882 1.2378103087029262
Ni 3.0624529011830353 1.0757879784814397 4.495944281061029 1.4040866354670787 -1.3099495498713376 0.7558809323792852
Ni 4.610662272463782 3.387107658873781 11.848159301976867 0.037435519138638754 -1.3259888627223875 -0.6130813485808345
Ni 9.215548229604849 2.582788045878407 11.897979560268244 -2.4084788294520325 -1.4000949978091823 0.4828819700448974
Ni 2.2190647273627806 4.269638212245086 6.924587753889885 0.3291436278467557 -0.5870576708235632 -0.10370698867236335
Ni 3.9223303329612644 6.770745837617626 9.176557178442444 -0.7118142810773741 -0.6731492604070084 -0.7649091040198246
Ni 3.227742256415935 4.409764609195167 0.26175013018593246 0.22276603432076475 -0.7101474348979125 0.47750476489338406
Ni 3.682253380778516 3.026189451952572 3.1192028923935182 1.8026117392314502 -1.3558439984106068 -0.39541304049795123
Ni 3.0575624105743473 5.158387993296119 11.591737038352173 0.44367110417339073 1.2397136963732263 -1.272022435808261
Ni 7.0974767469818705 3.981163857717864 8.357889050547994 -1.8987422011081365 0.5212433434319151 -0.4502487573909084
Ni 6.943094108540424 2.656034676919481 12.953676849688748 0.28160752993900534 0.9814823792663162 -0.2890151352569861
P 7.354965691199705 0.8598063812542915 11.933498363098481 0.902453610066923 -1.6982336926339914 0.3245536944832282
P 2.727306657035537 6.418021509301162 6.943292496367003 0.34713543643848604 -0.23786740873857748 0.3179665281840137
P 4.6173797765451505 0.3326105709035971 2.6104368497649624 0.1911196110600773 0.4424665423423283 0.02117509141571837
P 7.373401918060383 7.431875576526909 1.2889469321667053 1.2763994818300342 -0.9290943525829031 -2.925502478375645
P 1.0805308316377904 7.555503488178245 10.845415875773613 -0.265902974719555 -0.07986900571250116 1.2569493435252224
P 8.014849739104887 4.375392764822782 11.205463021726029 -0.3295490908152905 0.7273422015096441 -0.18150805611224227
P 4.226158982531615 6.962286977344333 13.055059488209091 0.6552096452094522 -0.03470500758135313 0.058034683446229085
P 5.435568082719503 3.455759074210842 0.6348954863629401 -1.7097252382133588 0.6721730125366682 1.1588355326699202
Ni 9.084621491403563 8.379228198815264 12.719079092455884 -0.161203026006303 -0.14462558126359612 -0.8619613063798317
Ni 9.220761677140526 1.400747238417632 2.9813685668909806 -0.6503335480640735 -0.4911388107370509 0.7895924656991176
Ni 8.759385411244239 3.4902693286947946 1.332790641840636 0.7861096493568397 -0.7169420892222427 0.31682727237324787
Ni 3.6170991275937063 5.2150254109491945 3.3309223809184907 0.0023350758910798495 1.3519721741600264 0.23726782748136557
Ni 2.0945417636566463 2.9368503386066815 11.454146314645993 2.327808667994475 -0.04151997362065753 -0.5301236766406805
Ni 8.283171581388006 8.23035428281417 3.0895720557093287 1.1073571622849703 1.5246955421011033 -0.1058309769939016
Ni 3.743458332113291 1.8773855259493362 6.875915376790433 -0.10310817874609984 0.022144911528155408 -0.43955991021849455
Ni 6.989092402284409 -0.03422236145189398 9.87651556731656 1.1648596273768133 -0.07550584364779898 0.581367048196689
Ni 7.653839258775968 8.63142064943048 7.487252539430651 0.5607316313345246 -0.6589002066871621 1.8528683213941572
Ni 5.0815888360581685 5.8205696490533105 1.4021719398326915 -0.4630672493118154 0.17735495317581715 -0.8839244409144841
Ni 5.859259888906576 0.6145288998129453 0.37670710971465626 -0.22031371612553025 -0.8545354462294057 0.5552569813731986
Ni 4.835790932597331 6.573437609908972 6.50222837571016 -1.1156970496092333 -0.10111248847230975 -1.4522642236135699
Ni 8.573777451633354 1.0797649623537884 0.4710714328444931 0.13690841512499646 0.3358488077810732 -0.3880928526874542
Ni 4.698054416906968 4.474420585978337 7.780611848162098 -0.8930035203976169 0.13188113711373417 0.8117006104520665
Ni 3.4567556270141218 7.471082547463357 2.596512792541357 0.2091232467263495 1.3456153787040632 -0.42568623756019597
Ni 4.772786649812191 8.265713452649065 4.607105132596519 -0.39047755086954683 0.9452059134327851 0.6413891943865921
Ni 9.427574065843421 4.579197040434296 5.401396471641849 -0.06568500090263525 -0.3934685151770707 -0.4568757757891228
Ni 3.5464822886723986 9.016090031496528 0.6578614148081566 0.6411192285546572 -2.045624953837025 -0.6796613504939133
Ni 1.214502592293541 2.1027540969429346 5.177643608017272 -1.2208199447925168 0.4145150514347248 1.8685420233756722
Ni 8.896835879370698 0.15421193263718136 5.624690736430104 0.09902166738155205 1.1518351900926873 -0.8488561364564413
Ni 5.6097710491372945 5.322902251904246 12.168582401189981 0.447328755530636 1.7460662387362382 2.313286048898268
Ni 0.2044234301772553 6.243532495319465 1.0309910845058534 -0.83478937395073 0.9023163131581105 -0.29570745967549716
Ni -0.25786357425314077 3.23061195939575 9.44005681243858 1.1780103058261582 -2.2344701670406293 0.5917566189611292
Ni 6.450510976156242 6.3593263946561285 7.94517224347408 1.5207255017097616 0.2542119115348719 2.021304117703474
P 1.5550560581329103 8.856401672111692 3.7156028357934634 -0.6701996908603812 -0.1529659828084914 -0.008855136397784751
P 7.285326950400135 0.5918822373584093 4.1196367152017626 -0.10968711751519819 0.3580117170313576 -0.14482227065543446
P 5.714962733927952 2.7539090804786484 6.763661085373567 1.2163341411070212 0.22640903038999072 0.008413677984991961
P 1.3375676361578397 2.7993260517540532 0.38672431085577363 1.0999894090659894 -0.47662364784001143 -0.7097483996872809
P 5.6890062243388195 6.056392797140576 4.344713702226994 -0.6227798068155209 -0.6729021773932088 0.050734550240390044
P 3.4073985812294527 0.9594496660392807 10.442489277257847 -1.0490645971916643 1.6777486853067622 -0.16940150265669535
P 8.099722819517561 3.749585286385308 3.389102609948495 2.22647737864314 -0.4019343865562368 1.3746266783347487
P 5.664701408747715 -0.423103101845876 6.671622974852127 -1.2431582032784008 -0.14806340330055145 0.5358713777577352
Ni 2.6857098048393717 8.861873485188962 8.867776215080239 -1.841048960161726 0.9783268643564699 0.1643765386382782
Ni 1.6522015017711595 0.6927573721363416 13.0457546377755 0.022100688553781292 1.0902400429887096 0.12016282023554142
Ni 5.092274096671114 1.0953222588938802 11.685395469913018 0.1610364185214517 -0.6561308714721409 -0.4549672459125004
Ni 1.8424692684714545 6.855314415784851 12.909811917131043 0.4344426435965873 0.686596644161166 -0.09519946542198443
Ni 9.218288749813869 4.967234401881798 7.945982403993783 0.8768294817409157 1.9897222291321346 0.6140375418465167
Ni 6.019594162145388 7.638503418414382 2.8262892642213147 -1.1117550342423497 0.10260295697490718 -0.2069342094948307
Ni 4.840063191374355 9.355231714197917 8.946348867214398 1.427425053082703 -1.104723324206549 -1.1815995658393132
Ni 7.053000964465119 7.484840512553082 5.586106610995705 -0.6252910032731489 0.09446772946228246 -1.9518421662569094
Ni 2.5492005254715657 1.1861100647408347 2.273969250419041 -0.7613481261414436 -0.16765855182365963 -1.3156699972948827
Ni 7.488715995676949 1.7091618763512237 7.8761877211351825 -0.042158121425288686 0.12211325909369292 0.2159397554275507
Ni 6.259237429311896 7.948892707272992 12.178913331917316 -1.1259701494004672 0.5506230821456131 -0.6188743011135277
Ni 6.9491195620639585 1.761111804892575 2.0740801354967093 -0.613812313209588 0.579331248713583 1.2432589905223235
Ni 7.021277366894041 5.079697231200091 5.90652971020882 0.08352022931184326 -0.7835094927298313 -0.12164968919371306
Ni 6.136606070463839 4.056108319460822 2.900054471813725 -2.077647015269577 0.48124237755894544 -0.20534192530704634
Ni 3.714023115053449 2.0065313873817963 0.15332241698684632 -0.14383933791687484 0.9297304435050053 0.0566732843223282
Ni 0.10005666965153484 7.1472490231012396 4.901503439898794 -0.48068933326895275 -0.5309747117870662 -1.3907994314398693
Ni 8.252601401413317 6.529690787313139 9.783640536987182 -0.5713281759034483 0.2598256581772235 0.3793318186653725
Ni 7.167180079166838 4.823481660008671 0.6105823661651414 -0.36913585196897714 1.1852628736235133 0.17718808858064966
Ni 0.8347403100495704 5.638791035862436 3.2298230217598203 2.1553326401775137 -0.8849276853680178 -0.25369666246135014
Ni 6.9013311642103785 2.4882816217006956 10.45311825109209 0.038916731669855556 0.5668194893998173 0.18988342466013103
Ni 5.50660015197551 2.027302131457566 4.3628777225349245 -0.15379413513674156 -0.9796049597379451 -0.15696559088618772
Ni 2.3453224311338827 6.966190142490513 4.6432716947488855 1.3429769126399516 0.35709460453372693 0.8649201318978396
Ni 0.8081664913628499 8.839303409662826 1.580709910944751 1.0585229143910866 -1.3592957044046334 -0.3112641764631736
Ni 1.1211957224160738 0.8448331753850109 10.686743446607677 0.3008018434792691 -1.15537945580052 -0.5319064795727162
P 1.7301356219239574 0.7921109184211178 7.048470340146504 0.30994880008585973 0.6945714348365264 -0.6847140824264725
P -0.17799263527248688 3.121720110955877 7.139967728498756 -0.006615705544304735 -1.731573958657334 -1.0605227184299348
P 2.443925794613968 5.984770178075219 1.4602036086762817 -1.1861936129678992 0.07566036694779228 0.80860423091493
P 5.7191888560011215 7.411326288629646 10.021169820383028 1.1591630912126683 -0.6563195904441794 0.22106576380020637
P 2.3630758347774994 3.878362054186924 4.619637706831841 1.3069606424463427 1.6385812710786813 2.637897593202625
P 8.655531690865391 6.575606034990184 6.806364295728187 -1.1604887520026272 0.597258779726281 0.44162527738795554
P 9.091625043048836 0.2917869698640507 8.99911356994584 -0.8941314633544729 0.39357495884794796 -0.35821483418109923
P 2.7682114586738695 4.268374066559445 9.487473348459083 1.0930528298471562 0.15323800552295547 -0.03359634789820666
