# total energy = -340870.7901699685 ev
CRYSTAL
PRIMVEC
9.30218647809495 0.00000000000000 0.00000000000000
0.00000000000000 9.30218647809495 0.00000000000000
0.00000000000000 0.00000000000000 13.61469019011413
PRIMCOORD
 96 1
Ni 1.319850039003742 4.276643051688076 3.702270241767964 -0.841249527753777 1.3314079768554297 1.9750759399738695
Ni 3.0721587301175157 0.17119372015427362 7.0084068698532915 1.0766314510663393 1.9647473043543522 0.6391189102951768
Ni 7.390791851834085 6.578990032740894 2.7893099347397117 1.080034306100301 0.7573102086266442 -0.24720308431720653
Ni 7.341815839716225 0.5468039196800929 4.879994963327233 -1.0930726273414981 -0.914901863132605 -0.6509639825592208
Ni 5.681236010044849 4.3176284855705624 7.246323313600916 0.33594111038456337 1.6310931902317525 -0.49839523518914813
Ni 5.0643243010905525 1.1974146598023603 9.167765290550994 -0.5541668336328133 1.7388591794648376 0.9495076261319324
Ni 6.211851334494417 3.056261293325602 4.842527616393079 0.767069344895937 0.16180569258730845 1.080063873786656
Ni 6.154838233208498 7.337862410437955 13.103472043030312 -2.56819524361048 1.1033413562573577 1.6235140923329137
Ni 4.1540402331290265 3.7775063264800726 1.3417464558934344 0.1264651083044854 0.7502090788054886 0.5062576686563603
Ni 5.55724716569177 7.7587677468689025 4.598089409664292 3.075611708461632 1.7253652587434607 1.582499854704081
Ni 8.054902855277653 7.660573865783218 6.135310153011152 0.14363930609092682 1.9317055434080346 -0.20935978821718781
Ni 8.933959483034117 3.075963324411192 9.110719631612195 0.18540302029127426 -0.7668245758749827 -0.17238449654441926
Ni 1.974137933464127 1.3087990413976607 12.46599133920517 0.3875889164678421 0.7463046015447599 1.031838720231681
Ni 5.588511814642982 9.21476458802972 6.965139609613254 -0.23813377502608668 -1.6564473527258246 -0.09059873342517945
Ni 0.02306291108144551 4.935191347582456 12.72133542943006 -1.0595989210640848 -1.4320435256913207 -1.364512215608566
Ni 1.5452513209843437 8.566848691347252 11.130771297386167 0.2420423660518735 0.1802430733568896 0.8232546338382533
Ni 1.9492266779177587 7.161623184305956 4.2123854075270595 -0.15185038114680946 1.1987853335899807 -0.07839216405665854
Ni 7.621811654483099 3.172966525620127 1.7543616836825129 -1.5896287524393784 -0.3921698509703052 1.0815126904180405
Ni 3.3002483440073407 4.91480095469312 6.964813102865802 -0.9025826794456197 0.4456074019641551 -0.09641096923158234
Ni 8.508142592111579 2.2360409954163307 5.806869480977687 0.8938802665756154 1.3065492659405369 1.8082923345559954
Ni 3.8608818244121483 7.411563634371442 10.876735094588394 -1.2638100752007977 -0.25866326243800614 1.8090433537894068
Ni 9.13532391500284 1.067193350469421 11.23552321998051 -0.20112891566696328 -0.12869656873816546 -0.9773238770132523
Ni 9.07313879800229 2.5419806084351912 13.530047992374277 1.7150715901269364 -1.0018992523597712 -0.31808968402543925
Ni 8.288573781089744 7.03987616690832 0.34367858379989746 0.19066426869021358 -0.7197646462727024 0.6367157001703228
P 4.220104361915549 2.1187776319295795 13.459755089587988 -1.1367993788054873 0.43738192873056936 -0.8873625200617556
P 2.8471016290387867 9.178951169861863 4.904787150885927 1.1902515850873565 -2.386702871227522 0.9768379385157692
P 0.7324978882084064 0.4925591491076163 9.28596724465934 0.10747828278933748 -0.7798143032664312 1.1733316694035665
P 1.6174548928853563 2.935900301721995 5.496659234119641 0.35660095272676 0.3420963313526818 -0.023868579087481474
P 5.513694328325043 6.871060085632931 1.8260973556007087 -1.8969347155857523 0.9960471644543685 0.2812218644648124
P 7.305239642252327 9.040255568593622 0.21599025986101225 -0.6289375988868007 1.100188669560989 3.1051606257633426
P 4.193797778388615 3.537500611636215 8.707765654760555 -0.2709505644457914 -1.0908313967158052 0.25500226864665115
P 1.666849503397386 6.099629756110777 8.143436415644555 -0.8924242508553792 0.2639124266520874 -0.4667215582349511
Ni 4.153463497563726 0.5719728457935391 11.743855156580443 0.46358738348134354 -0.2018367403672653 -0.10306755531615153
Ni 2.4883535030487787 1.9290037243860914 8.984306637447547 0.3786005969263028 -0.4125553566051927 -0.13139571283688337
Ni 7.895314543047074 8.389000186944333 11.995712787291227 1.2450531063082686 0.22736522365567294 -2.7857738201930347
Ni 8.047572732286415 3.1730037343662754 11.335645444335338 -1.0177976687575825 -0.21289634061553658 0.0048362450463787674
Ni 4.784505227867884 0.0942078941545353 0.54793134468839 0.30584094856507327 -2.0717180513796514 -1.0582526914488355
Ni 0.9098264003839011 1.1714987681099844 7.33669777668351 -0.7946858210616249 0.757543664793689 -0.7866475241381807
Ni 3.8442867236299523 7.39103370868405 6.404948913287613 0.2594644181830628 -0.48071555852119785 -0.38964091390086447
Ni 1.4354111023542029 7.882477525625868 6.697787326787614 -0.8087690386275684 -1.364586006269295 -0.052053269051813573
Ni 0.6946900812469952 7.279612118342602 2.0818907414353416 -1.3962928504542726 -1.8417986938435569 1.5344809036226412
Ni 3.382898271389523 2.953453527717513 11.186987201285856 -0.45778286098442444 0.26895538839263355 -0.33519189092336465
Ni 0.5418877140952327 8.909866819903016 13.381021382737927 -1.0519051519642528 -0.2972375231667784 -0.2603226524183001
Ni 0.6929254564609063 4.126096464771562 7.278018653788795 0.3225356356119348 -0.06231505598913785 -0.7460791157975151
Ni 8.824491351865461 5.284721006714192 10.189220720036122 0.11607836575352266 -0.34702847854697655 0.021130097110395867
Ni 6.0838904564899945 6.884594767044419 7.899964706096973 -1.1681254426122785 0.7152685581745617 0.37965757743590745
Ni 4.012181888438168 2.680992484045695 6.670707731559446 -0.634740835832139 -1.7098561073642682 0.04316959340893855
Ni 4.124505790873716 6.473568352715878 3.802786878831964 -3.4995781351172437 -1.3117549785111924 -3.3623015380195516
Ni 8.131264504560752 6.08959269683724 7.823899796564407 1.9335490243746765 -1.6658275083891438 0.7045959089520639
Ni 3.8211335813390965 6.503205119023096 8.784864967436047 0.8989941907634129 -2.247440611158368 -0.5374196960814615
Ni 6.81739577150037 5.658538674894311 11.885393506054426 0.9809679015237429 -1.0826352340582581 -0.21709906584297448
Ni 8.890555480651983 2.2631847757316046 3.5697038512090202 0.36895947429211295 0.38201322215227757 -0.6363403191087751
Ni 6.512786371156314 0.5527322031601902 2.423319126311913 -1.3445188032057747 0.7938646107119103 -0.18090127576617876
Ni 9.158718914143659 7.575561183020611 9.566226311305213 0.10469866316167131 0.8984959109707558 0.003481787901013358
Ni 6.377262815497225 1.9741751422102753 7.30247038132023 1.2399695211377741 1.321645755262343 -0.6143332187100646
Ni 6.162466026168924 5.174490096249493 0.7104898450802687 0.18721333402713566 -0.14807600170604174 0.47930710820944544
P 6.70073705013853 5.670678028325234 9.80245440819635 0.006488435937821084 -0.0805655175588935 -1.7830649274477746
P 3.767041366625829 5.184722501440309 11.425135269478256 0.24302375612853627 -0.6304329524854045 0.545160516369145
P 2.9497512574757456 8.195142619511055 12.918666433316291 0.5513831002400892 0.538612173727666 0.21089473680447549
P 4.537960075888442 8.56434640316877 8.921161534796369 0.06141234166921036 -1.87285170649462 -0.5253046579854824
P 2.3497509236459075 5.67384077174785 1.8785551761394077 -0.07548347505029582 -1.0233129421488572 0.7138485378985835
P 7.898784258625414 0.38730490844026827 7.134574286293361 0.5210880488009735 -0.23839217089379588 -0.8106868244755716
P 4.851127487846633 5.671189648584775 5.511240411516554 1.398321450848527 -1.3025432301049373 1.5479938505074113
P 7.428223850459398 3.8261660642556707 13.295752889845549 -0.8966501160112685 0.6974924651380633 -0.10889933150658018
Ni 0.16271105625108714 4.700646016235878 1.4723882240578507 -0.4780930332966863 1.23637820424209 0.7143213637699439
Ni 1.9024645861957297 1.1537315918241131 3.704502766536869 -0.6560815062914443 1.9628667995021873 -1.704923188839025
Ni 0.5271446786525743 5.85194043518727 5.569102802433311 -0.3530489737094436 0.050686470611273994 0.16095260055839375
Ni 2.1963392632759646 4.3213121514392565 9.316464463221239 0.13915890172207002 -0.6717582935967528 -0.01053920896842701
Ni 7.4169123916302775 5.5699911612476045 5.47326888607209 -1.537213986283088 -1.3670786907841617 -0.5660944383083348
Ni 4.938633156601185 0.9820969480279808 4.909675449911175 -1.1181079730435712 -0.18730769351315485 -0.8119307241850017
Ni 4.115417554626965 6.152205714418496 13.379279083199526 -0.9970321540754572 0.05179461607378821 0.14873034746058902
Ni 7.068099000861897 9.068376078495291 9.141229873235247 1.026068393406807 0.17859345356860856 -1.2637203437004687
Ni 2.208022809566569 4.158309936749558 13.279319647109098 0.8596072043253583 -0.26728879932348804 -0.2854004213225343
Ni 3.6815356679767555 3.9469270498803737 4.5847882131348845 0.06763878219489641 -0.3983235292765269 -0.41372340877136493
Ni 2.323072252657489 8.135078401040966 8.946716501651105 -1.0932968275371624 1.3775402524371179 -0.1386955889324063
Ni 4.163435441531503 8.636922062531266 2.8333799736779026 0.01411947012051762 -0.27590867978201516 0.4270882601140451
Ni 1.8651628181819369 6.046346831626237 10.820152684539144 -0.0965832331433885 0.5950422316909366 0.039121134371177785
Ni 1.354463475108311 6.540348749865758 0.021996880504293225 2.511612719229746 0.75364715795276 -0.13845210546303252
Ni 5.368375570242381 3.6930424727231554 12.388252036095926 -0.33408014591642465 1.0696982142816158 -0.050870561597622065
Ni 0.3572058234621562 0.0869726534659747 5.1932014444688805 0.08188526481158155 -0.09650070073191122 -0.7513694176621769
Ni 2.0955128634002786 8.833374940008396 1.4963357730789748 2.7122520968547996 0.3236543225974103 0.08402287997987463
Ni 3.689591361517889 1.482889462439589 1.9422444567030073 -0.5559678913972941 1.0130935784136939 0.9117111241094491
Ni 8.715739489060162 0.017401600354963142 2.3907800778051183 0.8389147089730132 -0.12403155916232832 0.0037671803519160924
Ni 5.866796027087028 8.257885867703832 10.909764368325693 0.35349043212223635 0.020672954968319234 -0.22591357881081092
Ni 1.814186835958599 3.1379716998675367 1.96684594943769 0.4274973226270057 -2.110344248392282 -1.85025016704502
Ni 6.360825851886161 1.6553240942779124 13.196624139012885 1.566715595286631 -0.1923236586705075 -0.2860786783364815
Ni 5.738044463226951 4.90574062500598 3.309104955809319 0.737907121509684 -1.0422285481064373 -0.5390181509168329
Ni 6.3214403940880555 3.2600722003535827 9.429126035028084 0.34158905269896006 1.0772839970486736 0.6148726361533023
P 6.751992097957981 1.0025617584096127 10.969315106098936 -0.009933971284260311 0.9742195270563156 -0.2671602441654237
P 5.324534365093004 2.496725470932173 3.036797398215363 -0.24512331897004236 -0.03213210464785434 -0.7186888967100203
P 8.043516978956237 4.617624001392213 3.5124265678254476 0.8796021593900463 -1.4088992263643736 -0.16992009416432674
P 1.0592585853532703 3.0241501453995143 11.43593138717322 -0.27621824060263395 0.804593309983324 -0.3860675947273093
P 0.1767768925138443 6.888269130726576 11.858626464293904 -1.2491067075523519 0.4762624078458508 -1.1501698865751224
P 0.9006860718925414 1.1908194095475524 1.1876799215912794 0.09204934982877695 1.700350481866678 1.2237080649735892
P 8.858258288995154 7.579384381687361 4.018715744261831 0.9738081505505098 0.5680333072022604 1.0318310069221972
P 7.804125208423828 3.964043073108648 7.1019943081658035 0.3501639388521647 -0.6393670217502408 0.3484161029231225
