# total energy = -340889.46248103026 ev
CRYSTAL
PRIMVEC
9.08577241695048 0.00000000000000 0.00000000000000
0.00000000000000 9.08577241695048 0.00000000000000
0.00000000000000 0.00000000000000 13.29794633616294
PRIMCOORD
 96 1
Ni 6.736064241002016 2.326212061591754 11.241817653602817 -0.7732381927108102 -0.8900770907794413 0.7698229963816742
Ni 4.646999917234275 0.6563380056293262 5.966908203091905 0.8519918538719456 -0.8492266324219826 -0.21638969848077572
Ni 3.071926807459953 1.5209855084078476 4.416021418672456 -0.6028820394503295 0.8177306186962303 0.653407559003707
Ni 3.4517120816273694 4.6486171846697255 4.611341896014241 0.5856633615791978 -0.7493521301218321 0.4855322631835509
Ni 3.924726463407989 2.6391896534397206 2.37543877487977 -0.4026244706447259 0.9734265988413753 -0.10816836687782662
Ni 5.3128961551225515 4.648362783050666 2.2496935060419183 0.13241078436495904 0.2525216683166425 1.3954991509083838
Ni 5.613798755837301 3.416531972020283 0.15969879921018773 -0.005185400855681393 -2.393648192197104 0.3547955240869051
Ni 5.6037498918844495 7.9848127596998575 12.463725892912668 0.7069001316052084 0.48662986712310385 -0.4652326323942504
Ni 1.981752269385173 6.763303385785603 0.2226459369604097 -1.823781174220214 -1.3663523541410985 -0.4564379169207558
Ni 0.8482985644451041 0.07954956912548801 13.485313754489002 -0.2282661382033875 -0.3355742139634479 -0.06278711052954994
Ni 8.042325697151526 9.330724525334213 6.705967620890066 0.04715917418430588 -0.47358666078590045 1.1920207611726374
Ni 8.930732493995784 2.7020268533474208 1.5148753266643649 -0.27610228385006 -0.029927640797367816 -0.8205403202308836
Ni 6.943610533294033 0.8752787647235764 4.826383041719193 -0.23961113090256153 0.8327381478486562 -0.46518301010323754
Ni 1.0977975008744563 7.555646314118567 2.509840967383333 -0.16862040151629668 0.08809139362229344 -0.5193291571283378
Ni 8.008562967993484 3.9669117033113217 3.7734383634393507 -0.5277150671991879 0.3924159055428403 -0.2119288344959447
Ni 7.768098923349589 4.167643666521387 12.405853158885472 1.618605856398019 -0.39642862624665914 0.40565400149966907
Ni 8.401967814552695 7.339304994424779 9.120409798280503 0.679140702103753 0.23518831924451752 -0.32622799686185755
Ni 7.002004790640301 0.8470510879345015 0.10657974115056132 -0.44527650098729765 0.37151746482727627 0.7060159292280421
Ni 2.010526909655226 7.234691414358664 9.01977033493498 0.31601403244333315 -1.0701957227433245 -0.5138262250322376
Ni 9.502899906804847 5.165497674193891 1.1892139969518596 -0.2810172046531741 -0.17313037357150826 0.07216623775160474
Ni 6.594744141614457 2.4451357327299674 6.741832797714191 0.25362827111726 -0.5620968871131674 0.8257756004878941
Ni 3.686969978852655 4.773137691427247 0.3872174357527981 -0.8985373057316526 -0.7003258208218003 -0.31024396272877536
Ni 6.335935923081949 5.912647972055355 4.567990951549289 -1.1498119890150715 0.0692367228096356 -0.3923328589107307
Ni 5.420489868440507 2.9938255104086826 9.210982226128955 -0.0907889950591146 -0.11441974710417716 -0.4466870081815791
P 0.2404040785479747 5.908304972987125 12.128510873827267 2.0236710752737537 -0.8971167712350421 -0.24373620881452862
P 4.178864595076333 6.274779591014463 12.249655107668985 -0.21317067732284575 0.04675679653956463 -0.08015568371498454
P 2.7224789263653837 8.855611330196353 1.5290373196510814 -0.6120799038995136 -0.5456282000341829 -0.8758812588950334
P 6.419452340310343 7.917823361938222 5.592278196019287 -1.0530719185788442 0.16150178819364447 1.6401668703982464
P 4.922680414573695 1.4976532456312468 12.424856051252007 0.15442019875651472 0.0068411912915495076 -0.30365242555418676
P 4.2151895119691885 6.386007613176126 8.348091003099155 -0.2952487748715238 0.17761129216099733 -1.4054991995438892
P 5.224527935587807 1.3215164675209705 3.5982110711172126 -1.9481158664452574 -0.3280406245905641 0.3960905261809501
P 0.4598518237259219 5.640111151865741 3.413263819792579 0.1318618538400245 0.26675169587309544 1.2287476842800258
Ni 0.739293830718579 0.034551374177125636 4.403601168199086 0.5636611462764938 0.24789959616359886 0.49250355229506154
Ni 1.789597275046257 6.783510142956616 4.882912898628638 0.39897247571443545 -0.6367195568250648 -1.1429108910198638
Ni 6.324124419339899 5.980218859231983 9.202377999941477 -0.9377751681863528 -0.7115728544905294 -0.417962386553377
Ni 8.861762397914328 2.2714339415449754 10.21332733095507 -0.12596528584993144 2.6128424500062097 -0.3056226619066801
Ni 2.639053366858082 5.437307632614764 6.788920720247686 -0.8353143932162647 -1.1368186620791971 0.9666311731860966
Ni 0.651609769823663 9.493268988369024 9.268548769636068 0.4207728594189785 -0.5182863176861202 -1.857546700706433
Ni 1.5358498315786107 1.272707699749981 11.415209619958883 0.10315600126489975 1.5208499431027678 1.2033441566052565
Ni 4.05547980983247 7.0526216270610345 1.3068502141821898 1.4764683316635991 0.30123713124447477 1.116608248569593
Ni 6.315184019584379 8.201644711087546 8.031573594437418 -1.7872686811164769 -1.2838965615380276 -1.3677656895488575
Ni 5.734348780183073 3.2539148228085977 4.671236214335749 -1.19548866511658 0.06402458248107683 -0.9105636407685673
Ni 0.7478762510529938 7.9441630152829905 6.647909537111841 0.18775455124258633 -0.1301225025514146 1.0797077759988178
Ni 5.3102976242993005 4.902092054974093 7.044945966783125 0.09330481950243286 0.4487384913939691 -0.09718281440060038
Ni 0.8072799376806011 7.856076454683634 11.01829221390223 0.5362904675730248 -1.5472636572096061 1.626624098716805
Ni 4.991223479366015 0.6234338819356109 10.333274968609997 0.27327509881391 0.5036613686840938 0.6140915350129037
Ni 8.169044960759491 7.436995216143632 4.6007969489042235 1.8876538045044586 -0.15656835544776906 -0.7808944237044875
Ni 7.52966100588606 6.3733420468558055 6.946501625979202 0.4866278102405748 0.3825372129765477 -0.7004314931617291
Ni 2.5628237388613204 5.436653457022896 2.512301394470523 -0.5169645135509033 -0.4357153396614238 -0.07373975288631172
Ni 2.445408305893246 5.438307067546782 11.135646772197173 -0.060756196142450196 0.3917368771979447 0.5586325827136508
Ni 1.2402260644593468 3.3275822630705454 3.6554859613396182 0.8182813489933779 0.7872543044842442 0.32304394270692105
Ni 1.5324244954934165 1.3027816054316592 2.409202412615022 0.509121877578033 -0.45112344668637794 0.14004876052619106
Ni 1.4736486357185596 3.337040551836294 8.192186422321797 -1.3465214354581003 0.5778862887369403 -0.8850888935362305
Ni 4.030366735722452 2.948769166518821 6.868016909344921 -0.19908720264658616 -0.19606795620428813 -0.020330226916919825
Ni 4.145447125258444 6.98674069349673 6.032999017991934 1.5273633187412534 0.8507692943187541 -0.5249411039984766
Ni 8.251307541436807 7.180976329648669 13.415633151028603 0.17222791636189694 1.8099535243085025 0.6512887128884912
P 0.6844584703075117 6.004714100838571 7.661983465153811 -0.8776643189373852 -0.10650949111816495 1.07329415916299
P 8.678456945609838 1.9711582591057661 7.853966738399862 0.3272291844328622 -0.362069432040499 0.5929136153837078
P 1.9820339283205604 3.3743103890285124 10.309604715110932 -0.346599618539674 0.3840479931941192 0.8587654251503533
P 4.455535441575663 6.252973737952219 3.467492250626747 -0.5875536366233752 0.4994059358418496 0.30513672340919706
P 7.170255118559733 4.0345007620321685 9.935693392612158 0.4825078745349303 0.5166624089294521 1.1940071954750469
P 6.528845036505933 7.88382440270534 10.348288298443352 -0.43094234375281265 1.6022153308551375 -1.1112369569553506
P 2.6701812221044348 8.634381865107779 5.887319565146348 -0.14305977943837297 0.713573686970642 -0.6901360247729921
P 7.371241483388856 4.285349844196959 1.4210320208565759 -0.49091383921043846 -0.20930656638174924 0.14096844412698303
Ni 2.8049959086617586 1.671600352663189 0.24715935011121568 0.014742962637129448 0.6326129908558589 -0.6448720107288701
Ni 2.1564898385906215 1.407976674912768 7.126182763789304 -0.5780441544710432 -1.8499570612846332 -0.9836325928400995
Ni 7.236381367970988 0.6697404280677081 9.307404982638564 0.41806368801793165 1.5466800167919943 -0.17451311285164783
Ni 3.1510638825316803 1.8333725250687116 9.363974816945293 -0.13462656106935525 0.02989653044911625 -0.4558499056277698
Ni 6.632768097891745 2.2898689731546806 2.266182365265818 0.13087737843956815 -0.007094702063252298 0.3133794230339635
Ni 4.262798957821754 7.5029942647453565 10.189989616715206 -0.11782902989604221 -1.3369109089515299 1.1959123829175597
Ni 7.329565046723643 6.315356649254455 11.382908791533223 1.0738364048197055 -0.40246840468283585 -0.019551953989998583
Ni 7.903340641196048 4.134526027183104 7.936001266197235 1.1452179418864858 -0.020259264469668335 0.30814491410790157
Ni 3.2728586576564225 8.3343333269713 12.687596591953408 -0.0372902518100261 2.2023123513611615 -1.9953670861227377
Ni 0.5061111238430508 5.029465494173926 9.745758960976747 -0.9541865196648405 0.4151935655589881 0.3173841733179824
Ni 9.145283916584047 2.1420252893926666 5.587570857489476 0.04535683086824446 0.7330253679373505 0.6792337760381915
Ni 3.8328602216111762 3.25525951708077 11.519079983866462 -0.6405834106558452 -0.8118001121444083 0.03272474392653074
Ni 1.0854317650337422 3.624995927295336 12.70945877680273 0.8578832796557161 -0.1067213500186549 -1.4222257682699506
Ni 3.737759444943465 8.796880899282042 8.15981926775974 -0.5046725835574276 -0.7663404371497125 -0.5850645516529344
Ni 6.134358983065721 8.356239123526747 3.281906269522832 -0.830682293760892 -0.5525719783418678 0.6571922228571198
Ni 3.4570272583112915 8.366088100493194 3.5835175604621035 0.24744939600005775 -0.6623889365667108 -0.09391597072387052
Ni 3.5019654871637327 4.426315598472256 8.915182195030772 0.2430193852531621 0.19347551288676354 0.6110638039301733
Ni 5.662235006951811 4.667324789442709 11.487763144560235 -1.0508584558672935 0.5017952620096326 -1.5129538281841428
Ni 8.365751926925151 0.04447122016602481 2.0408088795182064 -0.7347055838532508 -0.1710398095910667 0.6164173549326029
Ni 4.770548246376106 0.7196503914183408 1.1422360122608877 0.9063220918833941 -1.3620251875206544 1.1602830637497243
Ni 6.190972429078572 5.697278829977258 0.2705397674799959 -0.4750362487482336 2.3082664841964893 0.005065073227733212
Ni 8.038927618382658 0.005525966596857004 11.483282041755944 0.18654921808057548 -0.013073802464822645 0.09968089823210574
Ni 0.3318523748277605 4.844515517117659 5.8729049876949935 -0.27598966953159565 -0.5201925335698976 -0.8079830523911633
Ni 7.6195556351351605 6.375913320362729 2.2753580865189686 -0.1481395079541255 -0.22632495531661667 1.2142988558445473
P 8.517938609755396 1.6577718075128827 3.537638954196353 0.9787762931890627 0.498656973490967 -0.8767302371588901
P 2.0516945430823204 3.42836164730655 1.3644621865498492 0.13697372114529313 0.1366857575912291 0.9920095040498851
P 5.302947234662903 1.1505949226014147 7.989259336570132 0.08833256309882208 0.9709894501547922 0.7666952493859699
P 8.710911323584146 1.930390399651479 12.553979410160085 -0.15526403481404874 -0.2554475837141858 -0.13168084817747
P 6.225371162284262 7.91324413279515 1.2732028743299362 1.5409289732408302 -0.3706828847411229 -1.5943534116085574
P 2.068021675562676 3.1554704820046755 5.836694551530715 0.5881095091268452 1.1644101985442206 -0.5938343274257644
P 7.134929636598897 4.414104320757399 5.891441779952323 0.6878469716284993 -0.19382261181353716 -0.34881333836154116
P 2.5680389720520402 8.997040458849224 10.289312551682094 1.4985062853002449 -1.3419664690975663 -0.6808548565813822
