# total energy = -340861.9866280922 ev
CRYSTAL
PRIMVEC
9.33294022117990 0.00000000000000 0.00000000000000
0.00000000000000 9.33294022117990 0.00000000000000
0.00000000000000 0.00000000000000 13.65970140175157
PRIMCOORD
 96 1
Ni 3.3923184379233167 8.089279253428941 4.93169826093954 -0.705955765414068 2.3729513259693844 -0.6711813380473602
Ni 5.4447533160700825 2.398164314906161 2.177438412594126 0.733454227944653 -0.23731410733826871 0.318746857993464
Ni 5.454375577416021 7.338444214359368 4.314772247855923 0.34203591042839154 -0.5636038106759971 -1.9548447005286593
Ni 8.937428859961269 0.07055982779214051 6.375774765106056 -0.8811821022826567 -0.310325209588672 0.15972309902666684
Ni 1.3592587436312231 7.320058322165869 1.2653217672267587 0.8281741826270576 -0.41568001827710344 0.8163550785049425
Ni 5.393926123742266 4.565861004519792 7.181259768809264 -0.2866489490176547 0.9812898036395358 -0.03245683497712475
Ni 8.104183958927937 5.9105416955590115 1.3234053205598786 -0.07564828276293423 0.03466721236488223 0.022178592979568253
Ni 6.473532647228296 0.3338094055362792 12.404429485362954 1.2717997782744934 2.7371082366665314 -1.1268592368736399
Ni 5.028774838427199 1.975288794455665 9.41160288621967 0.9511685587741232 0.321474284226956 0.38272053263194733
Ni 1.6281034190251096 8.814103388161824 11.658992618904914 -0.5677975370423706 1.0184874957357557 0.44173609193420693
Ni 3.151743238394461 1.3118100756557138 3.084005691718724 -0.9689796188136152 -1.0777092575115503 -3.1123669137037946
Ni 2.3303045067138073 6.058058148356199 6.603263315886828 0.5190558488622932 0.539638043889019 -0.28144092245415403
Ni 4.158300838937079 4.076170965179314 3.022537080975156 -0.833661173883558 0.795018007590063 0.40853415126094156
Ni 1.5581250334074133 5.767477055237104 8.806314116271116 1.005107989105056 1.9451524129415598 -0.11441151957406101
Ni 2.0213281884610126 0.8724908478672851 5.092186567320354 -0.8335174492168418 0.262787826129341 0.052195708166948816
Ni 4.5955490872951845 2.6099287280384003 -0.067895273365113 -2.2452862838195267 0.21101969241811402 0.7481766217564921
Ni 7.966401762759085 2.3291378891888392 2.235327840771091 0.36502208691091975 -0.3401636331063432 1.3741708217442528
Ni 3.7609882416936875 8.213874005095553 1.9014848366500927 -1.1282077804817343 -0.29414731427722884 0.24087302833412066
Ni 4.547363117043895 6.650251869910489 6.140527741137236 0.8457733837660594 -1.0111639654911488 2.8066740606808116
Ni 0.7857822336475239 1.71888492834804 9.917612504793425 2.6108166778254325 0.18031994934141204 -0.25636906708719076
Ni 6.140477343260156 7.33910685311355 13.517121281857085 0.6175388701315558 -0.3979885145346113 1.3240384238642358
Ni 0.6149959610503098 6.711634617604219 11.457839758779784 1.1833330035906524 1.2637905348167717 -2.178065048778023
Ni 1.5555491419122833 4.636707353576065 2.0180569929210015 -0.11545307346469795 1.3949625616786232 0.04035552099891115
Ni 8.728361666546757 7.8414056946638855 13.672951517784206 0.5005135670837315 0.5307926776832471 -1.0213211085298088
P 3.8862642979948796 4.603062104155979 5.659746926511435 0.6811855004479236 0.17578580891648438 -0.9136278815161878
P 2.346189170933775 2.7085499071291177 1.3255630963340599 0.4634284893059761 -2.33906058675921 2.945542941966288
P 6.022406316793169 2.8730896428506414 12.024088839872801 -0.4786468489176274 -0.7694920954048167 -3.7324069529906487
P 5.179884473201288 8.942589975891728 9.576038093010958 -0.13552927538928272 1.1150321623317248 -0.4133338866424301
P 9.119159871530726 4.522817484318563 8.163556391302642 -0.04594252816838539 0.7695149782229522 0.9803636922808405
P 7.7035021702724364 6.382835134367164 12.28258515117321 -0.3423336441744685 -0.7247196762851326 -0.2790138010699001
P 6.799905566013418 7.248045355584627 6.060604174442689 0.4703897511151576 -1.3675142356596837 1.7042241058894716
P 2.98269569255646 2.789009184591129 9.55498857968445 -0.4368468821627058 -0.7697695174359195 0.7544058904956555
Ni 4.259087260154137 5.721474992992555 -0.14215934512253275 0.7981020458320255 -1.8968393276584685 0.8811224526893149
Ni 5.241155225612621 2.19420223978091 6.676042516858467 -0.49042224428600056 -0.0387462675302623 1.092621912957325
Ni 6.994777357384117 1.0449813153449727 8.005445184790704 -0.9498498399626998 1.5436792822924577 -0.7868429279784384
Ni 7.570507772426055 8.358786567577011 4.549992206298164 0.5382871862880794 4.171064405999532 -0.9433071537481754
Ni 6.396115908271403 4.62509717596758 13.054904618582599 1.0060351289050158 2.068721430645173 1.9609361581383775
Ni 7.48206883109326 6.2064425645919625 3.683366178052399 0.4014181090414506 -1.165353022073464 -1.107532254410254
Ni 8.857165574243453 3.579555884210623 0.4907735936976692 0.9314906207292216 1.2566004448262358 0.08588795821307144
Ni 2.3560634216651066 3.2638225172532125 5.367074321493575 -0.028516362272137986 -0.9509448727990912 -1.3280346895078228
Ni 7.659833343077825 3.9551600625494054 6.32233808269839 -0.5404571973562048 -0.08016751078952646 0.9263643552462497
Ni 5.702379797343874 9.163789991565912 6.072420610029589 -0.9341655964582234 0.4335237313267437 0.17180162745775573
Ni 9.23881749783167 6.8240218834895625 7.700219775204186 -1.085802576042646 0.998981564492344 -0.1848180943220817
Ni 8.623972730412596 0.16630552800731588 9.171410337239005 1.3032549114599812 -2.995758129368099 -0.0599871791869096
Ni 5.588163275179381 7.973317471447096 11.466322468127334 0.6047841415690488 -2.483874115663897 -2.4270576208954844
Ni 0.6235887990922161 5.733449155268829 13.372177920672968 -0.3358171832121894 -1.8411880568427517 1.3236003078855527
Ni 2.2481093023746435 1.9131874103665545 11.929905473847063 -0.15392243318448975 0.6950463175904159 0.40984181432877154
Ni 5.84739502216753 5.257301212158182 10.91698374138224 0.20172592582101384 0.6834688971654617 -0.9070972794865216
Ni 6.602709872532982 7.878466800197078 8.21872806729344 -0.5775469031196505 0.3317975205298351 -0.6320512048151179
Ni 9.107559026862441 6.777982489484214 5.2073242506825625 1.085727756940653 -1.1776128132774235 0.7131062604159203
Ni 0.6677177402386757 4.592982528740254 6.222417758331868 -0.9925046985187487 0.38146711984082043 -0.5688205789902462
Ni 2.7396659297550707 5.910915013167002 4.0742521126742455 -0.607641922732818 -0.18007620876172212 -0.0011261431846432217
Ni 3.740045123885457 7.79896881557564 12.914182546250828 -1.1257986568196097 1.5508891697773353 0.5117588009802476
Ni 6.51275899488783 8.081812901269146 2.2619920509217657 0.8717011593754149 2.084438327159797 -0.5648204566919176
Ni 4.047546837586692 3.7949041463795647 11.692076025324974 -0.5239100916308009 0.2624533256080577 -1.104425333350156
Ni 7.9058403138029325 7.303109702763129 10.095857663198275 0.6057701596314018 1.4078201343675818 2.0738399828186607
P 3.4222585100841023 0.7319806332780474 6.720313318695963 2.1711271840076094 -0.19267307159012625 -1.3243019619382677
P 9.318698133001297 1.7262952828666385 7.777505852998283 -1.8824766311788934 0.8993369188148124 0.22564052765508238
P 2.5932694297818535 5.933444730809189 12.271793472420242 -0.7130093298267397 0.5322427798662124 -1.1816180777820746
P 8.674827921561013 7.722438705937722 2.803817760806066 1.3388328085645909 -0.7040107258725553 -1.6392602994235765
P 1.2571097131450022 7.9327751792194 9.48582962621629 0.09431397749323758 0.21357254074695478 -0.46859794932205745
P 4.9443863931410945 -0.09547037847928286 3.3965527928919417 -0.021314702317376193 1.55890021300727 0.8967683867566878
P 4.6769603246575695 6.347612618053322 8.546834113073656 1.0054615157897329 1.3057324264661965 -0.756532192810039
P 7.255726365369018 9.255187474942025 0.5206399356308767 0.11014220277474579 1.464125236717214 2.7877240019408696
Ni 3.6729226179688834 4.861827204134141 9.519582204448673 0.2588105866491478 -0.060251488591889786 1.5367524732656372
Ni 2.354990133542136 3.9917265222520104 13.499773212613798 -0.13044543310847212 0.8696977557921409 -2.4483227009218482
Ni 1.1765944380417923 2.627409325032525 3.311726632710469 -1.0025109178018412 -0.293933655604526 -0.2799229431477308
Ni 4.5582453253168 2.0634384146422673 4.479139324183751 1.9378409668818108 0.07802912429028497 1.2308734723737769
Ni 4.2924245225476305 0.581505638437541 11.761098717866215 -0.4725993571719667 0.8039088823217897 0.8989677084008518
Ni -0.08699793536595334 2.3610192129111716 5.685345314891298 2.311733873919799 0.7316606263793399 -0.22304294213123524
Ni 8.636600198502853 5.054925736866888 10.725569804355544 -1.9244920563787307 -1.3941531784034504 0.372346645596791
Ni 1.2704091529296402 8.194694812985075 3.6277297216396525 0.28879144928195427 0.13811014874258148 0.6923150347021819
Ni 1.7476023853426588 0.6667209822253427 7.944591614806298 -0.5630823909548883 -0.536754551693637 -0.24627902984104041
Ni 3.4998432419645917 7.726069219675423 10.489585478110946 -0.7505124689785204 -2.1355132914587416 -0.41047379148581564
Ni 5.367093920667995 6.185695438527926 2.1067628563435083 0.7341216863253228 -1.6416028315138245 -0.15534451034299698
Ni 8.104025298944542 1.9493245548199711 10.61368371735893 -2.548012598015018 1.1885232895423403 1.8268001635521958
Ni 4.991387079987017 0.48146678573048235 0.7372276122583448 0.44220943202619967 -0.5449316881877906 -0.028071304314919394
Ni 0.0712439323087819 1.3411061749427169 13.240827053595762 -0.6290419856751489 -1.278173285901005 -0.388424267884944
Ni 6.873915781797405 2.452426029227485 0.13310919301083896 1.272022435808261 -2.420839665010231 1.7633088278667695
Ni 0.9978313014558553 0.28936781089312813 1.7876724307962488 0.22072534974165212 1.4337044583335117 -0.5153876559820866
Ni 2.731219618874301 3.907888720437691 7.596119226922197 0.1591343164027324 -0.8387370457445684 -0.0760678867988561
Ni 3.1245003859514027 0.5729519987444737 9.82632515011167 -0.8004211808835054 0.6686824828849064 -0.637481888912386
Ni 7.26152212123306 5.671021118272728 8.768859160661496 -1.0431731714078938 -2.6309751550511784 -1.1036825416468605
Ni 1.4577492615591439 8.12430577799859 6.158654177593182 -0.09368225744650963 -0.04570650089817935 0.2692598070069298
Ni 6.272454450624767 4.574615302427154 4.442011954775141 -2.1572499118048847 -1.7942181158511163 0.5336782267611583
Ni 7.237228477893121 1.6432974456702965 5.228209504261554 -1.6205976900170669 -0.48633599003176886 -0.8007873059736724
Ni 3.0935430233088446 8.077715740521457 7.931683225216029 0.9880818868607049 -1.1517251468773841 0.11955912521327151
Ni 1.1775837297029654 4.0404351371544855 10.03505822426703 0.6207815454385696 -1.5797698573674277 1.003592580901794
P 6.717738360494853 4.448480615627585 2.1418276459679744 0.059783804926851876 -1.7029871481585768 0.5065538597405406
P 6.4954557237575 3.388193278355029 8.508751050588591 0.29808495876873825 -1.1608381649222461 -0.04300298592408723
P 2.5272202119882503 0.2658282691213285 13.694533941996118 -0.07291160055806152 -0.3190466486220699 -0.38514816823683345
P 8.42056129875913 9.224818087532052 11.414292259807771 0.8835986821439492 0.04960326484942425 -0.33015227161692823
P 0.2750510806267176 3.248647156488425 12.156724852815513 0.26792360469400955 0.11275444358661227 -1.1393607117747604
P 9.195773977630441 0.85319312741627 3.974221659613367 -0.3246285135852216 0.34611907935882974 0.15975446648523453
P 3.3331475970569264 6.092692689437456 1.8910076779818579 -2.0509749052950292 -0.8856172552358749 -0.10022828609514352
P 0.5332450046646539 4.7214317847093605 3.9606580976210757 0.028512248507079927 0.31355811470367284 0.8893191295674943
