# total energy = -381170.0975598389 ev
CRYSTAL
PRIMVEC
9.27300138005865 0.00000000000000 0.00000000000000

0.00000000000000 9.27300138005865 0.00000000000000

0.00000000000000 0.00000000000000 13.57197484905426

PRIMCOORD
 96 1
Ni 2.689958598271229 9.212374472846689 9.411445411350806 0.07496025555697414 0.42591532285186645 0.4466533267301663
Ni 6.983321133959685 4.319503126510203 3.0888321150864306 0.41962357630588376 0.21937037837565446 0.33888990860024215
Ni 0.3489031671095499 3.5449015042636534 11.788970629544359 0.5705583876169593 1.52885584412638 -0.4466517840682695
Ni 7.794170918505707 7.858414271898068 13.25291140847211 0.6737339292658849 0.6543123302061635 -0.3218545503845102
Ni 8.656198397533894 4.925623587124853 6.676773327842478 -1.4549983347152813 0.440870401499802 0.37472568735192885
Ni 1.2215139225850093 1.0256495879496959 7.998222386037978 -3.5535111376902737 0.03383700315410301 0.3047981091228557
Ni 9.284221687350732 3.5840799349915295 8.711185440972985 -0.2919593054869746 -0.563175721999643 -0.7148381555053624
Ni 5.229574025562327 0.12664787061588487 3.334430337892825 0.3092296625316481 -0.5934203798167974 0.6923818833843753
Ni 6.249613447691817 5.7016439785788275 1.0407219243532675 0.25013542747265305 0.5191450661419899 -0.06741021112385809
Ni 1.6854050884057739 4.544336317380757 13.686386202546009 0.3629675183747362 1.6367552736135358 -0.40753759167562714
Ni 1.882168904172591 1.668954784000744 5.798232488000042 -2.8345581886855893 0.5728245579433168 -3.8089810900019625
Ni 3.623759107792614 7.807542586460642 0.08408943089385235 0.3745248841950324 -2.041896082922212 2.1482903886187517
Ni 7.570376303786994 9.306476890604436 1.7625379136825723 -3.6660313537788927 -1.2868132209641903 1.2021290532512328
Ni 5.860203028760118 6.189478033900036 7.1259649319141705 0.6037461872228377 -0.5549229950725475 -0.38573437975760666
Ni 2.745846977442095 0.6845283235778581 0.33823550634994076 -0.70892693222725 -0.23992814792234807 -0.6851748241129748
Ni 1.262917873638256 2.8463663121379947 1.706974089559156 3.9908737831471335 0.3518063595515941 1.646912416652196
Ni 4.57310116758617 7.911140557606638 8.331088824602961 0.027159076913295162 -0.6098643843054335 -1.0199429972353595
Ni 0.08020682522621643 9.374447990541793 5.867382186409709 0.32272332614270866 -1.630182762602341 0.5973636807352616
Ni 1.2556385675740234 1.0245646467910778 3.4347410300582215 -1.0539165259673267 -0.160951057896497 0.3748434438767157
Ni 2.5842000178093523 8.388292115366067 2.394462355169757 0.6347441782662487 1.993047951071258 -0.635920457962537
Ni 5.424557425068847 1.0849875236248863 1.3225803643608962 -0.014796441582884196 0.8257848564592747 -2.0573877507999083
Ni 0.6483923645947905 2.0747691423306946 13.460685058748561 -0.45586687490863426 -1.4337864765243564 -1.3211891273408989
Ni 5.437530353965486 2.5098120009338447 12.703666901672708 -0.47897569301195575 -0.2540918410172398 -0.1928489350463582
Ni 6.784554349900034 9.047370686723179 6.857253753228668 -0.2621483927731292 0.2431407413223748 1.401514246754212
P 6.469708134869602 5.989079201601781 4.6234971480540485 0.452465305426253 -0.7256221334947439 0.18185206971522228
Ni 3.8045733612276096 2.599732295080168 9.66734501136326 -1.5388258108548982 1.0928612826616406 -1.2158170922612868
P 4.614152744587899 0.2477847965260711 6.860822931450481 0.5712204466809905 -0.18465740037450132 -0.8881983856994897
Ni 8.355057678507201 5.610991117325403 12.763030801751697 -0.0893095823001107 -1.0860655998960456 1.0560297156555878
P 6.1860748424024905 4.549492106134531 12.036563474942367 0.24555217897734488 -0.6646391660534682 0.6204123350246089
P 2.55067811790846 6.306392034992832 12.261790768370536 0.4617181914830886 -2.0552935872750413 0.3408606591733678
P 3.20967323225337 1.2380940490090193 11.138234977506979 0.09008939788892872 -0.5347277510715951 0.9579966374395501
Ni 7.818206538019708 1.934477904820153 7.122925242069768 1.0025194024422734 0.2780339536551341 -0.0925327172230987
Ni 1.0602564290092067 7.339432205023028 0.15803048910401532 0.24058275078721147 0.7375919042621104 0.3510424848023761
Ni 2.2100807781132197 7.0720359379297655 8.530080942595555 -1.37255385496612 -0.7856422228021179 1.076910672869655
Ni 4.903563116899619 3.249324586050387 2.4955334334463215 -0.47062783526789265 0.869002272387013 0.14577023639100053
Ni 3.8418879186829877 3.804016981146267 6.469231502599918 -0.96752154621085 1.1653039140030834 1.5996339432812063
Ni 4.261741601065484 4.827172131731277 10.745692138717322 -0.6368797365520128 -0.7936846334906202 1.6353072283130998
Ni 1.8416737072522043 4.745152434740019 7.305060898197953 -0.34937666706417897 0.080108632527133 -0.19152584535956046
Ni 3.264745587304933 6.552080205912376 6.583642720626808 1.4683508447627873 -0.8148761799665709 -1.4181490270974155
Ni 2.4349974259959732 8.692539289846923 6.803739262404863 0.22350908313437637 0.158731681647675 -0.1819212323902609
Ni 6.8018206784243676 8.29868710326584 9.22887485145904 0.5058223808911547 -0.7434265086660165 0.522380542360152
Ni 5.654351671664704 6.6240108774286215 12.419469810723172 1.1819559207374677 1.7889316706411966 -1.2520557628783469
Ni 7.0044172120439265 4.20332169252451 8.543245822620259 -0.39236036971455657 -0.26798042607387396 -1.3109713062676325
Ni -0.23808709170826925 9.003787580351341 9.465285384522197 0.9180704906685736 -0.18773218264508312 0.3731148912213832
Ni 5.499316361998583 2.405815290729553 7.671409362758001 0.058889318137040514 -0.4173250100796942 0.8112848630708867
Ni 6.080084436906722 5.960601814438394 9.853593243592702 0.5844765403599482 1.0467657738551583 -0.004975341727404335
Ni 3.3178427930677303 1.385136031506518 2.5306437984794474 0.4364828139550676 0.03718997878673595 0.1444692581913899
Ni 1.7393832292973637 6.467862807599815 2.370277440333929 -0.6021739576397113 -2.9331168003877934 0.40910262216990195
Ni 3.7695028701003133 7.027089700358638 10.31087368674698 0.289884682346133 0.15782459645237334 0.620178621747248
Ni 0.3935916152429891 3.8221827908021035 3.475430032706943 0.25187400743031463 -0.3692145277257125 1.475552247607233
Ni 3.2720341663705215 8.937773083700039 4.547860057895926 -0.6899043683781603 0.16047823202513653 0.7083021541590576
Ni 7.902600123358027 7.291620610032987 5.687173459963241 -1.7166242793260371 0.4545198739624366 -0.6771689230893627
Ni 4.658255139035657 4.796803052291326 4.688438758448495 0.9477453920251871 0.7466347311906689 -1.1919960785822892
Ni 4.089745971919769 5.39437380565601 8.563712263912446 -0.2748653261191653 -0.6170434185523761 -1.1380751601941173
Ni 6.785518742041028 7.25603083082977 2.769469948395767 -1.0030238528825177 -0.3011615408115329 0.7425106817199664
Ni 7.276245973785218 0.38530618853166193 4.6960797115656 -1.2788816248219395 -0.8259787176376356 -1.469317836661747
P 9.034518306844165 4.3124185534744415 1.0329112753113527 -1.4155858943559299 -1.0194544876347154 0.21377874322048987
Ni 8.788060476812095 6.274938014394262 1.6836580549503581 -1.1446250454974933 0.19687553970724805 -0.0169224867869515
P 0.7004528488060194 3.5417115917972892 5.94240818577849 0.8111316253224741 -0.651684148554697 -1.3250594089295824
Ni 2.5087085137725147 8.283405197031628 11.750018460049562 -0.025694833662942847 2.992445520055098 -1.0385562414611726
P 5.8497430832308766 8.237197831276124 0.42700780292842677 -0.9771140749952915 0.3672718021770449 1.3151740314950704
P 0.1453858244553687 0.0615866385039501 1.114530378644044 3.2838512670314475 0.07337208513424784 -1.3912002664227137
P 2.8917576537741967 4.3752524106607344 2.1604136555518996 0.4783629991286213 0.8216525794584558 0.3945113546192883
Ni 0.6446201076432877 7.010722852965809 11.338543861692084 -1.356688348688773 -0.8567715346487762 -1.1560659403445832
Ni 7.637828115648431 1.3378993626005296 13.385685951083712 0.22547803393528912 0.22197721987088223 0.5746978637066297
Ni 8.01569364789227 4.674353069389171 10.63376423045349 -0.8202621268688325 0.15084919357580473 -0.3227102135165862
Ni 5.4433630718182275 7.830085252756374 5.262763952014685 -0.7219097176401631 0.13542283171840547 -0.42013291184213447
Ni 8.550671642105911 2.0272728293867464 2.245646447512911 -1.4982982830544969 0.45942039658784745 0.6038852839038632
Ni 2.829137075619085 3.1627518453934753 4.130236532339478 0.06920201291695824 -0.7204668145460495 -0.5139280407174246
Ni 4.18766886623607 5.181716065565505 13.244306990514145 -1.2033271873243923 -1.0940655873823868 0.9817577444148898
Ni 4.706020369018921 -0.05977376673890874 12.291961405581477 0.7395521133122747 1.405135131336251 -0.9701417574425161
Ni 5.846822087803828 3.0597566193356007 10.419422513316789 1.1836621047952969 0.3773834366897501 -0.09172744771298395
Ni 1.3123244248614807 2.238437616258982 10.035796592630783 0.3786527903204769 -1.1026885531647073 0.7265315326828907
Ni 8.620729167348303 2.0751029703795 5.0243040856519166 1.1707006595386225 2.4054171598075738 -1.7112714996545562
Ni 2.271811148138183 5.336436093185532 4.6094902795062485 -0.8569060033441113 0.7440199192756413 0.5661504883572508
Ni 1.9466440825988451 4.639829685341861 9.58756845339995 0.4724324925767993 0.18795818261296016 1.413472961777985
Ni 3.1251498248960696 1.6580497344064284 7.335883427404198 4.82414183535733 1.5286527269766383 3.5578254487949112
Ni 4.933552003283986 2.237760687160015 5.391548322142925 0.17044254232670003 -2.2877249125997117 -1.9804708857371953
Ni 6.7148028337023815 3.638846280998355 5.9357028784981765 -0.2254302114164892 1.0967906996230337 -0.3727474805796354
Ni 0.4939329083128593 0.07961891694026439 12.16119539506352 -0.6201068879690481 -0.07345693153857026 0.1913443254763737
Ni 5.088791318979932 0.6399122048549936 9.463045954694792 0.05374505493193969 0.4538385316246958 0.6751053556921147
Ni -0.14300637230749344 5.963068432799012 8.959607292692194 0.25047507020025894 0.735803702013436 -0.09743349695882575
Ni 3.5425647079220144 2.878627083854511 0.5087919656852495 0.13276533949090039 0.002216290925028441 1.8486601968500807
Ni 4.213169619964273 6.5380130628557644 2.1114058433869705 0.1926800135686617 -0.6478984562600196 0.3878537400934546
Ni 8.737346432397716 5.706558669297354 4.104124687821933 -0.07074261793120074 1.2603822804661713 0.62900804711342
Ni 6.955140482839681 3.509664099111954 0.6504250064919623 0.5624344729582443 0.023966795228242598 0.02113909597146037
Ni 0.7117733288610706 6.866824417927897 6.419353882907823 2.7589965520991906 -0.6769879174268082 0.24319293471654896
Ni 8.943327611512109 8.190730821482658 3.3247539609781414 1.3241451246454292 -0.021369981035343842 0.5948272874666529
P 8.700495525010123 1.7360634948120193 11.262255806838793 0.35248564500680585 -0.1885510790019527 -0.6481596803412063
Ni 7.356003058445682 1.714503766659993 9.247943851446921 0.6928171711495811 -0.48395951937979237 0.7617191363276171
P 8.57226846226336 7.643846293528288 7.720350409313169 -1.2221746590481983 1.6024079064819174 1.2427337141464727
Ni 2.8530892381208846 3.280852790659802 12.0280137676924 -0.3003457297784569 -0.784310648474888 -2.0572576529799473
P 6.535490806487012 2.0706055647219808 3.260029338815419 0.1825822630130275 -0.9188302516527337 0.38456709892238283
P 7.623464236548436 7.116379430412772 11.141057679119658 0.2123579516135633 -0.05168303019658841 -0.9979654645230037
P 1.4021890809996693 7.407097295915647 4.485157877328884 0.7706292943330534 0.8983637562682657 -1.0591109256840727
Ni 6.811826246887178 0.8545200571306042 11.397079682750006 -1.222083899106605 -1.104143540443679 -1.360111258327393
