# total energy = -340892.20708909933 ev
CRYSTAL
PRIMVEC
9.09956216515012 0.00000000000000 0.00000000000000
0.00000000000000 9.09956216515012 0.00000000000000
0.00000000000000 0.00000000000000 13.31812902653541
PRIMCOORD
 96 1
Ni 6.40207869763642 2.0668017021338017 11.426048758777675 0.20526196399873037 -0.5785555468898229 1.009010409483256
Ni 4.52497556322704 0.09076904028914853 5.741818123229696 0.6574228508106872 0.20394427362857134 1.4473076509392429
Ni 2.815240671545884 1.6169648577218099 4.797669415476856 -0.32836072693414414 0.04431527697760755 0.37235538734753937
Ni 3.589786284158493 4.438311335328187 5.103253634352083 -0.19038016179089148 0.471278324367698 -0.863229631569294
Ni 5.205904882620056 4.630867165501185 2.7101862289700485 -0.25800763113187825 0.6076414085121857 0.13196649773868885
Ni 7.389026285009111 6.1699943704041385 2.541951707945313 0.27101998423114615 -0.6273872236805452 0.37614313652474574
Ni 4.66661934435614 4.610374952016491 11.572082168585734 1.159584495020803 -0.14132659879735016 -0.4583271635236687
Ni 5.8331922843877315 7.907755912854767 12.504311360155803 -1.137970516295453 0.8408854595461388 -0.8347721475595494
Ni 1.8343897906717466 6.445174222975455 0.5553954027192004 0.2796990000623828 0.5430722663815485 -0.6087662661452483
Ni 2.2425597409689915 1.4495875154316475 0.22119397150471476 1.3363974596502208 0.9689595642089571 0.8167808531884514
Ni 0.4342893328844842 0.08073677325234827 4.757462091096988 0.5356713459317872 -0.5473446685046574 0.6035245581303348
Ni 8.5273268860989 2.256163586066512 1.4208447291376423 0.6773836102033302 0.3272602947811138 -0.017370887178279764
Ni 6.866547637644941 0.5825748842722333 4.711208107809224 -0.23909202517429795 0.2219042005411017 0.1091402438727927
Ni 1.0724197726576485 7.48735615131266 2.9088260262548875 -0.2645588019868347 0.9069093318454317 -0.5204802400136456
Ni 7.787605297023555 3.959001009798557 3.718208401791474 -0.12882075302085558 -0.24255144447780805 -0.18794635553841826
Ni 7.687064237169038 3.8224256846690015 12.759926244603923 -0.5702647676359405 0.6114204159386438 -0.17811677104250614
Ni 8.02853439845971 8.729200667696555 7.078571980584592 -0.5511087635327799 0.023403209415288725 -0.9934840317128826
Ni 6.774505568640647 0.8242610692616411 0.5374992942554588 0.47277470640756636 -0.6032242532810966 -1.5324744147155738
Ni 1.8265732669668837 6.888077201190582 9.368850734313389 0.2273901633563374 -1.3750241708834836 0.7036158044269818
Ni 0.10150379350757326 4.7166396363301 1.404356322905731 0.12502760452701048 -0.3771134708578151 0.2745241407296627
Ni 6.57582573328328 2.0302214631424755 6.984012972748207 -0.6369797524649868 -0.30888924847309385 -0.23491423964752445
Ni 3.434092779396903 4.427191670639779 0.3063740608514572 0.2566326051612225 0.16778119344445297 0.24714034940007115
Ni 6.279971675988508 5.7271368899987 4.773523727874 -0.4599461871843304 -0.2907506298908541 0.75764188093445
Ni 5.186759404302207 2.770170541266273 9.544343975896178 -0.21835145019283686 0.37593976226468806 -1.1869929689407428
P 0.270616422259339 5.485124940691907 12.387231846478716 -0.4942673290637036 1.352134924990136 1.5028838455426505
P 3.9119653741403067 6.413817132536621 12.792675568019291 0.8502355333024711 -1.2278385422021951 -0.4412172433162595
P 2.3569594336552977 8.529638174831186 1.4755021578752787 0.007660087648419065 0.3304047539473664 -0.2939894485431259
P 6.3895849990953515 7.7767222209455396 5.87827606401025 -0.09185600287104825 0.016491312786803856 -1.151360564449114
P 4.639484450656604 1.1081537523887277 12.491551954406143 0.22086958862900025 -0.8974397017920996 0.2313812867936015
P 3.8210334516924656 6.362131620727982 8.351345907996226 1.0034002623853302 -0.8927507809568626 0.5840139989012328
P 4.764430535629216 0.9480196614013253 3.667426476483292 -0.12138923644347481 0.3515788169218203 0.4439390131227967
P 0.3101285401071341 5.654303996245821 3.591766348836232 -0.4714991821292525 -1.6644632810517657 0.08759208538837172
Ni 1.4319525643955306 0.9473644929417792 2.8174900832569927 0.27024093997327653 0.14323152912954687 -1.4670413819227444
Ni 1.9232015151880013 6.473255471116557 5.017432025888701 0.25908980845246343 -0.5747102050018038 -0.1409170220637573
Ni 5.885087086120948 5.826030929142415 9.336540919739631 -0.4643530580027745 0.002642579829169642 0.3108684836866517
Ni 8.434110973604584 2.753891424958939 10.238364835049598 0.4341523660496781 -0.43286604313808674 0.23171578731488482
Ni 2.385459261645555 5.213575813333908 7.1916959146871715 -1.0781936533471366 -0.29990144315218675 -0.20319428283642427
Ni 0.5352453327633814 0.0007243251302760095 9.16159365187313 0.16743306607641487 0.7118258510415999 -0.12277531815772405
Ni 1.2390236521830689 1.369484071690194 11.21959152783178 -0.6598111485372056 -1.2255983400177666 0.016239601787313967
Ni 4.08276415171921 6.888914360888891 1.6849567845235982 0.6893017017971548 0.41008555490846144 -0.37300510511639634
Ni 5.702431579336648 7.825241085199706 8.02170881704991 -1.0931248207356723 1.508315300970867 0.24089745381415287
Ni 5.312160467371727 2.887736881507052 4.841593000952262 0.838350351829111 -0.4456598524686454 -0.37123027260416064
Ni 0.8306926396395191 7.4319216199855065 7.328659791111486 0.6586937471033107 -0.2899175924665975 -1.3720751155574884
Ni 5.388096311745511 4.642469106972315 7.015017910140035 -0.863859551843809 0.5024935736282379 0.9077236002166109
Ni 8.422527231257332 7.049266841362809 9.342680394179295 -1.0828594342539222 0.8511220496724826 0.3307626515074174
Ni 4.716676034577853 0.31855200459327104 10.10715461163877 -0.21506712301461028 -0.07857779770490338 1.2114994387225395
Ni 8.516134424914986 7.113901029809423 5.022266623146436 -0.7829777885960774 -0.5123951490126659 -0.30989557825042113
Ni 7.41790829460077 6.392387664172299 7.205041332225648 -0.4531003679070907 -1.7679054460985166 -0.5810878263933735
Ni 2.4315212441764236 5.382563778087122 2.5793618269853975 -1.101662168782722 -1.8576012080934525 0.4926375067697645
Ni 2.3220990118702804 5.416259455944058 11.501509606018288 -0.1870351565780585 -0.2621882448721291 0.0442006057766142
Ni 1.1037586639726056 3.190206320330853 3.6321338255062123 0.4512499449619132 1.2095901375149685 -0.02909100382868538
Ni 3.683693763360106 2.8564343884398475 2.859868563115302 -0.7499491402758827 -0.43816534386381306 -0.747770644567325
Ni 0.7539460242970456 3.2580526541416313 7.951642190126226 -0.10598755717642391 0.10129940767213523 0.20997196787988998
Ni 4.008047648645136 2.730205265233958 6.8648296403510205 -0.9107443893208057 -0.8688636899266198 1.099948785636041
Ni 4.282981813044122 6.6765760830623755 6.1817164260928505 -0.18357496594359998 0.5031816008341978 -0.5990688363518264
Ni 1.0413174699530832 7.710131626682224 11.835687378371736 -0.7853128644871572 -1.539596884692968 -0.7895857808308983
P 0.03486315165359894 5.451138076852951 7.999680597510059 1.2554102811728765 -0.26601250371422575 -0.16453517570332957
P 8.488135072831328 1.4901533625518792 7.815157860616052 1.6470214314262344 1.5253246910446698 0.8536607569339364
P 1.5162327070665909 3.398568089590402 10.123575681112337 1.0013382376499786 -1.1381561499436978 0.6622686089387627
P 3.907652181781628 6.268160444592801 3.832158576118037 1.4977881761872978 -0.4892896733434541 0.7822925896035947
P 6.687659349503031 4.201467937202257 10.64178390405894 -0.21547464286567405 -0.5881745580368257 -0.1479389619075452
P 6.5077064126143584 7.949559300398586 10.18702328668222 -1.1347381254010844 -1.7668638922078794 0.4845269618474881
P 2.31030597959845 8.399532638239648 5.823099050285946 0.2894581363316757 0.7302187517264909 0.5114261002311773
P 6.847329362831588 3.8868414836291003 1.543224737643698 0.7923918828211256 0.974641702195399 -0.4871258329229159
Ni 5.1369393026908865 2.7821637639007424 0.392301224233321 -0.02950495143765241 0.5525290409190742 0.022508979735793494
Ni 1.6625991608415862 0.9606680524953412 7.009051327377196 -0.7783109792480273 1.00741092620662 -0.07463141146264565
Ni 7.15968092592021 0.6996079901834376 9.316976861572629 -1.0477818738244986 0.8916794022695547 -0.7770141148134748
Ni 2.669574884040126 1.768572659173174 9.18775125262051 0.27496174248771355 -0.8871025815321497 -1.3772219498657507
Ni 6.183006743975679 2.034725746301855 2.5025296757607056 0.9346926726062871 0.17473268506162165 0.9478937446775934
Ni 4.007947553463816 7.099196137717388 10.660801988509652 0.3961900278732919 0.02838009380458983 -0.49188520198477215
Ni 8.5871383067183 7.044553268278852 0.6687468258702329 -0.6821434934858188 -0.6368460551006 -1.2265054252130683
Ni 7.249184217143763 3.9438047413618618 8.499563212669438 0.720063922680676 0.21624365982121466 -0.7585119422442291
Ni 3.160423454107318 8.421589976377703 12.692296480367274 0.7094555510372104 0.808374374292311 -0.14428542431535796
Ni 0.28916860913882053 5.120942272803635 10.20907789495169 -0.7860690259268914 -0.5608077359880986 -0.02307410821064413
Ni 8.761749800749284 2.13107190810289 5.5523015467440375 0.15181875657792562 1.4421042523614325 2.2180824697112254
Ni 3.3728982253629063 2.4237593178431895 11.247213248095004 0.919572529135397 1.243942132632277 1.483969782246967
Ni 0.9804141019011068 3.3649088099812188 12.496826060505489 0.8712972390687769 0.8085759487801558 0.4238880080091926
Ni 3.173909004899643 8.420352435954117 8.153318511229823 0.4456711653225551 1.141559262087976 -0.45539276348569313
Ni 5.8673065420938215 7.7215788756004065 3.562053549239621 -1.088389362933216 0.749923943464902 -0.5138905026112698
Ni 3.3082731364782303 8.407467456249709 3.7973709508285243 -0.6090280044470673 -0.3485125192916707 -0.9806084613017951
Ni 3.293076868041535 4.390174652675421 9.352482442299058 0.583794169580943 0.2051521778937435 0.03366319658040009
Ni 7.258174584338646 6.132485976095121 11.535390914938764 0.7269963881344512 -0.0356246911821451 -0.04096615799971654
Ni 0.44306040063665814 -0.000574182358296686 0.21045557846151478 -0.5824708227838291 1.0680956456811863 0.676673728620499
Ni 4.611721687183336 0.19807744435706182 1.505841007333234 -0.40263989726369365 0.30411239590974076 -0.09814594964481807
Ni 6.022099190223535 5.683731979553768 0.36099964112231037 -0.40685933466167995 -0.25667914212844184 0.22980700032794615
Ni 8.08471509386579 8.786955587317934 11.281267448692304 0.5523992002094292 0.8931593292491907 1.4398882185467203
Ni 0.18704877528803512 4.624779558564568 5.8260682373463615 -0.6671251657001156 0.5886098458020314 -0.18368912292396106
Ni 8.072703672107446 8.73020161950975 2.4866809687330456 0.05826042630378998 0.7649551267664115 0.30786209276016013
P 8.476651425665393 1.7021185583389318 3.5487882078461994 -0.39343303395344503 -1.0279987776603003 -1.2737656437516127
P 1.9946694746501592 3.3384017860554147 1.3837803934512067 -1.0164241854488238 -0.5769578633853999 1.1837176406235808
P 4.845862515413637 1.0087501377764772 8.089844516930322 -0.30686913271927146 0.6546789695169628 -0.8153114677317765
P 8.517772346063852 1.7863623027622393 12.442634529339086 -0.8146735770374615 -1.5992801594862136 0.10532164145765088
P 6.516196303902643 7.782482243652383 1.2209328130938513 -0.1812126363590105 0.05723069948769499 1.0363844306208345
P 1.9440668107121581 3.2693998078784925 6.038426534209141 0.12221481766856371 -0.8464637249648648 -0.4018114878251273
P 7.0059438269753205 3.977627813085931 5.917098435063134 1.0399605780078671 -0.5705614729407529 -0.5316807367151553
P 2.3333642695496986 8.704913936883656 10.438576126681154 0.9779142022990835 0.8231913847004855 -0.6210911062591884
