# total energy = -340887.7648434726 ev
CRYSTAL
PRIMVEC
9.06134244892850 0.00000000000000 0.00000000000000
0.00000000000000 9.06134244892850 0.00000000000000
0.00000000000000 0.00000000000000 13.26219060853620
PRIMCOORD
 96 1
Ni 6.361769320424367 2.618573981130579 11.506926532169276 0.8231373915340985 -0.6250768303798138 -0.39200247215450557
Ni 4.689063591129763 0.29623069529670104 5.9464879870752965 0.3413460834502186 2.566809161896231 -1.1653555931766253
Ni 2.827591971886918 1.3226660629783356 4.613465715589768 -0.011945859507966524 0.5515363379885018 0.3428131549140483
Ni 3.4274800389108875 4.502988919946626 4.481095809985799 0.32067801357790576 -0.01119895403961297 0.017446991831853824
Ni 3.5843046960409852 2.565556065323784 2.5565128453656265 -0.031137344834752827 0.7325679686849577 0.43012884671258184
Ni 5.10922898816365 4.742752046292172 2.6237652243310086 -0.3669748397619164 -0.26284876127426343 -0.0006173218690247433
Ni 5.1149829407422365 4.842290895230413 10.85388281693033 1.4591694353738354 1.002260492353932 0.9033419262091474
Ni 5.550697601752276 8.003059374774148 12.181402135028494 1.4557580956994411 0.09613637541395702 0.37318636788926696
Ni 2.022065794912615 6.671322907809724 0.15504047876360313 1.3276086577139974 -0.9342733256806813 -0.14866041345460204
Ni 2.7513135895144005 1.6976334829067206 0.09247100167635315 0.33770180182941195 0.7847852741184614 1.5080581906547383
Ni 8.178323864183655 8.733430775863722 7.163863966939598 -0.6956171024922214 0.16201832281874678 -0.9516444699692771
Ni 8.79132369401269 2.6436648389102775 1.1380602354377012 -0.5210715937407413 -0.0841141541421003 0.3574391323573392
Ni 6.852314165769889 1.0228987256478983 4.368777749517509 0.1455203251637236 -1.9027027284177815 2.6776262792508145
Ni 0.6952496370035814 7.486617212153662 1.847078582587997 -1.0912965092776818 0.15696764776871677 1.929741477703128
Ni 7.604450911889017 4.021097656825593 3.552662487530076 1.4632937419548542 0.4620310947378172 -1.3616294947441323
Ni 8.009592602820073 4.194486448307908 12.418224855686244 1.1404899402831972 -0.8019571579120576 -0.38960157602249673
Ni 8.271655693411136 7.109402579249702 9.078540165647691 1.4247891581217527 0.31524372993621186 -0.20484467395565367
Ni 6.99455006124404 0.8302582055853213 0.07856546525572292 -0.8888169931200951 0.14930164658302675 0.2320564584837552
Ni 2.1689773431907837 6.329574370012208 9.148272634094585 0.05446856336152556 -0.28733903310614384 -0.7367843207591505
Ni 0.12310287048251795 5.123799627134309 1.2146865733677268 0.33823402018379817 -0.3668028329604263 -0.011652496637263804
Ni 6.470052365013531 1.8341063644596414 6.818954832828048 1.2872073710788154 0.5530651159282023 0.10717592105757025
Ni 3.8203436105600757 4.601331671655931 0.33810769032338067 -1.6219089526293229 1.3307903978760889 -0.7434437350571971
Ni 6.072150686854588 5.730202799518915 4.7153722933607405 -0.045387941216496024 0.393461058977903 -0.5810603155895476
Ni 5.822411022258608 3.2484732149896374 8.963450240464772 0.5310508164406402 -0.9026209888827229 -0.19054394106226538
P 0.5721503910581208 5.946424557676792 12.121986911315428 -1.3347470685309917 -0.7931534435774985 -0.546008466191737
P 4.079389274050873 6.458988465645885 12.302021291492444 1.1686365779207422 -0.8009986506535302 1.7811188594649972
P 2.4068557102664943 8.620798286805703 1.2217027709765462 0.03759389909337396 0.6588313011224396 0.5836830979243753
P 6.607358890089648 7.8109951561036945 5.7670906192861136 -0.43161108768506307 0.5886011040512831 -0.5885622803935476
P 4.906744225453234 1.2304578402386424 12.595275335730774 -0.4185028324378793 -0.08921110904903347 -0.10521005558045107
P 4.209256436816722 5.889492141848029 7.687415658998132 -2.567786695318152 1.9473743602935432 2.1758667555751234
P 4.718984144538417 0.9638187716126387 3.617660404445769 0.5864503762568675 0.39350862438638684 0.5020986521826643
P 0.3101081415551366 5.821124311603239 3.408025336255412 -0.19603041809813337 -0.901489446381441 -0.421023541977204
Ni 0.9511510145971032 8.93992065202254 4.285173271617767 -1.8064953905565726 0.8634291491746098 0.45704778259061285
Ni 1.325692551421246 6.780657068145529 5.068584335736478 1.0762781814919786 -0.5415537728544931 -0.07167978503348946
Ni 6.299998147624004 5.728227426822643 8.810073424210506 -1.023450753278302 0.4164078975820634 0.6074262071775862
Ni 8.832688723180015 2.3475129772945746 10.143838725792795 -0.6556703868959546 1.5086300039978082 0.6328338486174134
Ni 2.3838761453227177 5.18843418421 6.529294517082108 -0.19352230696429895 -0.19184646192377283 1.549710833198518
Ni 0.3380080155543028 0.2707556365889206 9.261544853943228 1.395905642318183 -1.5308211953828668 0.16260916232521028
Ni 1.6697517315928414 1.3133328800555877 11.225118775958144 -0.08131139458598255 0.9922059363314073 0.81081178008921
Ni 4.147385589247282 6.879027003882764 1.6200828880270637 1.253875332585589 1.0117527481150834 -1.7325862019719322
Ni 5.700110080600035 8.23734038882041 7.733621257405585 1.971515733426437 -0.7900997443528393 0.7213420180621513
Ni 5.14802965736288 2.8396344962600564 4.884756877528916 -0.7359194016556938 -0.3821068103073484 -0.3988331219230938
Ni 1.1476643525054882 7.542308224040273 7.443935569900243 0.34491348908650277 1.038390919527902 -0.6948426862200421
Ni 5.496855103764927 4.630898832701491 6.874576072376303 0.44564751117347123 -2.7331731632781833 -1.3231246538007146
Ni 1.1065439795895362 8.142359395231823 11.49825301499097 -1.4494403810115297 -2.7784634025745505 -0.9013369799639767
Ni 4.651377467075676 0.6233080132202166 10.495048211444333 0.1317070734297151 -0.7471900894735067 -0.031745667842713064
Ni 8.16481340230228 7.4515770001514605 4.305039359229254 -0.8993749711415996 0.49299926098455743 0.11677230649675373
Ni 7.362639922106051 5.991196651678053 6.745879635079988 1.6522405137333285 1.0391535087255392 0.2716198225986742
Ni 2.5517012724219574 5.392260025631645 2.3337342996709527 -1.5918465860263036 -0.0531794122364568 0.806332661271934
Ni 2.7081091077904564 5.364940077561658 11.259905270366328 -1.8424977767931108 -1.0276611918152236 -0.11450587906008021
Ni 1.2547059931525006 3.47546890955057 3.6830035585161776 -0.6531051972719397 -0.11794884330335816 0.2220432972221273
Ni 1.421335023022805 1.2057656815352555 2.355524110325644 0.6969641034384191 0.5672282948024618 -0.583698267433027
Ni 1.3697850447242481 3.2724042209109747 8.242730075424731 0.3425956395866035 0.626092930349154 -0.5343701106218604
Ni 3.9105673992608545 2.6959669086482405 7.215401259358454 -0.8641063777472925 0.5525357257872936 -1.6088148384495258
Ni 4.354228857769194 7.191144951236216 5.8375126559081725 -0.7376669804744199 -2.423322322222768 0.07021502756250488
Ni 0.5282155651171149 0.23273152445423362 0.04291180035656106 -0.18516365058695852 0.3947905764226039 1.4213932450663265
P 0.3409647316588588 5.6110008370444 7.886680020533067 0.4654635174581338 -1.0814756665325183 -0.6417141818261787
P 8.642880778827779 1.6982587155491184 7.890751281782766 -0.17825278239973819 0.3073111053526965 -0.3757374164458948
P 2.114110913484726 3.357644271157859 10.384454524481091 -1.3878061531395003 -0.6307031754276557 0.05814549799248051
P 4.05473336071806 6.4557263822942454 3.7880399240361955 -0.28551457830289534 -1.854318937797755 -0.34102315289316104
P 7.228921688716738 4.293463494002254 10.19544216601295 -0.13481913669613554 -0.3210137996507697 1.6083576963074493
P 6.356314392153013 7.726498135953573 9.752736679153495 -0.4156334813098842 1.0028099370994987 1.8214337570339598
P 2.4816299097601995 8.519139083688897 5.835907892126019 -0.10407182821094979 -0.04015240384916956 0.46764921225554296
P 6.776271378306101 3.9801675721051533 1.501160921040231 2.4036441270675506 1.3950448369797845 -1.2149467738411917
Ni 5.12927267809095 2.932549503725938 0.7739310874451404 -0.24015234811801223 -1.655620228838839 -2.013954876427254
Ni 1.6404745335118718 1.0951357492014393 7.040684981178875 -0.14794821787892584 0.3271970456433462 -0.5188900127083902
Ni 6.897530265560678 0.8994551486819867 9.323506314939104 0.15529077428692611 0.02530042643800159 -0.8717260990760793
Ni 2.845234406013705 1.5055420802083366 9.183231294012995 0.19734322337228594 0.6288512098205815 -0.46308344726173145
Ni 6.375660358696767 2.187036599079169 2.5473092396426797 -0.12844640040057234 -0.5275764847387946 -0.5069865764025849
Ni 4.167166500237922 7.039856774461264 10.169501354293295 1.401108269565045 0.6997444943970337 -0.7665270992392218
Ni 8.090075448179148 7.140637027341656 13.20598536427381 0.3261637192828254 0.7941317483303678 0.6724674038486353
Ni 8.08592535324845 3.8092706498497866 8.254189049331632 -0.547575810678857 0.46649812937023527 -1.6648085802063264
Ni 3.2229564741056973 8.556834269085629 12.566429457559632 1.3151542340007285 0.3545237584827572 -1.4909133034443354
Ni 0.28787341897665203 4.879279295900953 10.169845685313746 0.7382987005211479 0.27701502547231643 0.21449762366438543
Ni 8.810624353843226 2.3093828474509595 5.686389395569331 0.3026563801895046 0.02777382767915862 0.1326128730734361
Ni 4.006508895169647 2.9633580687136503 11.461224744412798 -1.239673330053594 -1.0330774777347884 0.9481081746812446
Ni 1.4406900509092029 3.694481561242629 12.607304268089946 -0.2720756791891702 0.014801583789206768 -0.12520141110071342
Ni 3.497587646943219 8.540433238900993 7.996636695108474 -1.5897254259182427 -0.727529892040418 0.1024800582437977
Ni 5.515412733498701 7.941079791092986 3.4068183654153046 1.4648222627842384 0.8368434282662813 0.39987827535815645
Ni 2.927040207398724 8.269798118169229 3.352125007353737 0.9316086343643245 -0.0620718296300802 -0.21716694296643244
Ni 3.737686042966573 3.9448011517677886 9.219729476046526 -1.5100438536261995 1.8080277680406993 -1.2576170590162083
Ni 7.317206350091819 6.289133597794514 11.208859102718748 -0.07830757476265222 -0.3608715550776559 -1.061930654521055
Ni 7.9930012844399245 0.2548348575643883 2.21824748768025 0.02631241264228372 -1.5040904642562418 -0.46293766571248657
Ni 4.583544256046849 0.40638762554452956 1.4972618253007568 0.2848995704267158 -0.3135748268742212 -0.8374800334090157
Ni 6.197804325291235 5.361841098377601 13.19363837878785 -1.3333033941059296 1.1920886382960956 0.897908671008718
Ni 7.773662424412703 8.83149262595108 11.204654639732189 0.37135805643127656 -0.0049293189808173165 0.2960000512152515
Ni -0.05595197855474233 4.799865688973804 5.476276794621664 0.4942786419176132 0.06145810730548125 0.257297235328415
Ni 7.330472155721822 6.3223977866386 2.2806457053915388 -0.6264608552115339 -0.4521302906843375 -0.04685115602558383
P 8.74518333727227 1.6728688334621864 3.544346893386187 0.11989696816866448 0.86741255930239 0.5532556346724536
P 1.8532439201225968 3.476954969744096 1.5665702229119367 0.2191883442718354 -0.6498218985349776 -1.6131278640025832
P 4.988966848599851 1.3011906809133718 8.310274229623234 -0.6217264258503421 -1.1638823510652083 0.444153443126448
P 8.628545734765849 1.8390991642561794 12.260935351678539 -0.11085414124010586 0.5248205192602123 -0.16355789939172474
P 6.408244946842595 7.946018222833664 1.11951166704657 -0.42798506089670163 -0.13606020819208828 0.5607812536255374
P 2.2455909952411086 3.073897387621032 5.718683114616304 -0.90811749322092 0.42856561599052 1.064271901059722
P 6.989584445475433 3.7058173008895783 5.49593175294956 0.25635852556422944 0.019554525093159872 1.8395597772107095
P 2.570983809567208 8.57930639884137 10.104649324994163 0.20227742744910973 0.19137209339051559 -0.9204328202531632
