# total energy = -381171.9082778397 ev
CRYSTAL
PRIMVEC
9.19083847761962 0.00000000000000 0.00000000000000
0.00000000000000 9.19083847761962 0.00000000000000
0.00000000000000 0.00000000000000 13.45172113618267
PRIMCOORD
 96 1
Ni 0.46765836244028114 5.967813738086874 1.178650611897276 1.1847990466132177 2.619107971299947 -1.7354398693706434
Ni 6.179267363055941 2.0302103050176954 11.003575337183959 0.9948109780544223 0.5964064590283149 1.2717211025177582
Ni 4.443338520979289 9.09419698798268 8.504931882027243 -0.7310317345460895 0.7394518402889846 -1.3402515432889883
Ni 1.2437134778301888 7.162052931429364 6.2649370083404925 -0.18004869795789638 -0.20621198661682552 -0.0783080889832845
Ni 5.141437861969008 1.5423422074557347 1.302817003978256 -0.8900752910072283 -1.1911172755217614 0.3112083835245737
Ni 3.7956325483429136 5.72041474313241 11.357193773574943 -0.6032427652238578 -1.3551405445856792 1.4253915675924418
Ni 3.6434506418693267 6.827138770788133 3.9348167707885415 -0.717868457691254 -0.40516497767839255 1.0936421266917231
Ni 5.904571577291805 7.263473836003349 8.284430795484761 0.4750658164345883 -1.4111661680216794 -0.14125589346041478
Ni 4.579022872064538 4.603047724312512 5.100206840672284 0.8126994840302262 0.43917630162683075 1.4511095411838364
Ni 2.7755965108948772 3.7385206769317003 8.884444587248923 0.9204976120528277 -0.8261499531081772 0.23789363399082256
Ni 1.58096211149016 8.129021066475026 1.848414597309144 0.4178752261562094 -1.2072589182786304 0.7153246082234778
Ni 0.9653321657648141 2.7373350495680544 3.4506084651795814 -0.48935729335659595 0.9061094616519555 -0.6831169131426815
Ni 0.8136272638174971 3.989246755479801 10.057475001307777 -0.8223534621802224 -1.0314139739894366 0.06631852072157611
Ni 8.15997581106997 6.397237292632436 5.930474117877293 -0.8405872115794297 -0.08882878600895024 2.292648575153574
Ni 2.6200048032797456 1.4235781903370193 1.9256001794299211 0.655366996722923 0.4621403666221719 2.9869752409691457
Ni 3.9474100579156164 7.4574464858478375 9.911672455945636 0.47577081292141293 -0.5698893865743927 0.13772911125407894
Ni 1.3744899210728914 5.022572745625071 11.99802040347696 0.7181381664128728 1.5649240506038469 0.6621742494527435
Ni 6.665260529531985 0.6979844555065138 4.125238999660042 -0.320254552887242 0.2652586562673367 -0.1818404997509965
Ni 5.882292984388557 -0.26154645289834566 10.726133328829274 -1.2992550462719687 -0.018678036025477508 -0.11917345973907863
Ni 7.256249836819375 1.8301073657893505 1.842118872829472 2.2591401589834836 0.8186400178843771 1.317330158606125
Ni 6.320797087526697 1.2296514946858121 8.61744153344024 1.6080951866746822 0.548227842440559 -0.7705151373526924
Ni 8.259788318879073 8.606622997257727 5.292767777699141 1.5092686660230714 -0.5196058078284922 -1.1816201346646036
Ni 7.667622584243658 5.202768328323534 8.268477337744885 -1.2477422231046575 -0.0515588459138983 -1.672827593856061
Ni 2.30701079283416 7.918082128470722 8.315517888156355 -0.27979233110713747 -1.772144938101161 -0.4417936846450198
P 2.506681762645652 5.814161297428255 9.578795904234541 -1.2797421730500218 -0.10310637897388694 -0.42140252258317745
Ni 4.1135160849537336 8.981443779345287 4.780849093540969 0.8783605736734614 -0.06350830496629062 -0.6337545606594698
P 7.051193035555201 4.643680422012701 11.839465569478987 0.058420348920421965 -0.3527568963903215 -1.3573570926210237
Ni 7.579206716368558 3.4967372843963305 9.865923218365399 0.4255183445237639 -0.7503579456785271 -0.18077966258664996
P 8.916317496625645 2.36324953457301 11.577076316675845 0.6184832363226961 -0.08324666393548244 -0.349354812687308
P 3.4707180201599055 -0.52857248380367 2.7266911393200135 -0.2634442287664172 1.0163431956992433 0.3183516794375743
P 0.6874260200579779 7.266286232632224 12.455890522748117 2.0880561264180426 0.6013823149763514 -0.1800643816871802
Ni 2.514788082340645 5.714918621615849 2.1917291844823756 1.369542578943622 -0.5950622862955945 -1.0391779342055718
Ni 3.194790662015804 2.359867305947435 13.340690722037339 -0.09152381634261011 0.8021448484428314 -0.5264973927420029
Ni 6.346329237314329 8.685085186867887 6.505629448327341 -1.5458225538877055 -0.07011038366384054 -0.13424989445622684
Ni 6.104362028005831 7.561192672601905 3.7366190924136795 -0.48410941469409524 0.09773534446996071 1.2123892975266604
Ni 5.870170268200693 3.470956981964973 -0.22957887788346282 0.04071650388275568 -0.5409801597392102 0.8667085912568299
Ni 2.9108948467565563 1.8463659593726198 4.387803797481523 -0.11254258468612231 -0.5115191741656159 0.38476918763085993
Ni 5.320374299771537 3.3642605360021838 7.860150434251352 -0.1868397527378008 -0.04806934470340108 -0.6968617735325998
Ni 8.863819426219973 3.932649571033349 13.179794981433565 -0.5378187312920931 -1.4870443074072326 0.30464435715381083
Ni 2.352652497602117 0.16032315135547512 6.40673234804842 -0.02440156877281604 1.182854778402653 0.26891913583805943
Ni 2.62953570296649 3.407962973813629 6.530635882143825 0.48235849344125964 0.4566297212165878 -1.276373256577789
Ni 8.002022057920128 7.993134516939336 11.255754487323644 1.767890790810497 0.8945286987928917 -1.6789869285892376
Ni 7.37662225070297 1.6274585642531674 13.077117689215244 0.9286302684622909 -1.294180974183171 -1.1138962489550688
Ni 6.561293762650163 8.825870453407468 1.879810502159595 2.430228819534615 1.1536917836854517 0.00915209881291327
Ni 8.958760789541156 8.561321353520059 0.5475855717322791 -1.8021301716093414 -0.5680615893370345 0.18585039224133798
Ni 0.22141189865333663 4.437006033144991 5.429114788251522 0.7463925332728759 -0.6415326619429919 -0.0010788348864755614
Ni 8.364389253628191 5.757040235178384 10.40487951168313 0.828062853860174 0.13524028339395416 0.22459923087476158
Ni 7.683081574863816 3.2114720341772705 4.1422291840003655 1.1580078945623022 -1.283809144030544 -2.9938951080174308
Ni 1.5382982384468944 8.42195147613357 4.177579906724689 0.5611265527800982 1.130960403526207 0.9182895486579153
Ni 1.1755358366766033 7.627265611703162 10.333504377760967 0.375049903460567 -0.2561926894103266 1.1152836162208986
Ni 4.399323594653524 1.9848994704413707 9.69932364329143 -2.140531056388307 0.041587593633799345 0.41183364794781974
Ni 5.198990893635732 4.3111742610994614 10.091844142463593 1.0952326111072945 0.1373529588615828 -0.8599995546677704
Ni 0.6846862310544886 0.3734577807148081 12.14500764794192 0.45167469120415754 0.28790673268415573 -1.9666895156823871
Ni 8.824914606187198 4.343930410071068 2.1751167436108325 -1.350945275557409 -2.4658069737495407 1.6283883897060796
Ni 6.742095940699952 3.718999335625389 5.910390297245207 -0.6265467300571209 0.6317480717524023 2.5327952668446314
Ni 3.022949551656059 6.979054142940683 0.0582506163207481 -3.6098308953279252 -0.4238710387283281 1.185467790545468
P 8.615335912304047 7.85479401348237 2.7056386042935365 -0.4500106732381734 -1.0180138985334468 0.7347690901013345
Ni 6.094426731418202 6.512894806285269 10.722514895650228 -0.19745969434549218 -0.32065718764229934 -0.02374002392941718
P 4.373019414418749 3.3248777923592727 11.699056208240455 -2.033909722282626 -1.1121797804845943 0.22177153161797933
Ni 0.4238796406679876 1.4120712603391372 5.22042484846645 0.6885154584504335 -0.04236535234008833 -0.04003181911090525
P 2.473456880902565 5.5268832535434305 5.587078651323885 -0.08654076130572193 0.12338569804821331 0.3636568311322769
P 6.551928298059234 3.7827653742238763 2.2199910133509757 -0.06977459759097661 1.157197225735549 0.7240378197267595
P 3.5212032968998144 1.7376015747121278 7.675323587953901 -0.11479898482046681 0.4011160044199995 -0.19429260947142024
Ni 3.9576118888242817 7.421767650183478 6.66123861853592 0.30165030752249333 -0.469028866211889 -1.2903006652921585
Ni 4.8837727002352835 7.550411818857883 1.5722639017856905 -1.6766577662354285 -1.2851846842218317 -0.8710193028170418
Ni 2.9921970055115596 -0.07723521264952218 11.264081387146394 0.4574043945990832 0.269835991225374 0.035198145167687774
Ni 2.6672089506192997 0.037191647707212054 0.2143423055587912 0.7985247351917408 0.36357172761763834 -2.038822071982579
Ni 4.28138675301389 5.548932075480267 8.144317379250966 -0.20495703116380187 -0.17220580487470988 -0.11417703496575175
Ni 5.801340077502499 5.907402355597994 13.128396135331206 -1.108468135960962 -0.6957361445685889 0.431732700864592
Ni 5.149185738956399 5.435985859231088 2.8845869901863184 1.1923652889962497 -0.13391745081747258 -0.30669249793209113
Ni 7.177374059469676 6.479752642090091 1.4326081893169866 0.38791647501058996 -0.22327819807049287 1.730188905384349
Ni 3.4105455994760927 4.812433410583877 0.2429460336254114 1.1753574415843433 -0.13421724144607855 -2.5663882723087283
Ni 4.357983202376788 3.5788574277917586 1.7668973729295792 -0.7628450224019443 0.11107834143577 0.6384833335937068
Ni 8.190691593859842 6.191132735761426 12.796999308643798 -0.9080642713854813 -0.4386543676850897 0.13014101449417587
Ni 5.113277132325629 2.5078122358003956 3.5901033379717973 0.7035191309481175 0.07571436011417927 1.0418850487240894
Ni 0.08522021327425057 0.06900849296812904 7.7405105302086765 -1.1448836984755186 -0.5514679466444116 -2.076872856107714
Ni 2.668835729061493 4.161694461190872 3.954793058608347 0.07225956879635942 0.0208156511937706 -0.6565283640208758
Ni 0.8034042939799217 2.2512499747054457 7.4835015943550225 1.2540028593023889 0.2898152625607783 0.15640303351449839
Ni 6.756213068876266 8.143469064842975 13.03337297354598 -2.2877182277314922 0.8062658125897404 0.9144727460149864
Ni 0.9704238903804903 6.186188064564252 3.775265649880209 -0.47300584858176603 0.04614821642128826 0.8843311894345995
Ni 9.343406578152466 0.7278611147270531 2.786672390559772 -1.15234838228368 -0.6893847484292644 0.5408893997976169
Ni 4.886033646544771 0.7933237821415217 12.636937177106168 -0.055665154772788 -0.7105819513321698 -0.14876197202947283
Ni 7.80114708824464 5.968797157823115 3.8272968256821334 -0.1966479970774742 -0.7850410988830092 -1.5596170365686366
Ni 8.513381939087989 0.9654056924740656 9.784122916155216 0.3762773481097649 1.051215582096396 1.102903497388991
Ni 1.7169038060577904 0.6973052525298017 9.148865015395144 1.4126113851086382 1.577480804222935 1.2815303752986962
Ni 7.559400459063896 1.422319045441085 6.225604814310192 -0.1515019966684552 1.242280685769454 1.0567588805121284
Ni 0.7262269836139353 1.5310650484242643 0.6652963187409648 -0.5431175177971872 2.296708089934928 -0.26977762718361287
Ni 0.8344959820708445 4.92262237523612 7.897854930755595 0.45656081565186535 0.22639103266786173 -0.7883868754267905
P 1.7096430435191907 3.8860520190451213 0.8646456091994805 -2.1164506184003353 -0.9193624700071199 0.8852344179751592
Ni 4.933348083948204 1.6557203931217674 5.820829250873513 0.35699047485569485 0.6265657562205145 1.4637385428017566
P 7.312148517527937 8.50054233748492 9.192314705143536 1.3696855322793895 -0.4649341273172251 -0.7362071080994418
Ni 9.185958321128732 7.136667835060234 8.442865229496334 -1.1931530750048678 -0.8254256733476429 -0.29702643559723685
P 6.0818536641361725 5.6774108090588555 6.585451882058655 -0.526383492871958 0.6304260105068691 0.34329703652900234
P 4.562378263257697 7.493024222286976 12.458647774345053 2.595652825600801 3.181753017607101 -2.6794085679622177
P 8.150297857964722 3.0528933039987907 7.660997827740085 -1.8168412525672708 0.8963418407422304 0.29160860701577523
Ni 2.211288208227178 2.2384103731023774 11.116072121422839 -0.18553337522155142 0.2615251573668335 -0.09532827769036487
