# total energy = -340867.7648809647 ev
CRYSTAL
PRIMVEC
9.26727424662105 0.00000000000000 0.00000000000000
0.00000000000000 9.26727424662105 0.00000000000000
0.00000000000000 0.00000000000000 13.56359261036690
PRIMCOORD
 96 1
Ni -0.4771997437268965 2.840076613554772 10.639525678815696 2.2072316430396506 0.16161208851926362 0.1551568198122231
Ni 3.895063093772858 6.867300302851085 3.1119358053308583 0.08696345066543734 0.002615583245976141 1.3622640430043378
Ni 7.508308383053166 0.47040034474116205 3.3049045463971716 2.711512647585614 -0.25107002347178053 -0.1105047283204871
Ni 8.497024586391072 5.1448569422329005 12.57690863386721 -0.6162214368717129 -0.01756603390822136 -0.03351484392799389
Ni 5.6696441383132745 2.1478761113856795 5.414355759303158 1.0236063050195598 -0.3330537615344393 0.20527893327959482
Ni 8.950073813889505 8.228597992930805 5.4465011528724885 -1.5663232449442186 0.7680396792290064 -1.5560444887260299
Ni 8.82737510519232 7.168922272032902 3.356487120602564 0.10209207877675966 -0.4945023278926451 -0.4197865842463093
Ni 3.21815359382056 8.785236809992464 2.0949238340726253 1.0172471955707514 1.7871820349399414 0.1297268097748927
Ni 8.25972676653457 4.090685982133044 6.4805352531439375 -2.217576476609084 0.4459277614180514 -1.9925897804879167
Ni 6.305925908739255 0.741736862259656 7.579470853915311 -1.4187128700206857 0.25610270079968156 -0.3817373427830716
Ni 3.3742886273651336 6.4052896213262045 5.999597091056887 -0.41919754451205865 -0.6468530457146409 0.33208831229737645
Ni 1.9853373914581935 3.1626426221365618 2.1691167035559173 -0.5015731186964975 -1.362327035031789 1.3334476329932776
Ni 1.8417595142795322 8.255463820462008 -0.21906723830445618 -2.150891059466393 0.7006034999632192 1.8814366199501533
Ni 1.7224804297144676 5.448091417103035 7.786356260453721 -0.5120223390542795 0.34124966708167037 -0.4688784566769538
Ni 6.103843730351732 4.990065663428591 12.797886784085062 -1.4766364818103472 -1.561155070479718 -1.103691797618241
Ni 8.241590711178045 1.415381501556817 6.2458174423887405 0.20331126803026275 -0.20543062836611073 -1.1056134401209863
Ni 5.294226865705802 7.926623867334298 12.309299413979986 1.6261702990088382 -0.925329229113516 -0.35262165636403786
Ni 5.369162043842164 5.613123033755562 2.0590891386957164 0.8746306743173841 -1.9553818039790516 -0.040669966915536405
Ni 2.6357239530199075 1.8649833031009178 12.621885495114949 0.4183994740907956 -1.2629724097908508 -1.2046243088692608
Ni 5.243571945634895 0.615143118270521 3.386476019495622 -0.8862086089629704 -0.017092179595596373 -0.35728306639544916
Ni 0.5722356393227895 5.116526885398513 9.889473291532328 -0.41534063265981375 -1.876101066669853 1.4915499085870698
Ni 3.816356135089687 1.5238086081849933 8.511994940925018 1.13434526083804 0.36284616230552347 0.9676868681441206
Ni 1.570701014983162 5.054000587242931 3.3458538503337465 0.2051650334095499 -0.00528413121707477 1.870977115179726
Ni 0.32071996758688925 0.09311849659064783 11.647029426877305 -0.7371028804408337 -0.16437756707954274 0.08501738268266003
P 4.434279435581443 6.289374557248833 7.969492423730932 -0.41278727011034066 -0.1426226919009544 -0.008825568711429962
P 8.09101604207594 2.4651875755693347 12.7392647884955 -0.14703779024951452 0.06490724219634628 1.2711796281919914
P 3.108568077933535 1.305555036543952 3.587827936686367 0.07523279249207043 0.036462099481775916 0.7198415222572248
P 5.496800209619077 2.894253097772577 7.678092257849191 -1.4574023161710836 -0.38300901040664365 -0.9878119210287698
P 2.6653977645945583 4.333599770076442 5.423320920239235 0.014060848968440301 -0.49501063498763126 -0.14792250684731298
P 1.9191319854965105 7.697305170452741 4.307633794857512 0.08691074305063097 0.192010755415779 3.0474555577423903
P -0.033003543148284166 3.4602703961938706 8.067217682262166 1.2832872100888029 -1.0961134710503508 2.9410805353195606
P 5.241394136228261 3.324254614656969 1.5097631276033128 0.3385235263997589 -0.1639530779476144 -0.39148285220560963
Ni 1.894657114675569 8.669683169603855 9.741100526749442 1.0612732234427142 3.4637644678527444 -2.0160678090051993
Ni 1.7567693437763694 7.162425912909282 2.388982780885275 -1.3551194615397566 -2.2989459781265116 -3.377845142181105
Ni 5.735497387860268 4.739404434362017 9.22762403867246 -1.8211946444399603 -0.23774965221379055 0.36444693113374005
Ni 1.0655882417550633 2.800959449701992 6.182367197008301 0.5805394100890712 0.7538991260625661 0.1548194910774624
Ni 0.1785914920728986 5.511600046310119 1.3130911838183137 -0.2387708943894533 0.11172548810146564 -0.28743082148900173
Ni 6.690619722691582 6.6961059489414865 0.4948362930110061 2.423260615746898 1.4603452008494915 -0.08543390139478835
Ni 1.9237748898059734 3.032576430553104 8.965425980115166 -1.343589863633602 -0.55234469282241 0.4632999341479118
Ni 5.226992792322262 5.597591082412927 4.5827856491109475 -0.823845987565349 0.030343902399179997 -1.4768079743912048
Ni 6.390675130116577 7.596662574044022 3.7028468553610927 -0.718368537256124 -0.1443378748198482 -0.7655331107570686
Ni 8.334587806478364 4.139088954604751 3.683016742304428 2.834361756404067 1.2345624911895898 0.9098064508875686
Ni 6.882137208638411 0.7837898985380609 11.992101010539994 1.0666368017474726 -1.4636644950307114 -0.19876375786889638
Ni 3.6225032960770207 6.888401885910261 0.5999707371618329 0.3546823955478085 -1.7933573105127179 -0.9499120606592026
Ni 3.944568871858988 8.467832673068102 4.963841131263085 -0.26060495954540924 0.7808440300825262 -0.1472365365238819
Ni 3.7830402848052174 8.422497168313825 7.987938932768828 -0.09549617072679682 -0.2891550032689601 -0.6277384363723769
Ni 3.4730777689596946 1.6731229280134703 5.877850131406772 0.16786603984877543 1.004868105180108 0.3370451420820195
Ni 4.299208915999762 3.2964342578964745 10.710803063876321 -0.9297731238174826 -1.5892137763891467 0.4009707370913868
Ni 7.198614618155695 2.779172088361578 8.836300416849893 1.2244706541712267 -0.22202504238968213 -0.26945881039161335
Ni 2.983015048822549 4.999907508491764 9.895033655974798 -0.06290743815749811 1.244901925442385 0.9040194118921463
Ni 8.145572484530648 8.591105952757674 7.685280882345897 0.6155732617647527 -0.7453406949695938 -0.4658232147903978
Ni 3.601188565714217 1.6783404033153215 1.446787366655298 1.127586859068284 1.640940772449793 -0.5871168061962727
Ni 5.7574608274080274 5.057865040530448 6.705433460293731 0.5072447151599779 -0.8870159353556142 2.0675073557324133
Ni 6.7995565293936515 2.716497513820863 3.100908675914032 -3.1994380935916897 -1.871952591719118 0.6265035355240114
Ni 6.252296193691627 7.621980766805406 8.456520111609896 0.06111075126839152 -0.8690986887555614 3.4477449524960364
Ni 1.259756168086136 7.780627231623162 6.933451031895751 4.950937073307725 2.255224883089477 0.35473741715546
P 6.589699108060741 4.016121494959513 4.943549507957695 0.10743148871180208 -0.17104700867991834 -0.6141398717523359
P 9.01558417429588 6.576789795280138 7.0410366700383005 -3.1960120986292764 -2.281832715484993 0.12194639449852547
P 1.9857451515173081 3.4495666946421144 11.260440455377502 -0.5323232553951607 0.5833899921639888 -0.07765297189778884
P 4.238675081769398 5.963713279127402 12.010330665364634 0.26832084013242824 -0.33582335385977646 -0.0629784006047496
P 9.536581055281303 1.8462634094779335 4.130086724572391 -0.7619294525662104 0.04612019139683025 -0.03936307517865478
P 1.1447585641417735 0.9924787166106457 0.41768160273469135 -0.24799369853930195 0.3646793588595203 0.6359777935630337
P 5.3311847547000895 8.108660931906714 1.3108577707672548 -0.2822379644341526 1.403059736864461 0.7762574391531083
P 1.6414473852395295 6.874491707530014 10.831843857242243 -0.660101683194431 -2.1964227253496045 -0.2370379708587466
Ni 9.6712345475298 7.23978911685219 9.12978942630719 -3.0154720628572584 -0.020187016470836202 -0.5182914598924429
Ni 1.5362545572620567 0.5662276655427001 5.466222838822524 -0.9128262115504988 -1.4764475057279927 -1.1210873673868693
Ni 7.788680492790674 5.400439093831062 8.540221204289812 1.0730573605618359 0.7193136747782128 -0.4170409031803721
Ni 5.620073489308649 9.38116886911425 10.031687025967768 0.5986507749778013 -0.5088418844437689 -0.6955700513043698
Ni 0.655541019399884 5.340943194296626 5.423049389108961 0.4933188491075052 0.7893572097598599 0.4132462120246302
Ni 6.557921625272022 2.9455845288506515 11.19313780416584 -0.024952299069963477 0.8325959658438371 -0.9647280426261126
Ni 3.5124173473901736 4.040948522195145 13.19563911393053 0.7062308734523257 1.4292006569258868 0.1317885773999279
Ni 7.28751557831673 6.972298518073072 11.001551740390887 0.055392103617059436 0.7584047272424035 0.052987865050941
Ni 1.2170247673457495 3.365095491486916 13.71943841859496 -2.2332910591308632 0.45918076977321565 -2.0171767257986613
Ni 1.4603185135260501 5.7465810476489265 12.807707314417874 1.7746347944025502 0.27619870021860826 -0.5756450581112473
Ni 5.298082051719249 2.278350063028252 12.872568038911885 -1.757731076668676 -0.17328309709928866 1.8865590287783833
Ni 0.9387655960963799 9.134409162431476 2.8700293700789543 -0.9627125548579807 3.0191253433391294 0.9625986549879357
Ni 3.8847578850061457 0.013689617257362582 13.395444323078864 1.4032183739295123 1.0304683222467157 0.5576254816053752
Ni 3.069172895858631 8.151188452617543 11.533990924671507 1.7639264068461105 0.5132675243152902 0.4241533458554373
Ni 7.758534050238412 3.678088405953585 1.3725944971720057 -1.348082609297633 2.3709687483217166 -3.52780704805595
Ni 8.948535446393754 2.001879475674544 1.9467827511415097 1.8595213079343007 -2.0012487417144955 0.3211030169304664
Ni 5.800368306355758 7.530049408023225 6.418170205557187 -0.7161270495201151 0.6866516657688174 -3.006614098245996
Ni 4.4414615729863005 6.931272295761709 9.999568507493244 0.6086014584326099 0.2723230193132858 0.6848300391790464
Ni 3.8122321981281875 3.491491842538343 3.6083225132939063 1.0919433988330614 0.14997347583907075 0.6242929010259378
Ni 8.528032885431918 8.678570485437737 1.064851493466436 0.006427757903214737 1.1826637454377698 0.9327705158829097
Ni 9.267922779969265 1.1060120912518243 8.525396345958779 0.8962935040027983 1.2589627744108254 0.8931734703165778
Ni 6.7941907777066675 1.1216459826092375 0.8929648741837497 -0.5034212276488297 0.33246215069702745 0.46904095039674704
Ni 3.614283223976235 4.114048780065492 7.752108122397731 1.293361049385037 -0.46746794948267234 -1.353652647186243
Ni 7.448349119815191 6.175275878889337 5.299770549054945 1.0668291202639368 -0.25860464128592886 0.5511956668196314
P 3.897194566809138 0.9058352644132549 10.851064183665049 -0.7163203964778437 0.831254107103962 0.7398441906313968
P 6.747122292701154 9.244800931162658 5.239791824541422 -0.8480225848115525 0.0949284711487849 1.0405120796359628
P 7.385415061600494 4.845486920650284 10.695719648598713 0.5161790415351304 0.06937042017402247 -0.2479142514516182
P 7.874782736182331 8.96750555641665 9.950264755981857 0.3149529381686705 0.08347009280019818 0.22127453737690278
P 2.359290434762482 5.171722769764105 1.4254791233843436 0.9698329679528458 0.0019956902737901117 -1.6693455488447313
P 2.0697807927911804 0.7057103343094819 7.594608019382529 -0.4327490579442482 -0.1679899670211494 0.031145572364868944
P 7.608079855699229 5.761316013421474 2.369912584302415 -1.63719930312949 -0.05939736812171062 0.3402816467414462
P 9.168160574597271 7.284818801562131 13.329132343465366 -0.6787095281036053 -2.218365291058966 -1.5728759584610719
