# total energy = -340892.8768596254 ev
CRYSTAL
PRIMVEC
9.06088682994596 0.00000000000000 0.00000000000000
0.00000000000000 9.06088682994596 0.00000000000000
0.00000000000000 0.00000000000000 13.26152376410462
PRIMCOORD
 96 1
Ni 6.308126118415561 2.028361107828417 11.226503352392687 -0.3268782288513467 -0.5546257755471029 1.6450679072442895
Ni 4.587010628611677 0.43144682078809 5.874112348334176 0.7275257782753599 -1.038930851191772 1.2101976891919801
Ni 2.7135363235350765 1.4596907774489403 4.884775840545228 0.3887595397371756 0.35171251428620715 -0.7609799441687476
Ni 3.3798830160102935 4.3054073208590316 4.844699537247505 1.0615951255585074 0.9261260139831986 0.318308999125097
Ni 5.438570912700904 4.57946290972246 2.5443559715062625 -0.842545106636749 0.011331880073051451 0.008538633598630456
Ni 7.303310522688423 6.24250717460319 2.544687599971263 0.3349584347563199 -1.3720923419486692 -0.1897420139862603
Ni 4.785498419712724 4.375447977538073 11.517700327324084 0.16075642538718765 0.5931221318500882 0.02027134865452638
Ni 5.548370741631904 7.783283830010831 12.758766398354577 -0.5322602633677092 0.3320376615650991 -0.5183685929872816
Ni 1.853132613712506 6.435195998010243 0.3828206644965315 -0.060600130180560145 0.8182669508156747 0.3263493529310702
Ni 2.6118822320367356 1.3844854151674333 0.37005840512623 0.18923653510475152 0.6950995394258545 0.6464524678421124
Ni 0.6785662047129086 8.932992601554634 4.558901038803734 0.05585875884083283 0.49299746121234445 0.3023938705567373
Ni 8.656880191337242 2.180620253343892 1.2543819505978309 0.05525172138445324 0.621862180097258 -0.0731262876720289
Ni 6.945178963149078 0.9184658738587026 4.56997434883316 0.22367183396448576 -0.2263524661204424 0.8452360232053507
Ni 0.6718158438816169 7.187838578481734 2.3572096926904877 0.4294207649019637 -0.4197171644609546 0.49251126560454533
Ni 7.721615432939995 3.622035221669724 3.4254918969235697 0.9467128369956148 0.8611192700945105 1.3097855134896477
Ni 7.847181205289046 3.8299282134994703 12.262161832903532 -0.41831514190710534 -0.20143950492884663 1.4282560336244305
Ni 8.254984547482273 9.08045853783554 6.902146092416119 -0.5995285495970643 -0.36869439355618444 -0.5104017727317209
Ni 6.786142274141246 0.7686305156215775 0.3485197705865469 -0.11611333275651617 -0.5839682332649621 0.22136761131134133
Ni 1.7962664867632603 6.695497160374475 9.153250079814422 0.34971553846083636 -0.3138098257031628 0.1704037186689646
Ni 0.12698470725667554 4.759258090897393 1.0857923684028425 -0.49123805531907655 0.41860310546116947 1.0523980324402715
Ni 6.5822451334881436 1.9928061871546057 7.16171332293158 -0.28313682209933816 -0.04216197808003062 -1.4594334876684993
Ni 3.4268546543316587 4.4676425029855835 0.6592592666467116 0.6312410502089967 -0.5187190343481647 -0.5544434843329678
Ni 5.822245112754895 5.262780643589637 4.76653670144206 0.7300305469750846 1.2438634568755416 -0.35202078955524535
Ni 5.42628434989925 2.7960356998691873 9.116647720600882 -1.0214686898512666 1.489240543727603 0.6703855816189422
P 0.20588872362050914 5.777883009895828 12.322037986521442 -0.837640727356596 -0.14695448650708887 0.7886905227101385
P 3.7659492902380585 6.206798218850008 12.693320517484326 1.6835316105371265 0.15237282930918275 -0.3582832255251894
P 2.326428047299797 8.594215096694 1.5984383282374053 0.5998327111010444 -0.78463460747321 0.1259179775517638
P 6.687143022540313 7.784969154996897 5.663678683783498 0.12105807835630117 0.39008520052713463 1.5350570878410854
P 4.762139452970347 0.8675427827071005 12.747666811752788 0.2122237400285442 1.025134825848944 -0.33019520903972166
P 3.904535557237534 6.16223677647646 8.085803289364756 -0.2643896233988221 1.0169792866213452 0.26813983446987366
P 4.765292641653957 1.1315688757260234 3.7866289526880683 0.11297787245132802 0.7646933884645927 0.034480807385689004
P 0.22412738310682784 5.288712902246224 3.559260490293518 0.4747860804106403 0.5303887573766091 -0.46327242334408597
Ni 1.6971313218569992 1.4881329018105849 2.6016062800652353 0.43764212437049144 -1.62088771045366 0.5888057638629214
Ni 1.810609870918878 6.57665456619565 4.711209113109128 0.5620004707446192 -0.11766653617624896 0.07067962590374925
Ni 5.801640655667166 5.689557483206656 9.085576126825492 0.7558145979177242 -0.24719614233867104 1.493423471460699
Ni 8.64638768416592 2.3144042502217776 10.339466977346737 -0.001149797333727052 1.1665344439760748 0.634530776703862
Ni 2.2883179564858187 5.27904493579389 6.88926875978064 0.1644153622960136 -0.2888693537077412 0.5573262051974015
Ni 0.4323066989664653 0.3440962455424708 9.468237319710438 0.29455791945208626 -1.6498203343276103 -1.3921379477456348
Ni 1.4134258883152806 0.9791013298090454 11.454468927241976 0.5050538781562462 1.3296123184075874 0.6872720729616357
Ni 4.081549046096753 6.994687649836567 1.6521866039624258 0.32053454602150605 -0.20078901582904127 -0.2278339357619754
Ni 5.937997944459263 7.6961090359734365 7.754211974001166 -1.1020488626981795 1.4001158237447886 -0.1922879203365656
Ni 5.278809352731322 2.887423806371751 5.18345257771318 -0.5599055358888034 -0.8552705246232173 -0.6473646952437367
Ni 0.5865646761589645 7.1103226900096494 6.796040387123934 0.15911297624649373 0.8886501285249276 -0.3318162895829124
Ni 5.167867852035566 4.721682592417705 7.053963972733628 -0.2876658203179433 -1.2485117542808304 -0.5769807462035353
Ni 8.115691531295091 7.4273450051307774 8.906333659758893 -0.1331900857331448 -0.33241638506075655 0.3265079899961215
Ni 4.398362960816378 0.3646164363808959 10.588637746093308 1.4623264929455784 -0.4865517055870007 -0.7226609939838909
Ni 8.366433457851253 6.951530644951408 4.5792309510147 -0.46394193860728483 0.5411871335436939 0.751691576888286
Ni 7.243979834469229 5.9011291951672815 6.9962760233315 1.045786954881657 0.17998724859234164 -0.768621262764089
Ni 2.369231677591103 5.318613829418389 2.6733902514072847 -0.6533803053101973 -0.6374124691270313 -0.37656196922971924
Ni 2.224601798948041 5.369119213678283 11.353005114371097 -0.01879502121931602 -0.06867750787205591 0.3686152035788168
Ni 1.3885084490051427 3.4366313514282547 4.072666658549215 -1.6446470176567871 -0.01563179299998598 -1.5515471150763087
Ni 3.65916673668534 3.0348263164435045 2.7768175584958046 0.055800394799071645 -0.9050465676050802 -0.19780987859605934
Ni 1.2198309762060424 3.524893451908274 8.31616909318614 -1.2015670101001759 -0.31237489302884913 -0.09309321771225904
Ni 3.5477178263163602 3.016314924257828 7.436797322471991 0.6983787243977585 -1.1578178900386835 -0.7853761136249249
Ni 4.161719774466244 6.8159707142172365 5.899030693733017 0.0555787657065688 0.7877243021421273 -0.03818653837205037
Ni 0.875139430386235 7.773280610738689 11.685776157224932 0.9601918453186561 -1.7696028884055974 -0.375597805544237
P 0.14848619215956904 5.644407083176686 8.274408370991052 -0.6125339607177966 -1.4502016846575865 -0.8249469339390116
P 8.426452773484108 1.7551844250061095 8.204626855680836 1.3219679144884524 0.1870996912674068 -0.4413735663884657
P 1.851537897596657 3.371130199147169 10.449696292322574 -0.1797584204109872 -1.2302191266192297 0.4282794522086688
P 4.091633813352092 6.174577704600244 3.71280265741129 -0.47423740699602196 -0.03525702343008121 0.27124778397123606
P 6.704458377639103 4.009433446289703 10.41377078136957 0.3270713186987593 0.7312039984578955 0.6233703892116683
P 6.198163193518168 7.657319378632817 10.266157152630205 -0.40203234558668177 0.21876591202243612 -0.5293366619630109
P 2.386383936723499 8.336124790763105 6.005892077002824 -0.08568458395301372 0.8978456789812668 -0.1522077644862282
P 7.117562338740122 3.9015998298424486 1.3395733164661388 -0.6038788561459599 0.0349430917340882 -1.040032568896383
Ni 5.247404318313525 2.8559009804226716 0.5271787165289373 -0.2126034919654661 0.020313771856687597 -1.0418310555577024
Ni 1.4127372609016187 1.2874795587113113 6.899612668404805 0.29812455375742203 -2.3183261824253365 2.2559049398756374
Ni 6.815889166234039 0.5788448004163326 9.2874037608828 -0.662873075291981 -0.23795096959131923 -0.24047502156475362
Ni 2.6822128371004776 1.48049457405115 9.232579957868284 -0.07262055168020395 1.1382620793939429 0.4518788367951637
Ni 6.326410988425692 2.0166906853442503 2.4516712520708697 -0.18005332594358667 -0.5574768718426528 0.3633716957916903
Ni 4.088498746442526 6.815753252928712 10.540750052094031 0.2948019171420923 0.311012979684316 -0.21368824038921264
Ni 7.985106027535926 7.244858740510351 0.29341779834045917 0.30863316659822976 -0.4201349687246636 -0.39209143232388605
Ni 7.621728214410919 3.876039067553758 8.433905353059595 0.7006145557068127 0.339819362393047 -0.4304342937681426
Ni 3.1140365907886776 8.441765672551066 12.458591896561911 0.2621519923175549 -1.1677999409520596 0.4626928966915322
Ni 0.02554264051464675 4.898804811921186 10.397830868920698 -0.3771384105584795 -0.2958828089110969 -1.1874519108550323
Ni 8.793799255124693 2.2755874102200937 5.702654089308064 -1.2251795073127931 0.6905129484964366 -0.4430103306609403
Ni 3.514455310059082 2.388395453642354 11.732443349742363 0.078147137925388 0.9994867862635368 -0.9559374409176762
Ni 1.1377846442230248 3.291774950609646 12.650419935701885 0.39304042650071663 -0.3597274141708837 -1.1164290426792516
Ni 3.3081117299100744 8.47204715697815 8.214293916044467 0.6316010046515768 -0.7898313211828011 -1.53875330574575
Ni 5.746822289184863 7.928783553807992 3.777399533167593 -0.9964325728182452 -0.3146428631274194 -0.5497571346008918
Ni 3.1835335942464074 8.511090519155381 3.6705508351396157 0.19249232303788785 -0.9973638263832629 0.023316563238753394
Ni 3.3544038017048 4.427901452507669 9.317162432128722 0.825605650568933 0.3102894712547301 0.2847370767069225
Ni 6.844530630110165 6.003616888271633 11.576859764778565 0.9964618833942838 0.18173765562454508 -1.9154908813213851
Ni 0.5341139194554754 8.96720651094921 0.546755669028386 -0.012956045940035752 0.12149799410719721 -0.16152595656336052
Ni 4.527960827890161 0.3648574559756776 1.6976206097561801 0.31484006673989 0.021149894604737773 -0.18389866783160588
Ni 5.980439139269693 5.558817944368118 0.3183406741828101 -0.7621857915513905 -0.7950136367146889 1.4760394716562968
Ni 7.923926918364271 -0.5413626290729701 11.241395826301828 -1.5873677243193436 0.5967664134708948 0.5140519678897986
Ni 0.10591995710823612 4.789421783793193 5.85067908231822 -0.12347440110727768 -0.4253018576375837 -0.16111432294723868
Ni 8.128277103368466 8.853374587293478 2.5636384451775003 -0.6701654951883362 0.6634636576881283 0.09986730321129897
P 8.866666908554558 1.7128519608399408 3.4715357004138956 -1.4715557248533302 -0.6774856829988332 1.259475709491502
P 1.7798662812536787 3.2348182147901823 1.4655178338927037 0.7144802579453114 0.9122579977518548 -0.157737950275838
P 4.793145808359181 1.082322954762169 8.150559636732645 -0.7276846724507274 -1.1613809247995934 -0.5707972431006428
P 8.525071467830124 1.2393843703992342 12.424031861283103 -0.12366183452773542 1.2882728362288522 -0.802943690195043
P 6.355324278912473 7.887773979147016 1.6103207754778834 -0.6206594180384085 0.3249249617797178 -0.7915315917033593
P 1.965831926490504 3.078626644307216 6.046101575339769 -0.7609519191442894 2.1338459310586475 0.9381076118251068
P 7.052396439278845 3.8785217505977503 5.861951731862126 0.9390789745994408 -0.2509052157591421 0.8526690824446282
P 2.4644797219649823 8.436872793559258 10.241835013597404 -0.7593573209636599 0.8192249438535698 0.48686666572425835
