# total energy = -340871.35875142616 ev
CRYSTAL
PRIMVEC
9.26599690448986 0.00000000000000 0.00000000000000
0.00000000000000 9.26599690448986 0.00000000000000
0.00000000000000 0.00000000000000 13.56172309104129
PRIMCOORD
 96 1
Ni 8.310153487916628 6.071636956362812 8.924183287060929 -0.2742780861571276 0.2803479465002914 -0.7182240412584598
Ni 2.5975924332309694 0.907684058165556 10.889466889581783 0.8946138023075303 0.046549822735081126 1.693102284944697
Ni 0.8259357294352576 4.951878326767505 1.4852391881479565 -0.8026449280077016 0.07545442158457327 -0.6634063220876316
Ni 8.439126895107078 0.41894535914815967 5.948483521660064 0.46908928713617926 -1.0822485401428008 0.43460282332353534
Ni 8.836341638942137 6.796784587178057 11.08681686575567 -1.4427837949269606 0.6897475310853218 0.1826200582294984
Ni 3.577888547442739 6.790094537606141 3.152707172557876 0.6903244866347144 0.4678176195126072 0.5495923268882535
Ni 8.507926920136828 0.1747465039775824 11.918339991163041 -0.2946761901975054 -0.06737087324549042 -0.16812237883395562
Ni 3.835918755793371 1.4944662675990847 8.89017059320548 -0.11820878183296418 0.5992022766058971 -0.37480590577056094
Ni 5.9969715554618395 2.724230809268895 10.057196924845469 -0.07003453612058261 -0.41628731284379916 -0.3974287853763994
Ni 9.039461551221887 7.3054507385629925 0.22530734122705484 0.23060918451426735 0.7972157865723303 -0.5169346887542323
Ni 8.5870492654202 4.164407602571777 7.252253725270293 0.6630317123570324 0.2604841176968288 -0.3580168592376802
Ni 6.977100881734142 4.339748056933791 11.45370214939849 -0.4644772422854646 -0.1650483678943222 0.624009565457564
Ni 6.434159808788931 0.9146548674355736 8.385104281514021 -0.9238289904189058 -0.3695032626107249 -0.9903403438775784
Ni 8.47594996574253 5.40591216198067 4.686144368812869 0.9064940986848838 -2.377702724611441 0.25964825205909475
Ni 7.797299106051767 8.1336825819649 2.2280144509654365 0.6704424029988066 -0.7729769686296236 -0.36492181388762956
Ni 8.57415099810149 0.6792179386849466 0.6986181558438406 0.6320578896833372 0.8089783264248971 0.8406789999622877
Ni 1.1999650964852073 2.8811504623165463 11.090301807090848 -0.48387313031357315 0.9781281180821026 1.5753848409258548
Ni 2.215360805957945 4.561816932336213 12.731731414351124 -0.28497696063187045 -0.12771517866150262 -0.9224629633093147
Ni 6.20441868817107 6.481212539711635 10.666077609658586 0.453193184731213 1.39502786769892 0.04815110578392998
Ni 4.218289373015951 4.812591865320072 6.991515992702328 -0.6340499804127016 0.14037451929672598 -0.8495994423803691
Ni 3.562923962873979 6.209153612452578 11.15911480451589 -0.4812925140705905 -0.9115781980760107 -0.5578813063699231
Ni 6.755263656247645 8.58723458535294 -0.029969939522723622 -0.33762518295520566 -1.3901965077485476 -0.27563537151597045
Ni 1.725513893742763 4.8216169460445135 6.376680978450272 -1.417396208091791 -2.091142735763166 0.7003715864580713
Ni 6.32717461161809 6.36981672814158 3.9630880734385956 0.6171179805440533 0.12825331055315975 0.0834253556051918
P 7.053211778110487 7.6315860221956 6.041991326722384 -1.7292748782105123 0.6192936480391334 1.4546671766281076
P 4.81491763047596 0.918329761701809 12.257586660037008 -0.21765468123612836 -0.14964257486221327 -0.7705917562268987
P 6.837851484273256 4.582331848890539 8.416784724015935 -1.2012181114011893 0.13136203138547053 0.618550856335838
P 3.265494736822808 3.950131430341074 2.61825375253216 0.14538997023344638 -0.15117880900108158 -2.0457825624608126
P 1.8492056828501207 9.071605293555653 9.419212671195186 -0.857733384341413 1.0805724379919583 -1.6344669917999917
P 4.341730980214109 4.305667721302893 12.553775169138483 1.0129161722955653 0.017304038496086326 0.004191926594160523
P 1.5188173067611295 0.6861433445714429 0.5907471293945024 0.42045224285476623 0.205145235915208 -0.12278688812194984
P 3.93579693354363 6.999135421736936 9.077037020784264 1.2894064356126633 0.3782565833233228 1.290062066918791
Ni 6.493860625121143 4.808088590954489 5.973152384506758 -0.5202418987505943 0.1570964600370972 0.16570399920045012
Ni 5.671725807506385 5.458274308976375 1.9374819062111879 -0.8111082282837063 1.044714804863401 0.5570148446045697
Ni 8.666245738676668 8.55300599377585 8.336268772838359 0.19005980233699526 -1.6446948401755868 -1.0749748892995228
Ni 3.4831715298192907 1.7826943589897106 6.459217843494379 0.4668992214633959 -0.2066624438906828 -0.3742731731955425
Ni 3.586950692153728 3.1176094304962345 10.69815093041791 0.5597702958625198 0.7308527857660639 0.3468395024646221
Ni 3.196768839766154 2.1672795494085344 12.964952843305841 -0.05586081572336186 0.21270530765065304 -0.23290312275476666
Ni 4.3053712094105085 4.357140332621446 4.419928579033108 1.3900836363197673 0.20991231828654813 0.0019067301044096191
Ni 1.7564345245204431 0.305701907848687 4.989506612510713 -0.10838356821242623 0.6279888618202862 0.2552187555328314
Ni 4.7306341250657775 0.3413000137287264 0.9213736415970646 0.9685525585785255 1.9133648361173177 -0.12734031182058714
Ni 3.003739597824101 1.908193017441284 1.7528115198353749 -0.023353587124275908 1.6577167063565517 -1.4432759040720304
Ni 7.944341206684374 2.711740245802214 5.251913151073002 -1.634054586852921 0.91723925301653 0.19254245954953292
Ni 1.3760005005949967 0.540838618308275 7.231978798028866 0.5062291294112702 -1.2792793744809905 1.201537442413821
Ni 8.979325233047735 4.604310792913511 12.874116425073971 0.09844265494963046 0.38059474453819614 -0.6348156549341325
Ni 8.572677704636208 3.6184365487262653 9.655742987548981 -0.4370224885086216 0.4587997322847131 0.6535728809369776
Ni 8.350525435264052 7.62289451735009 4.50265447040861 -0.7889476330262671 2.3963136548444086 -2.1588229127189593
Ni 2.7542341063795113 -0.08351257448998375 2.6995554602245546 -0.13384983080433077 -0.9224583353236243 2.4885424676738435
Ni 2.511529856466483 2.71731837577769 4.346138814814332 0.5594298818039656 0.5182485224696494 0.5199094551118402
Ni 1.0201491657475203 6.95008123554064 5.158960379209239 2.0620980117913845 0.7923970250274482 0.7846978566109777
Ni 4.714455694937569 7.162532006433853 5.457264315342942 -0.34260643821988096 0.4590131338470998 0.8026642112814112
Ni 1.4000828258545686 8.002624325531125 11.775101582149924 1.1385695833320328 0.6785766020701668 0.030988477961714375
Ni 5.789441028782876 6.767865411673969 7.685102712372276 0.8653104253577226 -0.7269012573174836 0.436937384993983
Ni 6.774157023390495 3.974621459452674 3.4602733989299277 -0.5546358028494319 -0.450379883652134 -0.08907226947832401
Ni 3.9170147583604242 8.239268613643553 12.128153659413362 0.20364885387533957 0.7394081315352427 0.30893449988873245
Ni 7.888078075104489 0.9768120994762557 3.69304728024708 0.11325683714432754 -0.5209651500698641 -1.4360840143092815
P 0.5790543682382678 6.539125018692905 7.183847505097615 -1.3153218699268445 -0.3217097972765298 1.0599609323891939
P 8.613957719654056 1.8648837491599304 7.54359982452927 -1.180235338501935 -0.16176249805419882 0.4873469477947865
P 1.7995862708589678 6.538735846834151 13.374286584142439 -0.5643396604007571 0.36564352254500254 0.2318929363226974
P 8.125871346799906 5.772271137014507 2.5376562605841775 -0.1383860281117875 0.3701650645644399 -0.4670995103996601
P 0.43005714231525405 3.4967276828992264 4.1256386726425545 -0.6117289483179981 0.05278397657025103 0.09368071478461285
P 2.98290037138748 5.836447429722393 5.133763354554236 2.0517107550197893 2.3724265638141655 1.1626510497612685
P 2.8129063970850163 3.290021829920956 7.992967303836039 0.9722593180061514 -3.6351246368977073 -2.77555059980313
P 5.038765577232686 7.634597471102626 1.6518584864752235 0.683379936996081 -1.0600066980254648 -0.1310864091265807
Ni 8.242697032399244 1.0627264202945508 9.619031108873173 1.2044839266366547 2.542885046980466 2.049954434450315
Ni 1.0436106692324127 2.906353973169195 0.41111003239190963 -0.4552647225482611 -1.8024410179815409 -0.400981021504032
Ni 2.8261845702658426 6.603097459474776 7.393607430567442 -0.593447633510307 1.783004249413168 -1.4941459514490203
Ni 4.640309189848269 1.7451670726098472 3.29994663891885 1.2566816916861323 -0.2241109783844334 1.6095249771426732
Ni 3.3897980817082076 5.701654976643905 1.0622733130590012 -0.2388444279398661 -1.1516122754486036 0.34273679315015815
Ni 4.801463403359031 4.921893561650164 9.363976212042681 1.3982795418669984 -0.4215357057269321 0.09779113740856062
Ni 6.740929159450201 4.28925764125876 0.4079614467346559 1.5223211283316556 -0.026953388660392288 -1.2663639519709031
Ni 2.96969632617975 8.129920587330275 0.7606076733453929 -0.8984149212211754 -0.7904874667095612 -1.2964869966085286
Ni 0.9935464894026838 2.062620117393582 8.960284536558358 2.089810390104988 0.22375488059659532 -0.3659535975862537
Ni 6.0436258485291505 0.7055815523165486 6.0412185426028575 -0.9383320691310872 0.17161342270634963 -1.2410280443092756
Ni 1.7173876146921112 5.273436208061433 3.613547808900582 -0.7739298194611961 -1.295946550724026 -0.5331069276387206
Ni 8.583574516681322 2.9317983999344066 2.20609944231926 -0.967147964921515 1.080519730377152 -0.703166118484073
Ni 4.944493327447814 3.127533312894465 1.2424126270793197 -0.6104685935483357 0.5194955075028731 -0.5514759170642115
Ni 5.873613342233414 8.734082100056169 3.5263464411494074 -1.3033472140634714 0.32715616510308176 0.33802627504836624
Ni 1.2623437858455138 7.1198713579170905 9.17835698761124 0.4879359875290371 -1.0323560261877318 1.1187929149257378
Ni 2.464078687688389 4.779234277426859 9.127500565069047 -1.7358440467875977 3.007731242569575 2.2393732607692014
Ni 6.587956820969913 1.789486334524634 13.049265999905263 0.7527120477330005 0.48096444130721044 0.6032486787611289
Ni 5.538990405681312 3.0552214751392914 7.523853985695816 0.30589057085608606 -1.341054241695942 0.28655844618637744
Ni 4.466905328783388 8.865372006405869 7.576337517247468 -0.6728710670449572 -0.8164103572229101 -0.031219620135913978
Ni 5.206600574318728 0.044059814008950905 10.24772620089486 -0.2408167211748885 -0.49927635224252076 0.1420616771911618
Ni 5.225632931411132 6.349042363681418 13.144550096522895 0.9963065887633422 -0.02818700395717726 -0.22795014962486548
Ni 0.7662182343090984 2.5761972469961294 6.096957218773088 2.3086881451149397 -0.42349668610804486 0.13041175165705926
Ni 1.1068047662967757 1.7761618313606233 2.8539964591718077 -1.7303513991041426 -1.6280207219540155 -0.24888818532911328
Ni 1.0832598688421502 7.182592889152965 2.1668783317541522 0.1412072996106665 0.7643480893100321 1.210306961076335
P 3.823919290148452 9.106250854981408 4.9396536974043075 1.4107504206404995 0.5479797309854949 -0.2008394094510025
P 6.593256971046278 1.9620747878854583 2.0456911415377768 0.3328326466625687 -0.3719203566926498 -0.37276085031607414
P 7.523461107438407 6.395010972997592 12.73710198600193 -2.831889897824807 -1.3074036435210323 -0.2033745171680304
P 7.26216926827155 8.518907126151676 10.094885439566816 -0.010807889248781387 -1.155757150854913 0.33215618942083436
P 8.47755298316073 2.4983350772553896 12.025979367696454 -0.3695348871796087 0.27704459315867125 -0.4053282427291342
P 0.9123244692813672 5.205831496597857 10.684535474959498 0.22781696648111086 -1.079970028521269 -0.20236073119153536
P 0.5619447054480412 8.988239121812533 3.3576246881852048 -1.2380064838741323 -0.9641341177958556 -0.4059823313733653
P 5.595197941281374 2.8289829012502175 5.307474846707464 0.5048661876254725 -0.5183644792222233 0.18557271309991913
