# total energy = -340894.18125921616 ev
CRYSTAL
PRIMVEC
9.04474869855871 0.00000000000000 0.00000000000000
0.00000000000000 9.04474869855871 0.00000000000000
0.00000000000000 0.00000000000000 13.23790397755389
PRIMCOORD
 96 1
Ni 6.444229691260439 2.1567112838500853 11.389693871585003 0.3467376867794351 -0.16379752620635663 0.019717533033585397
Ni 4.56308476619173 0.20477672857038393 5.783031426712075 0.581816734139598 -0.28713025952944743 0.5480758902437272
Ni 2.7027698973895893 1.5739309905701282 4.787276047856421 0.10230085235345608 -0.453804850173283 0.5194823948767505
Ni 3.3184368969592732 4.301809110363535 4.758272252185556 -1.2830570963558676 1.5164741826325754 0.381296141480595
Ni 5.046481360706147 4.579374358608617 2.727538037242116 -0.4259834570856405 0.47788888770568017 -0.4331900021364088
Ni 7.1872105735953005 5.98538054473016 2.6801327003318542 0.17023582563253262 -0.29144714173724645 -0.24696705704700045
Ni 4.852516724737176 4.440275168281417 11.508279571850293 1.486141593087305 1.5272759012337698 -0.6402386257219168
Ni 5.698481115821988 7.949239696701933 12.454524900772139 -1.0455763815327477 -0.5112474085614679 -0.14518993840749833
Ni 1.8003572296397115 6.613239865553569 0.37366751218061456 0.4600258913823303 0.190111224400221 0.17949282545442635
Ni 2.6454804590950007 1.645999548247944 0.5060482631700782 0.3440506268655752 -0.9681584084639004 -1.179530856235743
Ni 0.5109758422643144 0.11388243093892793 4.746953653656688 0.7257208638561372 -1.401579809884825 0.5177592415380567
Ni 8.604576964089752 2.326960588715739 1.4386685826433965 0.27029339047776674 0.8938720390454992 0.06983527562558295
Ni 7.001105824250579 0.6194477045281834 4.742677296469179 -0.4356973419392948 0.37514092051247655 -0.4645939703689869
Ni 0.5311745750713046 7.360969240958317 2.460754129452852 0.13199580831472751 -0.010985552477226242 0.5307196583534667
Ni 7.801493726613188 3.6569456619755796 3.651887838499998 -0.5415781983345254 -0.04074375757626531 0.24286640461506562
Ni 7.646928016001216 4.009338116253363 12.78858274495094 -0.025278057840498403 -0.006512090086904914 -0.5197539033705824
Ni 7.969219546590273 8.892308509878742 6.834372213206382 0.5996691889399867 -0.9621677380981042 0.22535050721848932
Ni 6.980357170722353 0.6183288691134312 0.20747206368433838 -1.4490629430674526 0.6328292206317231 0.5804759038409874
Ni 1.8764597452397542 6.557804600743413 9.444807888970752 0.21191006544286728 -0.19859123684677413 -1.1769571819712956
Ni 0.21138210854931325 4.871745860483038 1.4054815906966793 -0.9089284191579894 -0.3910398511309201 -1.1398355945286498
Ni 6.543568166282459 1.8235570100668694 6.849079879074844 -0.4643080636974519 1.2780745555396118 -0.6646044561607909
Ni 3.3131366742184096 4.411051585217032 0.38230253376884377 0.19179966784623742 0.06168359305272603 -0.035984902735041256
Ni 6.1087509170601555 5.57713676720181 4.993364264988964 -0.12559041900901596 0.030820842035598532 -0.10474674279078736
Ni 5.425628181651974 2.7861715251942005 9.085875176904713 -0.20578698326426492 0.16484473652394838 0.5527941216550029
P 0.03087515417783531 5.881130771161572 12.487301261127671 0.11950230383340711 -1.3111173449271936 -0.686090908169341
P 3.841151014092346 6.223809165330674 12.599268014290974 0.24783351881235383 1.0424877153050949 -0.5652894259085361
P 2.1487338154926765 8.476629948915257 1.4862195400078015 1.6043827708201015 -0.09759933311272868 -0.6779091436894971
P 6.364825842383238 7.6517126880659205 6.005362203568241 0.11590867294487779 -0.048274004515039444 -1.0425874741077528
P 4.845823610695812 1.0142962092251018 12.437566901425987 -0.33438147920692735 0.04033546639425312 1.202295146515452
P 3.981724498458387 6.126379132285313 8.3539379327381 -0.19413448662700114 1.2843300495310204 -0.9555594887529673
P 4.66938769771625 1.1410854965654156 3.7708832658816056 0.9651890414229312 -1.216555513089208 -0.3057293626878735
P 0.21650867211504943 5.448375724643905 3.451770059987325 -0.14292685340493447 0.38567318750236806 1.654734483799776
Ni 1.5698246746582645 1.1598533501273467 2.5529165008526857 -0.4622550378231652 0.06646815892556295 0.560286573377306
Ni 1.8312631359631422 6.5999440849578885 4.787646882553307 0.34952939059195937 -0.3536333854580038 -0.8419200714582403
Ni 5.988772325494364 5.62286701665199 9.273561852797858 -0.3341235975598503 0.5317660973401099 -0.3819052358195036
Ni 8.747927186308088 2.1226487602287687 10.04943577274654 -0.17260484008534147 0.6655441943662409 1.2029206959145928
Ni 2.387994552974009 5.055381393431419 7.1738849453288935 0.049928252289010794 0.27875874763630054 -0.036725894666123846
Ni 0.23165319934593984 8.940517020473967 8.95337684418209 1.4313765815312833 0.9858116027692895 0.6449925954671343
Ni 1.41023912851527 1.047201005012237 11.506227318369232 -0.13165616558712168 0.9149232032888437 -0.27907807864893225
Ni 4.098718322951679 6.881479977884266 1.6617934884358208 -0.26214196501522596 0.8269652499206209 0.10120710506864505
Ni 5.515216417570494 7.836189382643824 8.069455260683783 0.012804093743203755 -0.41750858684541 -0.1016292802077282
Ni 5.07315432463585 3.095411483402599 4.590190069109512 2.877677645582883 -1.419959083722961 0.906130287587562
Ni 0.951634190200013 7.335842929057091 7.1520292145592315 -0.4978321635968265 -0.13432445644790414 -0.30754070486499935
Ni 5.134821421303439 4.49848717094387 7.298585800193329 0.5318406593317873 0.40954022392795275 -0.9348307408460481
Ni 8.3927399046806 6.934690234513104 9.294252619934376 -0.9587299160611489 -0.16743872250336972 0.7212152626762999
Ni 4.671060976226591 0.2917591723871242 10.462908319500986 -0.4672987708946597 1.0726629533368945 -1.4187123558000534
Ni 8.407057741879894 7.040785136817419 4.93761876529824 -1.0477991002156792 0.16517563750080586 -0.43179852110552086
Ni 7.501009085150789 6.130295508474382 7.181828043641226 -0.8665376128966045 -0.546915808497355 -0.8676017924950606
Ni 2.3653645917152373 5.247907914356366 2.464699448837775 -0.03369507825960004 0.283294430723125 1.2218213894738377
Ni 2.149764916844995 5.267272721332798 11.499091916116216 0.4839075830959343 0.11012549060419743 -0.17251408014374806
Ni 1.2187979774348676 3.281850888449388 3.890844672424858 -0.3249316466479371 0.39420359357088236 -1.0749936583526003
Ni 3.5996652684296953 2.599379374947934 2.639651118554921 0.014134639629169206 0.8896587722951002 -0.6214891130285554
Ni 1.1132728942989394 3.169044782606301 8.41689752399557 -0.07059246550658164 1.3646646820260304 -1.4675450610320404
Ni 4.009428563740409 2.5222005342520504 6.870472518710834 -0.7702526277199251 -0.012525643270836492 -0.6804241968018669
Ni 4.016700541698863 6.796992980235109 5.956051138105931 0.7531013127516192 -0.17152240565444007 0.9310046822317384
Ni 0.9226367258532413 7.599868188491468 11.450177915122037 -0.6179116800899422 -0.10123230187962566 0.01946736469599228
P 0.28165980598362905 5.396721164792248 8.010573042142324 1.0797890228587144 -0.2830882282495899 0.7686654857384632
P 8.518769433129732 1.7735485944794396 7.87966387176709 -0.1543078415483665 -0.9791295627634233 0.8352560291745035
P 1.851966565747846 3.2919810069984785 10.45471377717467 -0.14159193664359487 -0.2510188585188709 -0.46480968592421884
P 3.9898466827950685 6.2055930414397205 3.8455449530130146 -0.04131891335344497 -0.022073691970587794 -0.48064382474299805
P 6.9445942343445815 4.069214352677452 10.448637514994955 -0.8873902879758975 -0.514760563921049 0.9186345907021599
P 6.30968905428033 7.916723825109093 10.152863378657884 1.3080628743715859 -1.1327023259179783 0.5462056698042076
P 2.4108415882016905 8.36362485860067 5.8279603114270335 -0.3328694134377751 1.3835723175638108 0.08670171236361841
P 6.677864595047545 3.845610075203687 1.5388002821268043 0.9912181184968415 0.8821727483306999 -0.14032901077077123
Ni 5.015855841592557 2.8952240603249013 0.2853084576110425 1.3921222640163509 -0.5584801162961867 1.0297011050633877
Ni 1.305781325726478 0.9627411416091944 6.9598409672358335 1.1512335519529464 0.2216661163883666 0.046364960417784665
Ni 6.905312890720741 0.7893062762498004 9.010829087953361 -0.4533222541099096 -0.9569196023252874 1.1886212485727852
Ni 2.9286172725420823 1.7490373254901221 8.873181579793242 0.3818332449309876 -0.7287732775292158 1.5988638978844012
Ni 6.332047673077966 1.908044007716026 2.3906727030654253 -0.600985593758565 -0.06004194368424498 0.8342365867710535
Ni 4.148229277360358 7.0248121106051915 10.449644195525773 -0.07494431471737416 -0.9360247611541491 0.04691389094271921
Ni 7.909035788710231 7.154152017080188 0.5181103400424596 -0.20421243968829345 -0.17093747968524753 -0.40865062223414783
Ni 7.678937381666602 3.835588493639051 8.439958015292678 -0.06346253933001973 0.21494036762875887 -1.3729449197569517
Ni 3.0384295665639645 8.514057119054664 12.323707986833691 0.8164016154721616 -0.39845774086154606 0.719646118416967
Ni -0.026660301281517272 4.8316504894757895 10.424862488550188 0.4233781582523095 -0.5477110507051406 0.08512254080195662
Ni 8.849617295993289 2.493646262591801 5.879760491732833 -0.9490857081031655 0.502550137897786 -0.8549871890548436
Ni 3.5346968384849475 2.6946205788067945 11.688234796550793 -1.0565755608567287 -1.3521984312382196 -0.9526852525289657
Ni 1.089340489226713 3.2929578398585697 12.563366693258024 -0.5261286965486744 0.29128053425239514 0.3552848050184978
Ni 3.0767883458199403 8.47755251328312 7.977637494209594 0.3750666156311154 -0.41453227782590546 0.18331502741399397
Ni 5.8066201313335295 7.708468486186941 3.8214126589944173 -1.0648010340903147 0.37443900934944546 -0.09170405067421625
Ni 3.0787962800323494 8.39112993941119 3.664808262024441 0.6691565943078475 0.07677699705073873 -0.7354692014921528
Ni 3.5759137583315597 4.321011111863284 9.26920680629662 -0.8086955050771557 -1.1307308040139041 1.1585948774140238
Ni 7.016798463252965 6.123303917725768 11.344989296637918 0.6721254471281843 0.4403746928103061 1.1476347788580945
Ni 0.26581159730352505 9.052798530892192 0.37490573827826673 1.6161658794979583 -0.22784627705714952 -0.04970250943144989
Ni 4.615272966216956 0.38194255277040284 1.3624982314280694 -0.4494977381574969 -0.21923282435652564 0.3477365603575947
Ni 5.737264998267077 5.649151056387398 0.3432364551641724 0.6117842270359657 -0.3582022357756089 0.5083258640392988
Ni 7.961784763155137 8.97695831300458 11.267494794212245 -0.0737952887145955 -0.25059642626947165 -0.3268972550147402
Ni 9.526200678088085 4.9348782064407635 5.606901226238727 -0.8784531333872677 -0.7852331602891574 0.8934303235223904
Ni 7.809823940170075 8.992442922786761 2.3905931092768253 0.49351682405092423 -0.4189910849282074 0.7707390804380404
P 8.728851811290202 1.5412523135006064 3.5467525840332357 -1.5161926468364144 1.883361347776692 0.3010424987351654
P 1.8276000127378011 3.333831059254409 1.4998011346625466 -0.8759231678765624 -0.4305394518874392 0.7239231485257662
P 4.913442152010991 0.8951714419370195 8.046103528478389 -0.8992628710437675 0.805007257592291 0.12492964549656548
P 8.543443507595732 1.7422808982078268 12.55143938314134 -0.21991699490774383 0.40259875961311314 -1.4979131318009362
P 6.172633977160358 7.8240061061388015 1.6272823452787581 -0.5309574853958856 -0.7880991689830428 -0.8340879770083313
P 1.9615798752982287 3.1858680151967547 6.0865632440130355 -0.21887466968615857 -0.49869682558996686 0.4917301644641467
P 6.907881599352833 3.8782887522732086 6.024676359951926 0.1846355459976304 -0.11195200228997493 -0.36323928397888405
P 2.2857255793717175 8.701590938694704 10.069133426475297 0.27691423822839406 -0.12736370885935486 -0.06803036120636026
