# total energy = -381168.80717601563 ev
CRYSTAL
PRIMVEC
9.28056823356512 0.00000000000000 0.00000000000000
0.00000000000000 9.28056823356512 0.00000000000000
0.00000000000000 0.00000000000000 13.58304970403266
PRIMCOORD
 96 1
Ni 7.376279019687415 1.5029415945759024 0.14929000199343195 0.16435648403362016 1.9861548234958504 1.130616647033543
Ni 9.056822845239259 6.771585046562081 10.299700649393452 3.3201367317260435 0.05900810310309192 -0.8530537194775567
Ni 7.82996886989852 7.828437576168519 3.484310393528473 -1.0684897957958115 2.5007130415981065 -1.6034913693540835
Ni 3.655968420661594 2.3658024100113555 10.830213185896696 0.5612116562947367 -0.24118156071347496 -2.0626333154695637
Ni 7.755139649625802 4.348456567640322 10.52718964592241 1.2868021652205965 0.7030439910839118 -0.5514424927231149
Ni 1.386386940302669 1.6405816994828473 8.905115255266038 -2.1439511378134495 -0.7976683007287166 -1.3738247512587436
Ni 1.3441232333546393 2.70811616292705 10.627622097360748 -0.9300137790733789 2.2524519483300303 3.160349869340976
Ni 7.725033486837175 6.132543691044421 12.136196996749442 1.6096843855386729 2.4312935133537033 1.0125970983932495
Ni 3.9854842702217037 7.9631171798641285 3.8849153944328756 -2.2377776341473075 0.9085566376408675 0.2295159514500886
Ni 4.475424019277562 5.193879195689885 0.7249107395552841 -0.18997958391836317 -0.48135499187740965 -0.032921947539001364
Ni 4.597018022007708 6.510893889739474 9.878815751163 -0.3372395174810127 -0.07790931088296905 0.6227026737206823
Ni 8.697980400607614 3.534392979067569 1.7746664187657717 -0.23326539119019182 -0.6046224191802039 0.021872374593059105
Ni 3.0216230325826032 6.3007539871430245 12.418452481517688 0.5070477686578235 0.14345161556015296 -0.14301967022905693
Ni 1.8756677690262245 2.0528245327352574 1.1816399758062406 -1.1151175229566797 -0.40236478922543606 -1.291597529726711
Ni 2.2494890505076985 0.40522301157136287 4.712258547843558 0.6775404474961687 -1.323981088263739 -0.9083393794237388
Ni 1.0085471728509496 8.503301924400144 8.788545752083909 1.318801858055645 -0.3921343697466795 0.09955517128751887
Ni 5.651281273125234 5.350284609215388 11.84580430990565 -1.8403527054256499 0.663974792996592 0.5329092098056177
Ni 0.3450561607776056 4.543580511114701 9.003279535870362 -0.7607300329414705 0.4956241002019141 0.4182135833322346
Ni 3.911258286872924 2.858507768349277 1.710662981135757 1.090022527661265 0.3593844290091681 -1.9255215260845098
Ni 8.681971420703057 0.03722435849111701 11.343123268959378 -0.37798147528506515 -0.6567003708223659 -2.590699081139951
Ni 8.43688089879034 2.390358793099737 11.835508447699208 0.6250979134257363 -0.20821359042788656 -1.4802959329398055
Ni 6.981028906553986 6.2743229293064 1.853923398060209 0.5212094048701862 0.06339029133118759 -1.4972896392843245
Ni 1.0004730786382166 5.196023006911886 11.93091639958953 -0.7209003025390424 -0.9820523928371734 -0.6751292669515147
Ni 4.124609266018347 8.898162253675027 6.063024811815985 0.08043079175324212 0.8745967357556551 0.7286586063282225
P 6.328604971892922 9.284187482156206 9.486184614336276 0.20166781888956883 -0.05210880488009736 -0.3083670574210367
Ni 9.053073495742773 0.6060322310396734 7.2147451642516165 0.7755678692852513 0.1649583792836772 0.6071773243915737
P 5.900186108510865 7.610307104471882 11.976269607644937 -0.5824430548696872 -0.22929457946790185 -0.42334576235247734
Ni 7.7896355211070984 7.917159806827976 5.884435128398392 -0.38809259557713804 1.1408905181557254 2.004599146243967
P 2.1983159982214806 0.5691178435217809 7.3533198223622644 0.6283115352670277 -1.2017125345391046 -2.6128889869734286
P 2.184803491125229 2.2356981263696283 3.2467157864383127 -0.6252285254663297 -0.6562095472288763 1.0267566777230832
P 8.212337554563819 0.08574780859602982 1.7644243838540796 -1.0928024043992468 0.16811877928952984 0.20477191173618928
Ni 6.002792068988997 0.4318480332804543 4.6421290072367345 0.4393138556459595 0.1382433318863361 0.2998991291593416
Ni 5.155429802214766 0.5510244480308106 0.18920201299490236 0.05803056968117103 -0.9092140687192083 -0.3762346677972876
Ni 3.3204480435662678 1.4268316559108185 12.75489070679421 -0.9134959839240139 -0.8955923641707156 1.5115083539868677
Ni 0.2877913436164018 6.010105156620759 2.284777482501372 -0.684705340675724 2.0841848163880945 0.6902411828922886
Ni 7.01911635787474 6.681981161936867 9.95205613818374 -3.073516259385184 0.04943074382730197 -0.5227073295719514
Ni 5.930589249477431 7.50059222885932 7.657145203416987 -0.6364750449144264 -0.8582080099849866 0.1330075374086935
Ni 2.2557441533805513 6.147800944936068 4.43645491399105 0.26633697693318 -1.2215694213640318 0.4541840878895726
Ni 1.2619994865862787 7.776679848094482 6.140692957858445 0.783523119576586 1.4443097446531836 0.29506956898118214
Ni 0.12494800002725125 1.408567497967533 2.9889767783157866 0.2533261664958089 0.7887383452289384 -0.42466808070832673
Ni 9.11440877005536 0.31258623730394036 4.980510583465146 0.15896642336630043 -0.9888496182646648 -1.4749135855819695
Ni 6.147160585739886 3.1356255306391683 11.39139707178346 -0.9651324771533829 -1.9061125254302786 0.8393350843398834
Ni 2.1180298039291214 0.38324569834702626 10.9121596738151 -1.921468696171375 -0.6428639791599058 0.48367901202489605
Ni 7.391007281199607 8.586056749796626 13.408752201447864 0.028275707016241627 -2.3953435776216554 0.054898708920408684
Ni 7.613267605683217 4.499683424188004 5.53112668650129 -0.8232242948209499 0.2229537248515386 -0.6962274823827106
Ni 1.9389519626315415 5.861365492313322 7.503901679429734 0.7203074061500497 -0.04649634378932637 1.2821178723710498
Ni 4.116859991687735 4.959349960230144 8.014964001391547 1.2901852227602166 -0.4764534408107343 -0.23224414901452906
Ni 2.065102724279448 3.5434972163350302 7.797906363362716 -0.05294698451067656 -0.4182277243996217 -0.14305283745983752
Ni 8.876000257146284 2.9976049224417385 7.380621397482975 -0.050300548026764993 0.476546771855489 -0.5144854558827914
Ni 6.123513698321445 0.6265413583968212 7.451551851113431 1.1484559892078092 -1.5809785329635482 -2.454588479325902
Ni 5.954115489511084 4.080637934547164 2.335482794157335 0.478596455295666 -0.8825756401960736 0.4009283138892256
Ni 3.4582366375621825 3.788355724046232 12.582793708791822 -0.24119287356738459 1.24240049917677 0.7309720849527476
Ni 7.366265286750014 2.4869973483148957 3.815288860614936 -0.06840805626075315 0.5693078030393098 0.231524240129369
Ni 6.397309017245638 0.6491803761238795 11.536885753099266 0.449566129501587 0.2422017744478732 0.09676166770278175
Ni 3.4441951380864753 8.153248177721899 8.513067866170326 0.09074785740853403 -2.1607910921889237 -1.230523545233526
Ni 5.224607156538572 4.046949472487141 4.700617931325133 0.91747502317642 1.3720211223911016 0.43556235902332724
P 5.825226960285296 3.1403122175097775 0.43651151873091215 -0.4913930928397021 -0.4446604646698536 -1.0109328233169492
Ni 1.0758127301542695 8.780289758737187 1.544854496051241 0.19888022884210266 -0.8464344143888262 0.5343847659098796
P 0.4231539971212725 2.9477033079798245 13.479668734226227 -0.2898049781481331 1.149613242740704 -0.7139855776970799
Ni 1.428400071913062 2.3309353158076345 5.4804482884927035 -1.4257263252240415 0.5171082382176191 0.6161713003600678
P 8.814497932608605 6.828966798880849 0.42701564149129334 -0.28526852373036027 -0.6805296120314797 0.08969396222272295
P 4.6305765561148835 4.122994447175801 10.225373507852812 0.24967468578615068 1.273348610818852 -0.8783045236245455
P 7.887350622217288 1.801014879546657 5.823474789035453 -1.6145872221569293 0.6748801270551862 -0.043702840204589255
Ni 5.794879502727094 7.265970187718974 5.0748308527787644 -0.006794397214014105 -0.9757591036292935 0.3480656615622393
Ni 8.949762212092033 6.4695860813016886 4.670287178789438 0.942258657879003 -2.6899799157201607 0.5100382187447152
Ni 4.286341725610642 9.104803382112626 10.943699684369092 1.3232015297852373 -1.3866830952786506 0.15370286097451594
Ni 4.137286521989143 1.8362346353366816 6.688551804123781 -1.1862023547186473 0.37893946832296027 0.2798105859395826
Ni 3.564081516293469 0.9363721950435656 9.013087240196818 1.430750775021826 1.7563341963211492 -0.5298076880621586
Ni 3.9613826349682926 7.460778591879293 0.7200384413234625 -0.18348369178137433 0.8945302414547884 0.9841002765051374
Ni 8.120070146905208 8.270007004492465 8.53876668718697 -1.9397644091567692 -0.18327003310867146 0.46676603831964125
Ni 0.8179205926587433 4.188311085186391 3.6521967978017607 -0.18671633978605906 -1.2450361370274041 0.2809500988606645
Ni 2.5294373860560766 4.747595238791147 9.901160574882537 0.41677890776823706 0.3987842709630293 0.6642910386854302
Ni 0.5211363785916079 4.720096915627552 5.8933184881460114 2.4981272831488006 -1.735147020720573 0.7070178881299953
Ni 4.100229213723117 2.116118006908635 4.210514844271407 0.6516648652809874 -1.6728967565310997 0.3132801784519379
Ni 5.671791328539189 1.456046884165627 2.2400618494717284 1.9202767327458024 0.09102450810868841 1.0408519794738849
Ni 1.4036766385995902 4.857291553267588 0.758179719938968 1.402451928077133 -1.0846880028222285 -1.101614089153606
Ni 3.6133149298550187 6.77005375283208 6.249561445663879 1.3250576091573694 -1.274144110136954 0.08081877122028017
Ni 3.034383813665946 3.885384063119936 5.754880254385854 0.8325615130614757 1.608128868126095 0.27294291228547185
Ni 3.196496776548726 4.113426181505309 3.4059499171086913 0.38725698704972017 1.6983180248176817 0.15456880851923702
Ni 3.5387455654879965 0.5444194677420726 2.171169408587383 -0.37522319581363767 -1.1984675452392455 0.07225005571466267
Ni 6.108488458631313 3.0278317326151534 6.660896639359962 0.29696987132768854 -1.175274394952234 -0.8467609444903095
Ni 6.965595321869188 4.4072768080084845 8.21792167236589 0.23687907668337915 1.4183770839478218 0.6813464515058201
Ni 5.652506308109236 8.17553082163543 2.4300759121719344 0.9140760247972 1.7951270008186309 -0.9665990343965805
Ni 8.153396666810869 1.7966158902859266 9.322861465378391 -0.40660813788282224 -0.1758868532707229 0.6904085617080884
Ni 9.112060786336025 6.381791907448293 7.155549988933805 -2.7869457290139485 0.278377710147798 2.0967377133524407
Ni 7.703558252344917 4.1785015247463235 13.211567043807221 -0.753802709694018 -0.7860404866818012 0.6202660392547318
Ni 5.66742018098264 2.202380887032029 8.81158197812396 -0.7786835320960976 2.1195377419660915 2.7749548752006596
Ni 0.5274286037367032 0.761209825410758 13.08400841998452 0.8479284824358494 0.3859174423026902 0.8129661074280515
P 7.762573384642352 4.86066039947359 3.243822105317014 0.7668448875899568 -0.1638800586178339 1.7453226757019944
Ni 4.9366404101858254 6.07433596816826 3.0783124545240494 -0.877695943506269 -0.7905746271067287 -0.09975725999599594
P 2.7502035390819284 5.920798250173485 2.3378604756944634 0.5793705865919506 0.22031603011837542 -1.755303955284422
Ni 0.682322212725133 7.565324191082093 12.366347660198187 1.0167280898424877 0.5475290166013215 0.5161967821469432
P 1.145407710040803 7.808243060068627 3.917391814304183 -0.3509015883491376 2.531957601434685 -1.121004834975392
P 5.77649469739902 5.441531154387331 6.497003663523156 -0.4211574964519069 0.23175846762736216 0.11843092514609926
P 2.4852061986791973 8.800122332682717 13.350385780857865 -0.09740392927247095 -0.4717375233923037 -0.16034016378537547
Ni 2.2635212694153446 7.253404298564904 10.364029834962395 -0.15533936813667443 -0.8439844101864368 0.265299279697285
