# total energy = -340865.80650719226 ev
CRYSTAL
PRIMVEC
9.27650188264376 0.00000000000000 0.00000000000000

0.00000000000000 9.27650188264376 0.00000000000000

0.00000000000000 0.00000000000000 13.57709818842571

PRIMCOORD
 96 1
Ni 0.49345331244723456 6.23176842148824 12.305303840099503 0.5068773045182302 1.3338721221252061 -0.4103115548763385
Ni 7.475283496215827 9.378172323361444 5.513604838513804 0.5157892622958794 1.1133483468713985 0.3246956193777311
Ni 4.837176237420753 2.1308310309218665 5.605521984872967 -0.5602220386879577 -1.4285223999119396 -0.8454116295512666
Ni 4.488880698474673 6.955530373336961 13.503727694571696 -0.9613431853142798 -0.12111644239806238 0.010045814271776247
Ni 0.3189363382000495 3.6978733846214737 8.28082152258714 -1.1486012565364219 1.8889072172955854 -1.1267911026398658
Ni 2.026841445038269 0.2194421451192345 12.808227533298618 -1.0987059143678755 2.3400442908287182 0.5250673451636957
Ni 3.7791726469483113 2.33051701002359 0.3844191648505683 1.3156098334809085 0.2790302561301324 -0.37430608331600695
Ni 4.8029644985502165 6.408726971025751 11.001617663688119 0.06132003906572021 0.3071162157330711 0.20874992254733082
Ni 4.119620265318341 0.9822980587689587 3.8330589186199644 0.13700585993480918 -0.13388762602080168 -0.9743403689048963
Ni 4.251624886828028 4.274686270459306 12.344311530433181 0.33107195521772015 -0.015047638361741824 -0.6286488640017883
Ni 2.344839928899975 6.693478472210667 7.97122291116233 1.0191235866578578 -0.20195321134047156 1.06317224023764
Ni 2.1209237269322427 7.019575342198722 0.5592663825640741 -0.2163526745952532 -0.0908545581897274 0.2625142607529801
Ni 3.9062607224706385 2.983582741174818 10.109561415041876 -0.4216704315325835 0.2200128970556598 -0.15600271275228617
Ni 6.346082753945293 7.758216803035605 7.034171917880064 0.24853542997538486 0.3667838067970328 0.6613083019080224
Ni 1.751932312329936 3.199511875038556 5.091995250044509 -0.9633391326983862 -1.6163677110961194 0.7896474873067691
Ni 2.4516124653424556 5.045934635344435 10.15986510169406 -0.2553948760993795 0.1343293415439106 0.7199883322477343
Ni 4.62192428819301 3.9956583709238256 2.3831203414875977 1.1777012592261717 -1.0273670576135725 0.15315367333926527
Ni 7.740118347901002 4.549326384613614 1.6681905470625853 -0.026884225985353703 -2.020874743475539 -1.8652098736786458
Ni 4.881703446362883 5.783657722496886 8.6668724241154 0.2595976013268174 0.9527834686697269 -0.2603622474069838
Ni 3.767076088519033 4.266745584864626 5.551119012047548 0.4843392713167142 -0.7792674296240257 0.2331790021239726
Ni 2.7365494965646304 4.454177305005401 0.6468514025532422 -0.13651709322384875 0.8843075352855159 0.7551851918638414
Ni 1.0202018453809463 3.989572985701735 12.530630070350403 0.2511592407514771 0.04406767974317572 -0.007508649672219325
Ni 1.6517553687120081 0.5934039094197064 3.916014964179524 0.8573505470806976 0.20480610740823438 0.3333386397647098
Ni 6.100960468718871 8.286940303215937 9.561684721465124 -2.10053523272166 -2.4680345775284787 -2.414008243910694
P 8.073135488278814 4.346718307425062 6.743228351701633 2.251853909734715 -0.6151284609178502 0.22460077353665833
P 8.825598936891483 0.5902369116836976 3.879628813272314 1.416382422115296 2.4039038084868403 0.8108565172842164
P 5.8474522258083494 1.9563122013743088 9.296972319604539 -0.4920363828506558 0.5328906978628564 0.19488781985325793
P 5.981117341151504 3.155903039780858 13.411892181428925 -0.06167022331628733 0.25739005215253735 0.18750849667005126
P 1.7585835641656664 4.663659270074393 3.561924394519663 0.957918475903447 0.2981165833376221 0.3893367523968843
P 5.497412704512036 8.554418957932052 11.612301840778116 0.34827726335241305 -0.6485607724343669 1.0761735375933144
P 3.6948214155085655 7.772706698945523 9.226969053596207 0.5756016064678215 -1.0498325857059403 0.2488228793088166
P 6.461649414153844 5.151529056050322 10.412385397156179 -0.210295926878212 1.1422781425318715 0.2411481363723782
Ni 7.6917042846783 7.020855499455809 11.249847577038626 -0.22952315053894023 -0.6557542048590126 -1.0594662521409626
Ni 1.5713002680546986 2.126480351548146 9.01204363723404 2.387990479690694 -0.7169819413212427 -0.417954673243893
Ni 1.8913024763188002 6.953647243458782 3.420003192518489 -0.24604583078431175 -1.2410144174625208 0.6075048829343215
Ni 3.7783099322750577 0.4981713412947277 9.653194629392504 -0.2847033952555097 0.8652623457286066 0.8491597837397891
Ni 5.974391877300869 7.097674211382845 1.9894933208878716 -0.6619927295695567 -1.6977773218228633 0.4903327698959878
Ni -0.0979626426232431 2.649183402019428 2.9305081634161727 0.3758487452127785 -0.012263390748385332 -0.5597875222537004
Ni 6.867960195750773 7.70516448888143 13.358017969209694 0.39085550303425587 0.29125070945572423 -0.4312184802323347
Ni 1.5044909016377788 5.2478562513951275 6.37549297545157 -1.5823011084297136 -1.2676191645342427 0.19137620715557363
Ni 7.04900040610798 1.8143538933656833 7.2360777638775895 -0.44035489531596417 -0.32626373519579943 1.4538027717452833
Ni 6.530045062389326 2.233837307607992 3.5815302812069945 0.3843547258012606 0.20862753803685358 3.6112460305078966
Ni 1.8596417754605739 9.199237878927123 7.938542722749365 1.0141302472083245 -0.3264671094558571 -0.14178425516005905
Ni 7.1870904128397575 4.0696663027863895 8.71902213463831 -1.481465013547242 -3.1036655292750543 -0.37092405421765146
Ni 8.448091693578993 2.5800549101367722 5.154083804663376 -0.37401272044530426 -0.058576929102944285 1.2367433008909925
Ni 6.186480539393348 3.671472460319537 6.20939071604426 1.3578283758304874 2.894925119809421 -2.598730178974544
Ni 8.84967145922582 0.7774840294374 0.9239794745071914 -1.4665153342159452 0.8869370024885628 -0.27319899416033594
Ni 1.5811519130331444 1.9740952554455717 1.0673190536432093 -0.42348665880571584 -0.16945986669845653 -1.4351005673500898
Ni 0.14990177655386422 7.3726297266004925 7.420386085841113 -1.652699455647618 1.3417145009877602 2.289049802058722
Ni 0.4160891422106577 8.384111660230271 9.705995550346191 -1.1123636143606261 -0.3240302178795903 0.48791104782837263
Ni 7.7889591302094 6.188901706379577 8.563211226397751 0.19536013150398612 1.2277493249224984 0.8157009898607113
Ni 8.835877300955625 2.0577600257474598 12.328697322497476 0.14248565210245784 -0.35448416349407336 0.2606977763695317
Ni 2.6038213079096337 2.7894719396927234 2.9004346720266962 0.865315310453729 0.12395956827381231 0.30613945364209855
Ni 4.9713051778570545 1.3800466291463909 11.670520238819766 -0.8571890818021688 1.0467742584955908 -0.8729797689775223
Ni 4.801044262664588 3.574709269387172 7.836362054729042 -1.8608721655352403 -0.19826470674529081 1.3581963006928675
Ni 4.280159406558442 0.0546692084288854 13.535117521575524 -0.8959479477379215 0.05033140126470041 0.11921356894839469
P 9.246139872346166 3.1977864456920484 0.7226766011307567 -2.0453907263390323 0.8551895348736368 -0.3705617857822263
P 3.9889978425862322 5.924233831727933 2.050005797840225 -0.383131909137753 2.0325064141771962 -0.8026865798789143
P 1.2909829347602695 7.454114518964589 5.838817657874321 2.433184045508197 0.32507948507971113 -1.9456375801080945
P 2.9826272614829348 9.897099837574507 1.7936570900592699 0.6542267124708926 -1.3834483903914367 1.2675870257447264
P 2.7483121009268427 6.178382153266998 12.152548611572598 0.3161384738363394 -0.8390926293117743 0.9894751676638056
P 2.6028936577233397 2.6981911613613585 12.036816829630887 1.5686763185574275 -0.8048146819655106 -0.24161427737551938
P 5.426094958189727 9.004440616307171 5.448720346233445 -2.0948559229486956 0.616787336677512 -0.7270614370444317
P 5.30811640749681 5.978482814622428 6.472433347569516 -0.5780963478652174 -1.1456190339796464 -0.6774003223738786
Ni 8.067430439633103 6.341899051605106 2.8892611255327805 -0.2775248752291995 0.9370981967239861 -0.5815850777447661
Ni 8.029619418039745 4.736813763765566 12.72388650601092 -0.40338268896698914 -0.9274501321112607 1.945246515317263
Ni 5.246594647141769 5.791941638660495 4.214548564182215 -0.11856102296606032 -1.3911041071644816 -0.5851329429970245
Ni 6.146656516895732 1.824251920853444 1.6142894329879518 -0.8870840695893882 -0.2653360464724914 -2.786383171642259
Ni 8.60294433917711 4.571506500567912 10.621295929710415 1.3648940244280172 -0.023957539256861966 -1.4824152932756534
Ni 4.224157164811852 1.279526454959534 7.57904859075434 0.07526518839190265 -0.7591439194012732 -0.04198894283727607
Ni 6.642058822384371 7.541582655030283 4.291448909325645 -1.276467358953492 0.1263229262996663 1.405867124406269
Ni 9.110804986667683 4.91087804472184 4.494087598970343 -0.2874405916810146 -1.2032418266994374 -0.4592021099294543
Ni 8.615022344602663 2.078186882849662 9.979099475791998 0.338431738016901 0.11210601136933596 -0.9928903639929416
Ni 6.725389638619193 3.1497341660420006 11.301155908842567 -0.6989649359185317 -0.6811937279780397 -0.37128092333643803
Ni 9.029811848902323 7.7355914149918865 4.398884715651326 0.8950899706130003 1.0533513974924762 -0.09012719310539961
Ni -0.0968949172588183 0.8857890439876389 6.9352630720668005 1.0533418844107794 0.15918419580406135 0.6544048899199697
Ni 6.760250732620134 0.8657443787621903 13.056402715288135 0.6377541687371662 0.43385720340676254 0.6183680509010705
Ni 7.38125687333303 9.042251637900529 2.807228091908584 -1.1453398121763307 -0.1502257010591929 -1.9223194742074443
Ni 0.8477154973915595 8.526366816298511 2.0321791442102066 0.07254341858536538 0.14514700098470484 -0.22122902885094803
Ni 6.1677698351357915 5.470241830555475 13.700378402263862 -0.8340949189868667 -1.6399876645079046 0.5598098908512036
Ni 3.2049479051302407 8.622842435673125 5.903865416587467 0.27936835619584144 2.4569019579504268 0.1191372071845045
Ni 3.9271142986585357 7.906288325771911 3.3607393327168875 1.1834209353187684 -0.17079632612169296 0.15079211508562418
Ni 3.221191059892255 6.4446177567334795 5.488080543637915 1.1064410782286043 -0.20220877899470338 -0.5866542647375574
Ni 3.2434732173670455 8.20800654886415 11.57542681822273 0.933253111946283 -0.6575213240617644 -1.3115212652338317
Ni 7.294660728442452 0.31110604297753885 10.782876822109724 1.7928680295811252 1.325924070922723 1.1001225922097442
Ni 7.99263400511219 6.26243653664713 5.926565944296277 -1.3362835597801759 0.6195924102264748 0.6545046487226276
Ni 9.173152355688527 8.738585349417072 12.454788174069535 -0.9562760552040176 -0.1726349219923285 -0.320836393532641
Ni 0.7220300289509095 5.379842319901089 1.9032515383684578 -0.22569992013810808 -0.06349339256795516 -1.5148826697757394
P 6.940187039255651 4.310790415709882 3.5677491100394056 -0.5402373680359147 0.5140594240889663 1.183883990998116
P 2.5838211698931275 4.281504499328569 8.142593295977603 0.5470201952857031 -0.3181007397690328 -0.4238574118815732
P 7.877048791899912 9.166055831763375 8.51772853776374 0.17593570423078733 -0.18880253289112647 -0.7546768847688551
P 0.5570595027708798 6.152945985158807 9.788531370371361 -0.6478118100834843 0.7160175205254442 -0.28008337998499505
P 1.2268452008798776 0.8684234325002086 10.650011341227156 -0.17733875522590103 -0.44591696278477394 1.7582913200475199
P 8.83725022323134 7.319076481345719 0.6601010301640845 1.0609585204157728 -0.30197426652081544 0.15817452359262438
P 2.3477156444774874 1.7094552102995173 6.606900880323815 -0.5450952103488483 -0.7945706356399993 0.004916720575327016
P 5.785281110322901 8.978141733525726 1.2623037016007932 1.3636238994663419 1.1294282831523967 0.6550378955182783
