# total energy = -381165.3524927351 ev
CRYSTAL
PRIMVEC
9.27776970942687 0.00000000000000 0.00000000000000

0.00000000000000 9.27776970942687 0.00000000000000

0.00000000000000 0.00000000000000 13.57895378107780

PRIMCOORD
 96 1
Ni 4.592737258923784 8.805252957070529 7.709681946936979 -0.8672289825366741 -0.029771317725161627 -0.7673141139168914
Ni 1.2154620622292307 3.4272823757631263 12.596652540841264 -2.4307929195682005 0.9288390420389875 -1.5120449432166283
Ni 3.5685456983045145 3.607011331777298 2.017492786784213 0.3441154186652396 -0.3650796796217325 0.5698564764539282
Ni 1.1474003431852513 6.950218557870775 10.164648483981397 -0.46961224951918484 -0.3301934092675088 0.7673999887624783
Ni 9.248739629919664 5.171846370293214 0.2900165886193376 -0.3870343295159528 0.2651383286393885 -0.5208962445051416
Ni 6.856587305336446 1.8270712011083474 11.525680609479961 0.7455085880060257 -0.7879353897116688 -1.592351036466548
Ni 4.1147280047547685 5.254928798597309 6.212846466407573 -1.33533559404461 1.698082511768108 0.37312131897928646
Ni 7.075366394319009 1.9003655823034724 6.828326290835375 0.6312307657963515 0.786645981476284 -0.6300621994095471
Ni 5.88590992075939 9.188953681511894 3.208964391938209 1.5600109295729456 1.810742595868701 2.3137622172037378
Ni 8.875606285248077 7.394104174820086 6.547092966858749 -1.3129225164567326 1.6578221215861642 -0.18857781847483007
Ni 4.999873629808045 3.2179480564079865 5.8077187326788495 0.37825992575743245 -0.11922359625072369 -1.3634053556976324
Ni 2.0066888238852614 1.078819069034066 4.490139041905266 0.44642784098292143 -0.45271187421942033 1.0591160678903953
Ni 7.5560662017217695 6.768383548118465 0.24790850273424983 0.31353240367206003 -0.08213157649443274 -0.034601392123953315
Ni 3.493729762866858 8.839821927239267 11.447968154319632 0.1652309162187735 -0.3179220480993234 0.2204319868709494
Ni 5.155396884488284 7.130791790934158 2.9560162046640617 -0.29244910063919954 -1.7556932203030409 1.3334041813498518
Ni 0.14295744330167107 5.800461661163554 2.6730442266322503 0.802859872231985 1.0070882527598786 -0.7753801787544775
Ni 6.765498161719518 2.315573612888969 3.968612408622867 0.03522077087550708 -1.8748414832311389 2.4263099440961824
Ni 2.6833258510930653 0.99681286202347 0.7864375768999643 0.09352567726398732 -0.9067311543963545 -0.01546210019134111
Ni 0.5550741209992923 9.055075463708647 8.35378554666392 -0.9563945830597529 -0.08888457894755016 -0.6810438326637368
Ni 2.271856761725497 6.9749809253910025 12.629499556940406 -0.839473923910593 0.2069105553457469 0.6853684281810197
Ni 1.901627358992401 2.242937953347623 8.810541285840305 -1.5632857436694754 0.9605978225078231 -1.3972850391642129
Ni 3.6350209187175615 6.404221806815953 10.900749520985897 0.4468996384130174 -0.4913802373238957 -0.6694903234981825
Ni 8.13590825690315 1.2785230633663527 9.09291577549883 -0.4931676682416216 0.17945631578953608 -0.41598006601602555
Ni 3.5480325493396516 8.899533653488865 3.652276642715639 0.5509416418272963 -0.41305903571448865 -0.08239100080340649
P 7.575493851623364 8.856002357720826 4.956304295183941 -0.09186525884242888 -0.3141754365726976 0.11686897997561808
Ni 9.261607896592782 2.9157247061002405 7.509677352864095 -0.11817021528554487 0.6348195115888744 -0.34855391405256747
P 8.292739677121176 7.198955565445623 8.748417339450107 -0.2984336003574086 2.0492208987184 -0.5387628403729173
Ni 5.758878697047535 0.43713789499447353 9.792679499416137 1.0818348496441497 0.7693026051018299 0.2639833890993389
P 9.07431755821481 1.620065601965863 11.984377258092552 -0.5142054627485273 0.7578902494998302 -0.2916772554701816
P 6.8569862494366225 4.792033031386123 0.1635800699498386 -1.1349049899962518 -1.2555576053840185 0.5141198450132565
P 2.818224623571181 3.016407063660936 0.17259527883683898 0.8884693799726892 -0.6255900225708064 0.7354373198129528
Ni 1.3366390132152466 8.099288899614903 3.1229418383935155 -0.7475101918170868 0.6106094900015743 0.5060090429806641
Ni 1.5401283376143193 1.8971183628834352 2.550738171065039 1.006993121942911 0.04378614394701492 -0.4800126189169023
Ni 4.7273669760785255 5.692756031885807 0.9689016194427847 0.7891677194568733 0.4229881219027425 -0.272977107957517
Ni 6.030958573367565 8.31284460421609 1.1748022362054793 -0.5450422456237257 0.03209482365201569 -2.1621350078113277
Ni 7.982259111716764 4.24567444731021 3.9347735989351476 0.2840109971741754 -0.036767289427020546 0.644594074477135
Ni 1.252044308438392 0.14515998584543344 12.667710979521448 0.32190802933026497 -0.7288082445322094 -0.5260291948563328
Ni 5.414107494567531 5.0335333785391745 9.98797191422206 0.12251820784159545 0.14528352656256913 0.622015932066303
Ni 8.062845819952315 8.911372087717345 13.451705719640568 1.3019783587404028 1.1162791473649485 -0.5055081920848455
Ni 5.175112145252794 0.794857152967632 5.5631891936953926 0.19289701467547424 -1.2127129994146664 0.5220295867786364
Ni 6.6990600523855575 2.311240894405662 0.16768919418165137 0.7970715476849822 0.1575158069627029 1.0346833887693276
Ni 5.447359021428712 3.70676591236084 12.10491775407224 0.48366050008213474 -0.15621251477024709 -0.2778825156789343
Ni 6.878482841997268 8.953947773198918 7.785628842509786 1.2054635169411045 -0.43401815446465897 -0.41777186780912573
Ni 8.147848746599117 8.519070870697767 10.482450137512528 0.04279986877434564 0.40148495772364406 -0.11036820274262284
Ni 8.941775339258664 0.5419367990027991 3.395322314454143 -0.12010059953903832 1.3769373287457964 0.08290650698724432
Ni 0.08602533687562493 1.4732448953313249 0.7009308673545681 -0.6147073142200317 0.03219381112372519 -0.1462204365545417
Ni 6.6277232806122255 6.52449881413413 7.5499929736293225 -0.6242859590474023 -1.0285266251393126 0.38372094887200364
Ni 1.576070417709245 7.162512485783036 7.5577195002950575 2.4483772083088673 -1.134337033307924 -0.1340460059755369
Ni 4.248123778529895 1.9694385782525488 3.788514197371788 -0.7443629044373568 1.1395334899071987 0.5806000881236776
Ni 3.38408507970686 3.487448712731529 10.382834723475558 0.09516912640468127 1.3051022490813653 0.6071750103987286
Ni 5.82043669948167 5.360166541115828 4.7278661200922345 2.716408799335651 -0.13065086425105885 -0.9933189668899279
Ni 2.8800609590984605 8.159798514064853 9.261389869003152 0.59860038135584 0.3785643443717287 -0.48919248564395756
Ni 1.991890781099663 9.233459143105947 6.439058904531089 0.210607801691676 0.8680000563747438 1.441311581256808
Ni 0.9608800596983157 8.028258294244033 0.7982806500133284 -0.6204069357079702 -1.2223304678997722 1.2210207479494133
Ni 7.009605562178369 5.807791099283068 2.4439130021386095 -0.47069159862629256 -0.7490891062684325 -0.7842473993371203
Ni 8.281328020302189 6.445702715464485 4.566439420506368 -1.6569464038494301 1.7906175429840516 -1.1343802278410333
P 3.2194881661900614 1.7747816906759772 6.665921714315589 -1.8012236006346722 -0.3485901666071416 -1.0473555849203573
Ni 2.1422555957869274 4.554058236746255 7.618852580873654 -1.9359283232401305 0.04648657359731348 -1.0081699158598314
P 7.100323595004437 4.076280926821528 6.081144813392728 0.7861919246580008 -0.4181541908492089 0.42225869993588566
Ni 1.676465164407023 4.198663987877843 3.2702060224231335 0.8514915171967594 0.6597484136200703 0.815162600858738
P 4.352916188099381 6.216783024121636 8.173063869284194 -0.018788593461412803 0.8986992852308134 0.37541320033725667
P 7.539273438435292 1.739526165544145 2.1088389246238135 0.599782060368767 -0.1815319673716422 -0.7235053442620571
P 9.238237194538288 7.306531305946569 12.081277068917391 -0.017216620988602608 0.20669741089367627 1.5258939332845785
Ni 0.25490208558803273 5.154051607871411 5.873454514841105 0.6912523977656224 -2.320946393657003 0.6633410160673351
Ni 9.220748598518943 0.9350136375752767 5.82994734127447 -1.6839136764668932 -2.2008545358687126 1.7334981722632405
Ni 8.09492834782228 7.927928491934656 2.5636797321193523 -0.29980117012889657 -0.5156861610591118 -0.532399874269367
Ni 7.953247525641174 3.859589336037561 12.125720369453974 0.20957524666210356 0.5915139068227039 0.8189516355875252
Ni 2.8815546800316776 1.8484286271224204 11.91705312174541 -0.2893784321336758 -0.4604629789197489 -0.11868263614558915
Ni 4.924120639623464 2.093946248586546 7.738075633545785 1.8898335857645971 -2.4724715302539098 1.2933769902246368
Ni 6.351542630053179 6.665576581280089 11.664687578412913 -4.18573383508625 -0.8227946634826991 2.7376078020107695
Ni 3.504371364794809 4.672451856800811 12.698969641435705 -0.7835267191210119 0.888850931681824 -0.743939443746693
Ni 5.949963643262067 7.441949633531892 5.571675569705415 -0.07567013713980517 1.9767273595343633 -0.4520089346151248
Ni 2.8196348445764543 6.424503011536529 3.359609395272574 0.6323471387889819 -1.1931646449690936 0.5407089083556946
Ni 1.061209862007693 0.47441504615952323 10.425187742482613 0.7579961789500752 1.0616609457994362 -0.1161326160302258
Ni 6.300403563072479 8.815940947847338 12.009077464555308 -1.0190335980472127 0.6035901212609477 0.1207048087819405
Ni 3.476918444040837 7.923419495825689 1.4646258472135691 -0.34912187074089546 -0.07295016710548081 -1.2769527832303427
Ni 8.77128704193694 3.1868304165942587 10.111486863190501 1.5326747036518378 0.8570764674837046 -0.24793096362216657
Ni 0.181832226421379 5.562310588898028 8.315656696233843 -1.208489448251622 -2.4301419162477633 1.1568976922172591
Ni 2.3419967011983003 3.3798915277701265 5.349795850065206 1.5341656863750674 0.1647308366539034 1.2806076063741108
Ni 7.928401658193003 6.129256544096976 10.5911902381198 3.4395063666363273 -2.69086591786954 -2.082703603856878
Ni 3.354804438307896 7.597500721521444 5.835935213885017 1.8581354833303678 -0.4851910777940483 -0.608565720098668
Ni 5.43731119676614 7.55926703229295 9.601474869971554 -0.04295876294971312 -1.5574933053574145 0.047555381181460035
Ni 0.018113917701944537 3.439566142940638 1.9897652440450044 -1.8948415805021495 0.4580692818765918 -0.6029154637914262
Ni 7.041335534797019 4.333534927046645 8.596863114678131 1.054062821737204 -1.5841746713033427 -1.2029204388042767
Ni 4.830350220542562 1.3965455726300466 1.7405096091399277 -0.014908027460084005 -1.255169368806664 -1.7576462302643536
Ni 4.074443928406764 4.028435468109723 8.26153018738671 1.3522804494290646 0.46104559089609637 0.70914676154754
Ni 0.3284664498835093 2.618464962620265 4.640810950771969 -1.1290359328099846 2.5222768838118106 -1.2259822057197467
Ni 3.5907102902887114 1.2417645395315315 9.622766423820249 0.7203351740641917 -1.1580132938789411 0.8412371864586028
P 1.530999012159129 6.724453308250248 5.262903969492919 -0.5583207079001868 0.34417609669984595 -0.9504517352127567
Ni 5.910050677704924 3.3470018339300354 2.1997768405934663 0.5071336435034104 2.7207871309090046 -0.5663160674008376
P 4.592746536693555 7.640846461894054 13.01640482306086 -0.3621810179176988 -0.07617638735226236 0.2820137642384885
Ni 2.1634181886357986 5.273762671233524 1.0634968322563763 -0.0008541204701791741 0.5948218881500144 0.04979532625557231
P 5.562189977890998 2.5737553900912395 9.764313646116648 -0.12308462186802673 1.9025610606335943 0.9743563097444963
P 4.15657074642439 4.512985549967671 3.9265989559894487 -2.107267666349487 -0.8050329686239039 -0.1878003168788572
P 1.5082870317584118 4.739502298939693 10.48888612640304 -0.16435725536456855 -0.4460354906405092 -0.31674576840303514
Ni 4.854695088423068 1.0930511678636006 12.848338023649506 -0.20349844434040437 0.04716843015568651 0.6147199126255221
