# total energy = -381170.2359070044 ev
CRYSTAL
PRIMVEC
9.24207767356490 0.00000000000000 0.00000000000000

0.00000000000000 9.24207767356490 0.00000000000000

0.00000000000000 0.00000000000000 13.52671487878746

PRIMCOORD
 96 1
Ni 5.454129051013235 0.5077967241368947 0.12656655901217817 0.6783948250766639 -1.143436424506031 1.8321472867967221
Ni 1.5412643509284614 7.750351013411019 5.2064191842578715 -0.22897859088937986 -0.7260893029391495 -0.7765029795050111
Ni 2.251841504671639 1.9384980980187325 12.39421785923705 -0.15718773419932283 -0.04592453044625639 -0.5079872497529574
Ni 1.3317094782748513 3.792699204175704 8.009086679014215 0.6400486211982978 0.236844881011334 0.3601621877154571
Ni 0.5247753453132177 0.6367181645794397 5.671630262182659 -0.48233818172628545 -3.257933004503789 0.5420625941701116
Ni 5.918820724164135 7.880738247396956 3.648303752827102 -0.26394430833128735 -0.4084487906359869 -0.6171655459525371
Ni 4.481372633468451 2.24497464084604 7.019418183253465 -0.4036392850624855 -1.8249219726928763 -1.066593350104047
Ni 0.48211668668627633 6.225556045170603 0.5486855248599299 0.9988463244660605 -0.918678813676534 -0.13161348527464428
Ni 7.124569923732271 0.8686000488479653 12.024681695187072 0.35220488054159343 0.1295450327813898 -0.21360185132299345
Ni 7.614889878697959 5.1978832011766825 0.7661784181593099 -0.02358858595321744 -0.852562638773751 0.11386695992450066
Ni 3.4808252878973205 6.953360431983655 7.439273764241339 -0.7549936446783256 0.10330975323394466 -1.296068421013871
Ni 5.573425791606548 8.252870511108592 11.585793903329675 0.06766963543283186 0.3098331004436019 -0.44306380960669506
Ni 5.923072079964641 6.238476469973009 12.892636647002702 0.45058994278041115 -0.46357658484806613 1.071433708915484
Ni 5.345525394465975 5.423972151063127 10.87546536148005 1.7257689219397827 -0.9033221287148056 -1.1781769133110098
Ni 1.6335187717994295 8.339699832295002 0.9427566329177384 0.7033026440619371 -1.3381080145834245 0.045305408805018745
Ni 9.165627359399284 1.885115856488908 7.531310072075586 -0.06911948050548096 -0.17860142398840853 -0.552058529040559
Ni 2.6870047391646805 5.687380611215749 1.2871469516155098 -0.114435430833461 -0.9177974395128452 -1.0486707041873553
Ni 4.715446738597585 1.9484702999942662 12.088054622848086 0.4074244631365306 -1.4823224764515308 -0.3329768855499169
Ni 7.21712009109371 1.0161110046321118 5.668640450005565 0.03300833660522057 1.1088486592288325 1.245555499865984
Ni 8.328461465657144 7.5945203391668406 13.071121502416878 -1.0173780647216608 1.3490033213396897 -0.1438449943438297
Ni 7.818418916608243 1.1137997672654654 9.45026394811317 -0.08794715473494531 0.24390101652716703 1.3688998031533004
Ni 5.9065749710431135 3.400567084046039 1.598289819537763 -1.2657029213481366 1.6224362858877026 -0.12971549692098305
Ni 0.816190998113343 8.052493021737376 7.381474733717902 1.8875995542277555 1.6521129870165288 1.909659876461905
Ni 3.783087443235431 3.0467988289770225 0.5054233585508734 -0.0030482999080205567 0.9551249723187099 0.3489364942029668
P 1.2935396968485742 7.711756096404692 9.963142890847234 0.923481634381816 0.4120053976389937 -1.2069467863548504
Ni 3.212241264161475 8.96121108201759 8.720673067656122 1.3331887229049362 -0.8405784698286815 -0.24541745317169347
P 0.2917797906665164 4.649162556421009 2.1301196428564717 -0.78730572654747 0.2496024377873185 0.6266385184399789
Ni 3.3214641399231564 9.071940416465102 11.051948382836859 -0.2298208842850171 0.07475353886280674 0.9864813751428044
P 7.623383348221142 5.315738177628955 9.72339507413999 0.7992220183690817 -3.327702202778127 -2.5057066381579554
P 2.0735710654630526 2.258227780450224 6.6577950862391235 0.28308951380117053 -0.7988718341185144 0.5127263070998395
P 6.248051262601973 8.825629800292775 9.392788390313685 -1.1484914704314348 -0.4122951609652706 0.8456273451064985
Ni 2.1998363327380646 0.39026429620079056 3.841452088921892 -0.712222058038754 0.5904399570322347 -0.036873733097897786
Ni 2.591071971318492 5.6928426792116165 9.357226723250237 1.5609982331868792 -0.49303062844312506 1.1189798341255632
Ni 2.143080732801317 1.301404705079509 1.1586848424409757 2.793461418645279 -0.49652450052899644 0.7883706774768746
Ni 1.4057570058262636 7.7983081552562865 12.116974008577133 1.2905752591097839 1.0647244152161084 1.5147751976635977
Ni 3.302693479856142 2.6466076169820516 4.673547778768039 -0.6064263051581621 0.2894460521468176 1.4106519473894221
Ni 6.750561518221717 7.983242132578274 5.771294981055465 -0.7269444518505932 0.6839988015270027 -1.7447480341454469
Ni 8.844566817760677 3.329911399057204 9.355333021503448 -2.440123195830191 0.5803108390180328 0.12974789282081525
Ni 8.32958899915206 4.82662893485863 7.1552397590017875 -0.5103184689892953 -1.714556855274047 0.7726926046199855
Ni 0.5101118646326047 5.938071972278163 11.236886056989976 0.1231373294828331 -0.5818272756625593 -0.02027623375053282
Ni 5.530875265290185 3.3162053976394876 4.296639209235314 0.18644611684380794 -0.5081456297076926 0.01094415771632954
Ni 5.142199682267888 1.661642414627556 9.092657458122522 -0.2365551176850571 -2.8229781971574734 1.1561559289552283
Ni 3.1878606628533586 4.107715426915331 6.599603267408031 0.9698841329057554 1.7199335462049283 -0.093878946838348
Ni 7.731977762690574 3.3727576718640373 3.162018889040765 0.6071379865132059 1.200553481233997 -0.149678056085839
Ni 2.9055891218554515 0.22632092603990772 6.392807154985836 -0.8940008513138796 1.3126931740547458 0.45814410097858516
Ni 6.070575642086525 1.4601466338392517 2.5834537265655433 -0.12513970462484253 -1.6490508031514375 0.4177186459736871
Ni 6.049577641263159 3.1091274018435633 10.574496172829962 1.729746418530292 0.7221742841554595 0.19513310309484458
Ni 6.881022688830272 2.431368866464722 7.796622400260608 0.7273062060653861 -0.4267478460554909 -0.15523832378243588
Ni 2.2427288159340337 4.774836330715081 4.458838599310207 -0.36020306825572157 0.9695696869891304 -0.04503364320087083
Ni 3.7321820785632918 3.856524993650249 11.397948671492125 -1.259200087232612 0.8757866422986982 1.0565171968149676
Ni 1.3533174562348116 3.6951121043984494 10.69078554129831 1.3916970035534741 0.09832001332883712 0.6056516317756666
Ni 3.535852619280384 6.388632508431296 11.818697037198104 -0.33594625259088595 1.293788623840759 0.2595893737967013
Ni 4.053076262801008 8.925416514592898 2.6244802342482036 0.3865486481287859 -0.17709424331526274 -0.6981606948496815
Ni 4.02413931712409 4.632101680752024 2.8849099727171232 -1.1325305762268043 -3.0015428543706757 0.3006033543152178
Ni 7.708031539040336 8.679004235564472 7.861821562500272 0.5595247555106171 -0.2205569424845879 -0.783881017136637
Ni 8.327528015796597 1.1973296666675703 3.7022081717541626 0.33496794783801664 -0.09183774803860313 -0.05571709105664597
P 2.813981646432386 1.8861140008942439 10.233501393525898 0.5985119354070918 0.2242205073791042 0.027702093900958742
Ni 6.736458107457433 5.224759163498138 4.935086566576221 1.3013713212840232 0.75162755641957 0.1656248092230825
P 5.692657837655072 3.9273008256508377 12.7798370871219 -0.08730257917241094 -0.09493309913447522 0.10289889094877117
Ni 7.42663799543601 6.774886667062871 10.954488823733618 -0.8360373874252182 2.1034624336707837 1.9510350969745818
P 7.822864356043119 0.4117512029412148 0.9247345811547261 -4.199865646501941 0.6627100673515555 -0.9596547418682633
P 3.689945782893053 6.648639883943513 3.1333148437250915 0.04712832094637044 1.73000687128053 0.5797819630977563
P 2.2279599755661907 5.008938162077696 12.731317102736956 -1.0017380441915587 -0.6556487896293999 -0.15567335443732544
Ni 4.600188786014752 5.842000573264567 5.119794112991442 -0.9327607456908967 -1.4752234035129044 0.008334230897308226
Ni 8.219940987810329 4.164332395684671 11.592449123573033 -0.8758084966755691 -0.13902340458547024 0.2553984756438053
Ni 8.965850605086837 8.752035134554895 2.2791564656898866 1.4390112152584056 -2.2099017336726456 0.9575898889194345
Ni 5.190249244891427 8.93004679558432 7.342328064665291 0.3970780869052 0.41978709846694157 0.1848054959165914
Ni 5.870845098163214 4.075053923874056 6.80817201035748 -0.32354093694799757 0.9839496098598861 -1.3143908734721428
Ni 7.446536188997942 2.8142034563002385 0.09008160837379693 0.5303422204093899 -1.3759582526619787 -0.9955581406330918
Ni 0.22441520959194203 0.9172928600882762 13.380951071079888 0.4876328544663215 -1.5906852187283507 -2.6908214377848494
Ni 0.8055247160929878 2.588558126149498 4.979129688461674 -0.5096052449723546 3.3496799926007985 -1.8469401288351806
Ni 1.4040657055838888 5.727297145351364 6.489616996017824 0.4687707274544959 -0.24082469159468847 -0.4002842525473235
Ni 9.051533908622677 5.114991005144653 4.520438896443966 1.9757194870951393 -1.404704985777368 1.2349774672398215
Ni 1.3744356040699313 0.724378348562514 9.027039629757287 -2.5900827877121912 0.8991844523973481 1.035939372663616
Ni 4.459173162527551 7.217462047973316 0.935966478338105 -0.25273327010681634 0.6924628731339558 -0.11598014961276155
Ni 5.027727306300365 0.8332333896266735 4.864937347452315 -0.4855204361090089 -0.20190256060819423 -0.2633591252517787
Ni 3.948714719976427 3.591397507021771 9.126677546604393 -0.7602613208351681 0.3954202395868029 -0.6563910671120632
Ni 8.589744247909513 6.871420169967826 6.367470922830389 -0.43192861892548196 -0.19356421594582793 -1.5309960303978343
Ni 5.887240544228641 5.54127260284577 2.5313080750489956 0.9295656357923668 1.1214234105700491 0.058301306844054435
Ni 9.221320120385906 1.8436004428891892 11.285554838827935 -0.007445657644767822 0.4803219226272051 -0.37284363983786756
Ni 8.833864491636797 8.608182193174748 10.973777964366736 -0.11351189057792709 1.1939786562299568 -0.9192274870911523
Ni 4.036375828167284 7.938926369396919 5.301917574446181 0.28925527629225023 0.48151285761151263 -1.4445015489490154
Ni 1.989107716200402 3.336214496135345 2.402019724116711 0.4397622560372878 0.48169309194311877 0.5726394385157041
Ni 6.3170064052706065 6.492014391006196 7.3990993761343455 -0.0851744770858146 -0.29287950330839885 1.019270139538051
Ni 4.564551333913124 7.1071116387167175 9.580850810980174 0.7892844475403955 1.1791948130525627 -0.5576293382601171
Ni 0.6053958386153245 6.075067291910537 8.613487145847552 -2.5970792736346824 0.17824378353867365 0.7760118988012055
Ni 0.21858438269077052 2.107313891610108 1.6397359175537773 -3.0932646456567046 1.07928791485258 2.9399212249041367
Ni 6.850570042389696 7.368856524860446 1.386948453240158 -0.30044857390490837 1.8663370453045534 -0.8106523716932102
P 4.638682040164981 5.272383590541627 7.988715291067533 -0.810679882497036 0.7592668181323827 0.982137753462128
Ni 0.4415032998824912 3.6536706274213486 13.50658695285487 1.422116496385596 0.8601558777399767 -0.8968753446481974
P 8.592627776191595 8.280938701469754 4.437601228671117 -0.1301086185943437 -0.2875910012159499 0.5119750307561118
Ni 1.335775992518813 6.7100072807160265 2.8959071211236913 -0.27410247981121183 0.27942337780349297 0.7323450540408742
P 7.903214980672672 3.351805881429807 5.5569508636718075 -0.23017235408716488 -0.6843957798551052 -0.4089139031978635
P 3.406186267364968 9.098067770482556 13.425102325275919 -0.0833281679056952 -0.1773858064137526 -0.901433396332525
P 3.7119696543552365 1.8704764052106455 2.8539610266972257 1.2119694363804223 -0.6981694366004298 -1.952976794081985
Ni 7.907170589982708 6.328180077363674 3.131286207642024 1.117239711506005 1.725445734272409 -0.7271681378256251
