# total energy = -340863.25974642846 ev
CRYSTAL
PRIMVEC
9.35080717151809 0.00000000000000 0.00000000000000

0.00000000000000 9.35080717151809 0.00000000000000

0.00000000000000 0.00000000000000 13.68585148959458

PRIMCOORD
 96 1
Ni 1.5692805400545005 3.3283076626321706 7.117423110930704 -1.0595719244808912 -1.7838889660109665 0.7650667126436114
Ni 5.979009071443057 1.5194687893596 5.57983152186737 0.6313667771535836 -1.9410324772359149 2.505622563084582
Ni 8.530713482955857 2.294052266093746 1.7080352999965869 1.2843035671684593 -0.07059117995500101 0.6433252350670404
Ni 5.188164540746375 6.7013589383814995 2.2650628931813506 0.28684178175475117 0.9660225930678203 -0.6920471257527759
Ni 0.19257613682395391 0.9945799209990099 5.484454222090212 -0.18347237892746468 -0.26708336818090134 -0.14616772893973537
Ni 6.4160845080830144 2.9198550472569207 4.086198078104719 -0.12163837633980341 1.8245607326987159 -3.9423555238317713
Ni 2.1797199447596833 1.1328970631576305 3.7234278969034627 0.06019158188823183 0.9623600566145684 1.2542311732631108
Ni 4.520638457236543 4.52906353464899 3.8423580102061154 -1.834512444594789 -3.041935656365426 -1.298425865502454
Ni 1.345281950248541 4.812570662360402 1.89221908723378 0.5635343908906424 0.5520690705635202 0.3953616184347255
Ni 3.9112930969900233 7.060149415979273 0.0472860976326344 -0.12376647842639976 -2.1200072254033424 0.15814289902374054
Ni 4.043251690158118 6.658298470585364 9.694947906748709 -0.7899670754297169 0.34216806513088166 -0.48668360317917475
Ni 8.57340926926577 4.650137788074478 2.5992719684463377 -0.5323175989682059 0.589394546486856 -0.27728293442172247
Ni 8.214889965080829 8.095274437600226 10.784204752055183 0.4506367368579465 -1.8830335321236278 -1.5387389075680467
Ni 8.209728319429697 5.592390591204393 8.983201855332702 -1.353546460625682 0.8191321270294473 2.785328762235816
Ni 8.928328512625194 9.056210153793481 2.964971757586905 -0.4103398370111127 1.6076884381545669 1.1181509104663645
Ni 1.5972862080348325 5.538240065904192 8.092033447776526 0.39311781670587137 -1.8460777808348852 0.8669338198937586
Ni 1.3228961174789533 0.5586508933388157 13.359375949665958 -0.2625877943033929 0.6661831135018205 -1.2790580024988036
Ni 6.929967476205591 0.6940328170737213 9.981296744810447 0.9176616852659293 0.5899157090976486 -1.0480572389730722
Ni 5.316186444024747 8.86619239785748 10.882305006929462 -2.6724758453981265 -1.0835202077663726 -0.02383592607733314
Ni 6.382926545258888 8.349766010138694 5.849551819238148 -0.17232561828202578 0.7788768790538264 0.509651781939574
Ni 2.8473488871502455 0.617712462653464 1.803138621118711 1.4983725879358583 -1.105889062379876 -3.528285273243949
Ni 0.6099625135308934 2.647110698792707 3.38316978437087 -0.06378752676960628 1.4923436081329589 1.437346425961473
Ni 0.4358252336987313 3.7922853719864564 9.524079669162264 -1.2030384524393798 -0.945119781476882 -1.9092330733371314
Ni 3.6807115388174014 2.5671145420074857 5.073701308109567 1.1832579273783428 1.6145566260293098 -0.23416244908316447
P 7.23473833980591 8.099435546866086 1.881434801129701 -1.2596592862572178 -0.41320327460183676 -0.1910188238161549
P 6.930032931856964 8.736674365404868 12.10465656849572 -1.1112282152046022 1.200537540394397 2.8421560556375054
P 2.188556457695047 6.144434204077465 12.57154985957831 0.32161132402545256 0.4706530320788733 0.29370611297475224
P 2.0953008561031106 7.909530000618152 9.570092186835325 3.0263100340130262 0.3360989761186663 0.1060567198514625
P 8.827227583675832 4.564016852482205 7.3835031390044055 1.9034033540292317 -0.978353089608715 -1.675979509221481
P 5.6609507106140065 2.6718435842043857 10.924826868222869 -0.38622006114477353 -1.8264558928388994 -1.0865127147357934
P 9.031944808748754 1.2892612634805383 9.098327125129112 -0.09639657105387914 0.4418474207010907 0.11134085106853729
P 3.662870198414572 7.033106881154859 6.2234765785141075 0.194124202214356 -0.3875531781339003 0.2022548017412904
Ni 0.9921113078615116 8.55945786471597 11.2709694438139 -0.864489472118324 0.5019209889542194 0.31032315270614297
Ni 5.178262035774364 6.468458379988803 11.70013035712212 0.3795220802993077 0.2638954573712229 1.2349126754401571
Ni 8.335973569313657 2.503809576322395 7.111962239444722 0.1898296886040602 -0.837302627290887 0.18841301076219164
Ni 0.07147663621865058 6.569802429928982 12.635928297945917 0.09473255308789492 0.4551734483860354 -0.36116928882373284
Ni 6.627038721651057 3.6781026635698177 1.5693151380416548 -1.2401716098462514 0.8536419878808588 -0.2661773114268642
Ni 0.7803127163907569 6.7612976134245475 3.772382178565376 -0.24207476195170566 -1.0723191968442307 -1.4553423483182613
Ni 6.981247303652715 6.9161563337658745 13.461869213828102 -0.029987033280393517 0.3048595584884105 0.3019788945065057
Ni 4.132075009071364 0.15515607601470788 5.297164096655 -0.10133591733702547 -2.0812378179446287 -0.07767456916434363
Ni 8.984283743741825 6.920597967251903 1.3527177122445209 0.8960137679788505 -0.5252406375167664 0.4140270560547128
Ni 8.477582195655607 9.063531835939926 7.48458723650056 -0.9035872094507341 1.1478522941855394 2.289717260439392
Ni 5.1887536416087325 6.069253713071833 7.53887895899158 -0.8912705968669101 0.8133224623262059 0.12794374973254094
Ni 6.6310502179994915 7.827766541245858 8.932810354582783 -0.6787115849861343 -0.4384695053677932 -0.7710226731167301
Ni 5.484547730163603 6.065475986906873 4.761157118368329 1.5355499683171039 3.456404427943247 3.502035081298168
Ni 1.3877907204116755 1.6098536930984606 10.734757682846505 -1.8345996049919566 0.15759011184406407 -0.23639879461285096
Ni 1.5367677829367663 2.6120358204640843 0.9764617966989462 0.6412894355839343 0.5776286642001793 0.37936807121994665
Ni 8.53455666477219 9.156319897164911 0.3580003343776275 -1.5577810118011624 -0.050358397847893914 -0.0657536493570416
Ni 7.277415424501147 6.359390563186603 6.472572735217967 0.8916657754227999 -0.5218583513080947 0.6009444561079844
Ni 7.429889688971026 2.87032382078219 9.463602387616488 0.5068073705122432 0.9736582552362069 0.6198364079164809
Ni 2.8156964043076997 4.734734542070492 5.9900916483012505 0.04673648482459048 2.056501748650529 -2.0327789511122925
Ni 5.08008790952211 8.962328048109832 0.13259164282494534 0.9032892185943412 1.4171046449933014 -0.024670506163486546
Ni 1.5439772553951425 0.2477711473039221 8.126084412701527 -1.512294597333589 -0.10242683640835909 0.5561671518922938
Ni 8.163423121486924 1.3001830064525008 12.04275609407295 0.9369148770685863 -0.22264750646502945 -0.09225529519199595
Ni 3.1039256897253122 8.157111326533093 11.76511098748236 1.3891765511244656 0.3654506898079061 -0.17582823211864557
Ni 8.092263477637065 4.263678271560576 4.866949347359674 0.43201192266790756 0.5678155347644995 1.9874943682428805
P 2.3843343109518775 1.1693184577430702 5.894263639610353 -2.213521332703104 -0.265897061182284 1.3628129735292722
P 3.2380630210033954 3.0830266353226268 2.6305167560889022 -0.5425104803408076 -0.7952424648960433 0.06906934399383588
P 5.701233988630458 3.789807408041619 5.908017742125302 -1.7898045601644532 -0.09109855587973342 -0.3918410068759768
P 7.805539672201033 1.303371631755103 4.088990229176146 0.3297594070538837 0.49608792721221007 0.3162778276276811
P 6.61390083733975 5.384858773122429 3.162704864658322 1.1843336769410246 -1.4856749378635317 -0.05107213608546689
P 3.351507015640252 0.8693894421828902 12.962636155563551 1.4774661768004942 0.3182665759229358 -0.288039144496962
P 0.8487662365967059 4.719221552695076 4.4550051405240385 0.9293023548286511 -0.5525652934736484 -0.7760239829860636
P 5.582544191076416 5.197945485222978 0.03446801093232092 -1.1969917320246675 -0.3611363787032683 0.2504447311829558
Ni 1.277441843004031 5.903678967520001 10.52981229807451 0.5670799421500556 -0.4091424742689019 0.6068351105608064
Ni 8.684347247535774 4.59264902455425 13.658397936914255 -0.4244991592306302 0.06418141977391528 2.6533290972663464
Ni 3.1605915821997064 6.764551694378523 4.1570912239454145 0.9921979659116072 -0.6304882312033722 -0.42908060795372555
Ni 1.6659304847104972 7.4397173874843245 7.0061840366643855 2.0370914624447174 2.7153443626268787 -0.1131046278371794
Ni 8.703983942947692 4.350986759684902 11.442904608517726 -0.6613440402419642 0.016211319652539823 -0.6891718610875098
Ni 3.3298224934210907 1.5460063805877073 7.798526566696777 1.0591348369434728 0.7436447953244096 -0.5407955545322298
Ni 6.627646524128092 3.0368523486826002 12.757554249004407 0.4414046767367173 1.892251194067154 -0.35682823824621773
Ni 4.901225666741546 1.6776938003429704 2.2565779706019335 0.9065959143700709 0.30906305504679676 -0.3107921219227615
Ni 5.627914308285288 4.556854134060524 9.964381134334177 -0.21362756235460628 0.6982385992754685 -1.0989298574532236
Ni 3.7978584531605057 8.432623513969652 8.042202995466948 -0.32791181232218364 -0.38270279202013446 -0.10552527282802471
Ni 7.851564345923636 7.285934009986984 3.971606739407365 -1.7929253651816217 -1.588910386216115 -0.071682870357283
Ni 3.5145476924032124 4.872210111568601 11.296096933295285 -0.21330411757691653 0.38717136931444934 -0.38067059208145404
Ni 0.26442119485176147 6.144883042829738 6.087001545401272 -0.8884264425498958 -1.9717275923269268 -1.1993792584202374
Ni 3.9424219346215845 3.9432167532454003 7.887402250131122 -0.7296315117644532 0.5177587273174244 0.8242555642989418
Ni 4.451423781313198 3.1465560203838536 0.06976356831414414 0.5790479131452092 -0.008438874795972563 0.9857563240513216
Ni 2.727359327376082 3.059902088773258 12.317129353175616 -1.7657002109170816 -1.904194225361643 0.022204818231813372
Ni 5.885669312585071 9.163809893843458 3.5834893247522577 2.5117227624450487 0.14433761770953207 -0.10730627598784745
Ni 0.3033972300022186 7.3236458159852065 8.971116871927768 -2.3594766885217173 1.3657298900657513 -1.0600257241888582
Ni 1.7638427883572598 8.497349802370273 4.753616627330152 -0.29507368274624024 0.7662332221478868 1.3118771059113534
Ni 6.706745003408769 4.294891266458189 7.642069793381213 -0.36515295606182924 0.16375921676925348 0.23711896060832713
Ni 2.426637363353554 7.3545128310112755 1.8606732035948994 0.23309287016806954 -0.8175071898315146 0.38522992931736233
Ni 3.706407557384998 4.975265359251819 1.656288867263245 0.2928247388110634 0.14600446388899374 -1.2488012604967913
Ni 3.640390857571595 1.4437178991062882 10.200544189407454 1.1413211779352408 0.4832280405304066 0.5211428132983089
Ni 5.538099803794107 2.2855710838372647 7.977154104213131 0.8569715664747242 -1.2368435739142827 0.3950302032372358
P 4.07880345966103 8.505195129727701 2.9180017172423294 -1.9473453068278206 0.3100958671866853 0.04651742683524892
P 7.0636653195387415 5.768157716755745 11.09260185874157 1.4304011049918914 0.4529985522219037 -0.31742685363045975
P 7.012104967871446 1.6858290027279084 0.574433185965595 -2.422637380340602 -2.2220383690351797 -0.2629786019839084
P 2.37647963278711 3.532005649705142 9.915851379325455 2.6517008176343038 -0.30838145559873986 0.17713178142141753
P 1.0462431315470344 8.909636248754516 1.5622814607612523 -0.060229634215018854 -0.5210445971575478 -1.0998675387761445
P 0.27443310426963835 2.8140600130233735 12.881041945804094 0.6024940599832914 -0.48462929175330727 -0.7050494515497149
P 8.729932433313444 8.14203782510261 5.740982400467117 0.7204863549300753 -0.5302290918702932 -1.9003481121426755
P 5.622257069845188 0.0654416251620542 7.627973451317657 1.2005665938601193 0.9556638755413155 -0.2512137481384964
