# total energy = -340860.99709196837 ev
CRYSTAL
PRIMVEC
9.35558621788945 0.00000000000000 0.00000000000000
0.00000000000000 9.35558621788945 0.00000000000000
0.00000000000000 0.00000000000000 13.69284610703123
PRIMCOORD
 96 1
Ni 0.8715074830893256 4.4626053278197775 5.330309765062552 1.2916096139115691 -0.29838757761082163 0.5134577859492254
Ni 3.183144695769595 7.862780915467055 8.95298552036093 -1.6640809580116824 0.3125193890265134 -1.304994005638275
Ni 8.674714831429494 6.981119814524689 4.936517231583464 0.9573620891793447 -0.6772735669880271 1.6266451817627274
Ni -0.3826275767428686 5.495405926058634 13.726530309047122 3.3429809833140682 -1.764301273687026 0.9583612198678205
Ni 4.7256376377232625 1.196130424534253 6.404048538000882 0.28333531126338946 -1.6902954116235214 -1.1026106487389205
Ni 6.802035180835465 5.797797187687674 1.295494235916894 -2.328557887455674 -0.6912084319015644 1.9914214712114284
Ni 9.141876679650041 3.7828564912322755 11.95575825376114 -0.6509007334214532 0.46128676037262495 -1.0459954713480373
Ni 5.502123237049589 2.1979546764067415 4.339509200572574 -0.2122435375228861 -0.24976955949280208 -0.7007986466931608
Ni 4.72035173144208 6.425201518711953 3.1046747153564525 -2.722723171589453 3.015772881927129 -1.3963206183684145
Ni 4.8596751231932 3.5242025957351504 0.2217956919998193 -1.2107242511194116 0.8361700563483406 1.6235801696841587
Ni 9.407884066009132 8.652607580911907 11.001558614144162 -1.8824547768020226 -1.9485323851573861 -1.208575323097209
Ni 8.679317779907976 5.489118972039244 2.6987367596928826 2.1016834873934904 -0.1607101455302845 1.3653601654311582
Ni 6.548021656162175 6.135038008427172 9.754797627463878 -0.2833826195615571 0.563155924505301 -1.204903016451944
Ni 7.240363111961132 2.685960770989194 10.701301361758905 0.030271140179715605 -0.8781021778057523 0.18380507967653503
Ni 8.653356027818978 8.864960679620403 -0.5471773714967892 -1.6563529932398056 1.2377483451167393 1.6395822015393697
Ni 1.4092506813224945 2.854417458598021 2.409680950830565 0.44195077904817437 -1.0207410676566226 0.19902138240565723
Ni 4.159297218729575 5.71795661387596 10.295541162235764 -2.587878066751388 3.204375382992307 0.014118698789569232
Ni 5.739886108253117 8.896685472893841 0.07744273703318827 1.181464840033662 0.30803307112038564 1.3110492106934195
Ni 2.801174816746314 0.591551853058348 12.390163387535123 0.1036167429514022 1.1833085781106203 0.523270401164273
Ni 4.867356059577007 6.681245205620671 7.840742896288373 0.19749903222385987 -0.9225354684184628 -0.42588961182025364
Ni 3.6165515884812756 2.4684714553809295 10.24690427553844 2.128082031991677 -1.2795017749044415 -1.3542553137672484
Ni 7.049920796457117 7.113866229079929 3.437712071154117 0.20288883578086347 0.8669510462849391 -1.9350960571468223
Ni 5.372398676881645 4.104155392851178 10.574273081573683 2.0672949826112914 -3.0811030705935063 -0.10347044718152504
Ni 3.8904738008826336 0.8224308838340981 8.4982188884801 1.3193564450075344 -0.48097626838175234 2.256990459630332
P 8.21099583898147 4.793100770809304 5.208950034639752 -2.809078556357246 -0.6790373437566692 -0.6547550741705369
P 0.0437551417459582 6.476142686324419 7.144474900903199 0.4836759267011025 -0.04085174390903932 0.3147307948555354
P 2.654647623514644 5.713260109534095 4.844981239290143 1.1121257873182073 0.0923635386350861 0.11868932101380851
P 4.862210487090899 6.96485044988225 0.9488407597623547 0.765548023155404 -0.6729152900193314 -0.6353471019575704
P 2.101807315607235 6.147303182116785 9.73440899815665 -1.830795657864834 -0.49929229308212075 -0.9288452126865745
P 9.260823604356172 3.2355453348508476 1.070904965836435 -0.8125701575412134 0.6380457318356559 -1.1499996795458451
P 1.469743902586444 6.0205817651634606 1.5849467216399584 -1.1787759803475892 0.036777316729349564 0.5926670465905406
P 5.501758369182393 4.249700249517318 8.200495128875275 -0.5948200883778014 1.5427860810542269 0.21166041132590643
Ni 5.6331295125458904 0.45238376404044583 10.478957432399659 -0.2670576571492884 1.2494093263944352 -0.5171995123798447
Ni 9.3555863383776 8.999185276817105 6.933729091927637 -2.164019112207918 0.03339117386593604 -0.9258959002502635
Ni 7.902785402649958 1.5544306701214383 0.6300117329367845 0.1703119302861067 -0.8473990922949407 1.0081346917465217
Ni 0.9177998598502517 8.236892101966099 8.80477432158835 -0.7473366423536999 -1.3441359659450594 0.5113291696419967
Ni 7.442041486657538 6.882306111618744 13.334230927147638 -1.2384039764228674 2.7031951288588543 -1.5926246018429087
Ni 3.3466242114464047 8.325358526381798 4.102048514807775 -0.5932774264810298 0.08751289541100413 -0.2903173990081774
Ni 9.040181456151876 7.510206288718957 1.5802642506776003 -0.9127233674240476 -0.5370563992047719 0.4005513901657811
Ni -0.42439839862645695 2.167736132533782 6.577221376682885 0.2559080682903722 0.6135037808302337 -0.19554010872527613
Ni 6.216197719912598 3.6971686759590754 6.030452844309083 1.5115284085915257 0.2722787963389117 -0.14366038913684934
Ni 2.8565411766968327 3.588288362153037 3.9923411671694238 0.49371454188402714 0.6729302024176669 0.13609851762919142
Ni 5.999148116862237 1.868507059087113 13.064823720713184 0.13732930471249896 -1.2951412812139114 -2.1321513169650443
Ni 7.3495053821846446 3.7421222683149797 13.544936507101946 -0.5869355434234022 0.6180289223940969 -0.7639832497714455
Ni 8.995995021875718 6.026943563873557 9.936501825327845 0.663742879491444 -0.05036354005421649 -0.33028828297416024
Ni 2.0325666211169024 7.534455968508032 6.174885321759589 -1.5333835567934042 -1.2288446148692065 -0.06681294385949138
Ni 4.290836762647165 7.756398543213363 12.520615812320194 -0.3084958696894171 -0.37358026089357593 -1.3829223426846378
Ni 8.957880363133167 2.8749903929561134 3.8423224691162714 -0.24340479361703884 1.2575802922410018 1.1834314768417296
Ni 5.989670907901461 1.3937110524144494 2.04654667378234 -1.0727668259046106 0.5982753939162535 -0.9349389842891382
Ni 2.9513787554089665 1.4902607034265063 4.8841839527238475 -0.5386795366304915 -0.9973993076068888 0.8993659722805349
Ni 6.007044231731828 5.161383427019539 3.9793874223253063 2.6146450504325873 -4.297082913684903 1.8477397419183403
Ni 7.713568668956271 4.489259393297814 7.668802188327134 1.1260290276628608 0.1364564151892424 0.8014578496781359
Ni 1.4489370785698925 5.577585396454943 11.717803593037674 0.34497699533458653 0.4619789013436431 0.6658537551868597
Ni 1.3476254341116014 2.5521571751777175 8.542665408056463 -0.21656710459890444 -0.2510566537353418 1.1065014991528943
Ni 3.720697975600095 8.598625847739468 1.7588867184017085 -0.13064366516220727 0.22721352856915708 -0.7469517482104555
Ni 6.407294926460298 8.735198697107105 7.810892026958512 -2.155390747108959 2.8360507140707156 -0.3106357988505553
P 0.731337410774583 7.423695181847979 12.904151816496519 1.2853669754359671 -1.2602151587606878 -0.5260325372904424
P 4.903010199112564 3.5678651171763582 2.701776389694221 1.0406558043026788 -0.6237946212332804 0.1714308743818983
P 8.815123471195864 3.4088856385283077 9.439245862532639 0.5328459606678501 0.19722366707528616 -0.2433502862300196
P 3.618469483680643 4.227592998999731 12.095055449870511 0.8680188254278213 0.5338121812358613 0.6856581915072966
P 3.9330417187222513 8.401512999176191 6.1243586066219144 1.8853678366837594 0.5953687617924198 1.4494614640574521
P 0.44820462362309255 8.94726177263911 4.8943029549074355 -0.6444665477603352 -0.9386483148199255 0.0749178323548129
P 4.083142745935182 1.3628376174978034 0.4506754339750581 -0.4016924457487598 -0.7389731008803532 -0.06639873914020823
P 1.8427043519658672 2.6794399273113445 6.437678128652814 -0.13242184010855257 0.24636721867947245 -0.7200073584111277
Ni 8.41969090343166 1.2114548749565155 8.77682731407835 -0.02940390708341388 -0.2697364895330322 0.31557951600907586
Ni 6.723420188834077 8.089756795622433 11.55836475510041 0.12501089235646212 -0.03794922555026367 -1.0195853567856246
Ni 2.4140593652369255 4.864100315531251 7.83113003132569 -0.5709831338592037 0.93341869098987 -0.002534079275763378
Ni 9.874727824294174 1.4138068518692846 10.990562993520665 -0.37728367788709216 2.112705035314974 -1.5198284438167888
Ni 3.355708485780969 4.823525137581708 1.9852161275411055 -0.7832292424852512 -0.6068032288816065 0.6328855277909552
Ni 5.63688110266758 8.943435337826713 3.561755919297398 -1.2718396303734933 0.3365694879971816 -0.6805648361447891
Ni 1.9731025143501744 3.281630953153696 11.23737645894794 -2.071335471229252 0.332359306570576 0.8930672837560168
Ni 4.1217813175126805 4.370237623900975 5.743396324247277 -0.4698793871376424 1.3718745695109082 0.32915185537687186
Ni 6.208479361183436 2.241402019362167 7.977233416496231 0.4707368500419312 -0.7006078708385933 2.072487325445508
Ni 2.1567994521042184 0.42490266473009547 7.164562280330329 -0.09593094427137026 0.5885072587858962 -0.6827880690483531
Ni 0.5481456746828113 1.72562854452741 13.161098317486891 0.8292620163745977 0.07597095620967562 1.1616346926816123
Ni 8.211987531133337 0.8447271171957196 3.141604956868564 0.36311329992398106 -0.2994036775801618 -0.3055961795441189
Ni 3.7254693246326673 2.9351093907665278 7.594066022421638 0.48856050848691346 0.39821862826754645 0.9285863025982329
Ni 2.226863438192328 7.939580923718797 11.286301497704486 0.4870085906187613 -0.5962295671308184 -0.5573917683280143
Ni 7.301586068959475 8.984861874133049 5.009458996029258 1.3223530657420128 0.7829955292078903 1.924772049512995
Ni 1.3210368577379323 6.799612083973825 3.6384764050652634 0.21825451960365636 0.5248233474736897 -0.5147140269538296
Ni 1.2260028117126927 8.901625222480504 0.7516521309497362 2.04805001833875 1.248400939734579 0.3496121801137527
Ni 3.044869129688374 6.052596581613389 13.849492651409689 -0.006661985401207882 0.45500478401865513 -2.2838219780008795
Ni 5.552025934578495 5.406612056121093 12.697951886922777 -0.3411730482074641 0.8428564672295807 -0.18223053610056358
Ni 7.2209689814816755 6.841515755183418 7.110380337610248 2.2310477716226416 -1.631778903444867 0.6197389631066681
Ni 5.819960571723291 7.098944068870217 5.489489453258243 -2.1788340657335636 0.5864444627195965 -0.8150340457006736
Ni 7.40454429661332 3.7882265977905045 2.237452090810104 -1.6625269832610015 -2.6283372032076993 0.4791294449810006
Ni 3.4520616694799204 1.4437166613930779 2.6369131740516156 0.2620874576282067 0.2091258178295108 -0.5837077805147237
Ni 2.261469752057987 3.323366223809198 0.16522059029438227 0.23625301306360602 0.2287991278887221 -0.7582620310169521
P 7.279282351128782 8.753133356117775 1.8359505541881924 -0.6739812693900006 0.5975943086888289 -0.5284594015643802
P 8.020057677401521 8.331233834602298 8.971525485807692 1.2627682641998446 -0.751633469956841 1.3028448205057561
P 4.836538758178391 7.830448009081622 10.026148924739449 3.286059587536676 0.3404328276073298 1.7542791135643336
P 6.890277071179042 1.5452621955098285 6.079555639206057 0.378862849448754 -0.44433367745805413 -0.7637227970212073
P 1.2896675767453523 0.5034409409235078 3.1882013901854878 1.1275824881929097 1.2217275442084508 -1.3287808236452279
P 7.746350643485946 0.9573197276608263 11.867329251690794 -0.772387928895373 -0.4001688100153818 -0.13083418390645854
P 1.994994586381978 0.49086703288472827 9.728398033934244 1.2918584966975817 0.35101111734380835 0.12420176619160547
P 7.5482461027708005 5.630977727688063 11.59425371985306 0.24839839017688836 -0.9925041842981166 0.425110567562384
