# total energy = -381169.8399394636 ev
CRYSTAL
PRIMVEC
9.21134786204237 0.00000000000000 0.00000000000000

0.00000000000000 9.21134786204237 0.00000000000000

0.00000000000000 0.00000000000000 13.48173869340736

PRIMCOORD
 96 1
Ni 4.244266750861757 5.252992256531937 0.3521268048106254 -0.36760398870548305 -0.4837111508144121 0.5885180574191735
Ni 5.73814474315991 3.9400896179481095 12.362821855394214 0.04539154076092183 -0.7334758252112078 -0.49045232619298756
Ni 2.1097210840311713 6.181394807838147 4.241678362080075 2.3015330221273973 0.1406722530428029 0.04080160739739425
Ni 3.392217062941207 1.3238641426770754 3.10177036532285 -0.4698102244626038 -0.901601289368957 0.40351252967663404
Ni 6.713829143634727 8.227428631952748 5.110078192660723 -1.412801132521941 0.9555936844250122 0.7827803278732905
Ni 5.291071969071003 4.50093175090736 7.536871375639271 1.6166854994468545 0.6590842976735101 -1.4545517340961658
Ni 7.237954843555586 0.283303297261791 1.6119306279780419 -1.484184212250618 1.3575344987391524 -0.05801488595188718
Ni 2.1816893457795308 3.3334302401486777 9.764405600302917 -0.1672507748622797 0.18458643792724985 -0.792682674588667
Ni 8.97256220389823 1.9832953330397167 10.810939083746824 -1.5092488685287297 2.4171449897674626 0.6543264712735505
Ni 6.709637980304955 5.722927596301048 8.755391779441041 1.9607237850172554 0.8152168511354412 -0.7106603699785891
Ni 7.765792716711383 0.3949411502101359 8.676671599625159 -0.7959160939243003 0.8128856318991033 -1.7710352499767499
Ni 4.509894392489486 1.7880700240041691 5.2651309708967124 -0.20542060106378168 -1.185448250161442 0.7078874352191421
Ni 7.595649908218621 6.123925207806402 3.030425711832568 -1.0007535687911022 0.2558612742128368 0.003195109898529981
Ni 2.6852092602746778 8.92674495905805 10.3292905938895 0.09713961986749077 -0.35786053616547403 0.2862604553299844
Ni 5.482971981486666 8.717794741535997 3.2131705654933747 0.9727539982543826 1.8066545418422564 1.7795959950625673
Ni 5.061902842738296 4.514739561525662 9.896580153567141 0.6634106929630058 -1.2005144004659452 0.5609838565546468
Ni 5.811255212057482 2.0279795820786637 2.7289060528104345 -2.0726400489732884 -0.2167457962686138 0.10668381191250013
Ni 6.336007283640811 0.4540881367085862 10.415156016331544 -0.261964044676465 1.3893058776134783 1.7279954972774563
Ni 1.0754525104193304 0.26033203767545293 12.352764905672359 0.22930666365275992 -0.571551604768164 -2.638727802413404
Ni 9.275090505523902 6.594883007201019 8.113013557589182 -0.21757574836907692 -0.2749092919832233 1.696907003402768
Ni 6.80646767024464 1.4660228760141334 4.587363671250021 0.6066646464212132 -0.36028534355688274 0.5425770719126849
Ni 4.3961250336191435 2.726761651001268 0.5930477688930517 -1.4661075572545652 0.8134685009857668 0.6086037724254552
Ni 2.318118620674572 5.863649359353613 1.8862298325918074 1.4053454475748441 -0.5629785183871724 -0.28679395923595125
Ni 2.1045074610758956 1.3472333324960424 0.6487920834486062 2.2948288706343445 -1.2898352956199657 0.4647189259826255
P 3.294410970115905 4.50873376264432 8.228229098091994 -1.1659975976359984 0.7061892215811129 1.1718288596057949
Ni 3.6656651390018498 7.590721837050648 0.12548895690214096 -0.26514449928697564 -0.6966745972224582 0.1857588609687962
P 8.458532141360735 5.229705968844768 5.001442318018251 -0.32447913249155086 0.8554723562213784 0.3091350459353127
Ni 1.3804586646509551 3.168869508530292 1.813671123438089 -0.7094779196347135 1.1059191442868632 -1.1031927464946356
P 5.802071498123895 7.159133338911951 10.00132054914992 -0.18154405155650025 1.0803387247145975 0.8624045645648373
P 7.278171588825435 8.883626639175281 12.280920075986899 0.655789171862006 0.5038045791301775 0.36207791668093126
P 2.054535898297852 4.741090015377248 13.550090918912653 0.09379641442687071 -0.9941021249128557 -1.292239019965452
Ni 3.3472564734629344 3.581427361747434 2.750530613322459 -0.5411092291179068 0.6336584014012377 0.25349431664255695
Ni 0.14073834347892444 3.0520051367395027 5.183567247960171 0.34502893161844445 1.1299934116272474 -0.22775294601239485
Ni 8.986001560597431 7.003452346743893 12.007214082182884 1.7130028805233661 -0.07741488774505377 -0.5353517578088393
Ni 3.3863033775396394 8.120383557105995 2.4535143823265346 -2.098480149964844 -1.005823784225158 0.7584900878673583
Ni 5.489705476858232 7.451510735066396 7.661847260459065 -1.0335919554773618 -0.747276735650042 -0.8026248734030436
Ni 1.4222689731209162 3.937519651862382 7.248996486376238 0.43366411355934986 0.3198958839962426 0.1793527003321363
Ni 8.725421737661383 7.42732173527743 5.491920806046826 1.295440043401253 -0.9275468055901253 -0.6812040123906848
Ni 9.216137878467778 0.7043623035273857 4.877626141908828 -0.5491485544826156 -0.396962130152626 -0.21821903838003062
Ni 7.9132571864834915 4.232015658051656 6.8239710736715224 1.5821108467957785 2.1029068182776296 0.6710833790169152
Ni 6.687309672807449 2.768258773639993 8.481995286929072 -0.28869554713403833 -1.1840202594656641 0.1678768384820528
Ni 8.247794922331044 8.325243936126029 3.2896791006598534 -2.5289522389494574 1.81658362803051 1.2682727389578414
Ni 8.070688334767278 3.5516102283442037 12.587805345205938 0.19532516450099263 0.8847855033631988 -0.9059094298260075
Ni 2.58449238148848 6.376095070038976 11.766901988201774 -1.5027699456726054 0.34388581915293676 0.19605278669563656
Ni 1.2361260531912026 6.077002601208919 6.236935551603398 0.060267943652122 -0.5744263552127978 0.5283197906627224
Ni 7.844024695084456 7.950121001089525 10.251298110563843 0.43451720558826457 -1.4559601844079184 -0.12165997360635823
Ni 8.163879542255842 7.737265172025006 0.5394257489115176 0.11138841647702105 0.7369355016250341 0.7533262842782316
Ni 8.706621376439266 2.106911622898028 2.5526598051477682 -1.0490905653335931 -0.31160716162488916 0.7463064013169728
Ni 0.27260984339468863 8.79762028310918 7.270715002637633 1.169192193313896 1.0227007624861548 0.06251277382224073
Ni 4.900934536831143 3.953261845555963 4.406627812583111 0.5552207288186244 0.18716216907422603 3.023828405241754
Ni 4.054881436443957 2.6003911680976786 7.6506306020268395 -0.3146096958966388 -1.9969380301542834 -0.13845184835271637
Ni 5.486288066758573 6.9498515128627085 1.954191157969946 0.47169767129330376 -1.349564078939166 0.16352344660936355
Ni 1.7796969086926038 8.553841958884128 4.143153784112527 0.2574147347428857 0.29960910872274854 1.0288510983582668
Ni 0.4611578462813324 4.903154471693725 3.3027426343615716 0.5161425318702401 -1.9344530242461846 -0.17015252189010696
Ni 1.0328776600672354 2.7244864480508206 12.788763797222693 1.9042227646067336 2.274240504960032 -1.3094530698508933
Ni 4.093384870989989 7.955380680784689 5.29848526192331 0.05874096548463432 0.11393175172416509 -0.049679626613314445
P 1.7641113079146409 8.297103268054705 0.39722740677815627 -1.068690856063024 -0.1273012310525356 1.863453038888539
Ni 6.872255117500084 2.907865963587278 1.0314489799959223 0.1189510593156274 0.0034542770971876 -0.8109017686998551
P 1.4626515226543615 2.0080830704472215 3.809899189038243 0.25309913808666734 -0.13865033751676764 -0.1726495772803478
Ni 0.9407089122041756 4.602440805619625 11.23754147922529 -1.0748260224264843 0.7428942903116303 0.38922285252683936
P 8.307760797664695 4.304122090019679 1.6701583219483358 0.41149734765432355 -0.14848892087374424 -0.13107972425836134
P 6.777203217720061 3.1139053951484335 10.553626525938402 0.7027418864624606 0.08165489396833034 1.561045284374731
P 3.3847098143395287 0.2474803649772178 6.958410697403419 1.1867973079901692 0.297938405888545 -0.4881987542721205
Ni 7.960382442736481 1.8358308632676075 6.575516148078283 0.6037585285180117 -1.639717955786286 0.10037149654122714
Ni 7.5761494845502115 5.439586532512549 10.950515876245785 -0.5033422947817784 -0.4657093149203528 0.9395736548476723
Ni 2.652287902603023 3.3989137129208635 5.1594482544158335 -0.4335594696606856 0.29213594027415496 -0.34570744574270784
Ni 2.952614692062068 7.553710640876974 7.900676327415796 -1.4368440324037577 0.6037145626539537 -0.9498508684039642
Ni 6.012449474582462 5.997609992990678 5.415223438246807 0.19650170130759706 -0.5241985694054971 -0.1972918013090602
Ni 4.549411075313045 2.287214548209994 10.24043240448956 0.06967458167800257 -1.1842298043733088 0.1359964448336884
Ni 1.6704411103312455 1.4591788444668363 6.578562340854449 -0.18950855781921555 0.806168624890244 -1.9501894611448347
Ni 8.54370026476088 4.34136356989279 9.076405414187999 1.1567696512798271 -0.0997577742166282 1.357949989010016
Ni 0.4675477583733376 0.29217014082495124 9.809286051053784 1.1209369578519341 -2.5542012433242336 -0.4650202592731282
Ni 7.368654660008609 3.7991836279359945 3.5628462306071818 -0.5684778509388467 -0.2523884851728879 1.1182810082863257
Ni 0.18828179493009342 5.898035321353693 0.6453267743394634 0.8587759666733146 -1.763937462589704 -0.695560538222673
Ni 3.703634315365185 5.684442584450972 6.456728446829788 -1.0005900466300444 0.6764323020336543 -1.193659325217325
Ni 4.431846641075964 8.692325364378156 11.685040738725558 0.9576163712819962 0.2892853581992373 0.2191387219808226
Ni 5.902825222302003 7.6844104573299985 13.4723425363084 0.8283685580260508 1.0285726478858996 -2.2337158053731083
Ni 4.807282761943703 6.023291231152003 11.768358302317019 1.9340732723092626 1.5299411067707587 -0.2905140884000158
Ni 5.329768841924563 4.480565460529065 2.384878786276442 1.7514712118018934 1.200719574498216 -2.2936060539708367
Ni 4.518728075199928 0.42534044080554567 1.3212121955943477 1.2289266330600512 0.47924308774072955 -2.094892946834218
Ni 0.5547184288237954 7.060857467339795 2.6416119502970776 1.3894488309492459 0.5669794120164493 -0.7944058279273609
Ni 3.8565979598798736 6.342759201708333 9.593820647107234 -1.5401093055530122 0.7249269071999321 0.006492549702879141
Ni 6.001662986100786 0.5624274059461813 7.012054824620099 0.3218434946409167 0.42242659297231766 -2.089846385549246
Ni 3.333973709679351 3.90800649294241 11.758017643077455 -0.3933517870935484 0.2935999264141912 0.9190732209014753
Ni 6.831651495615178 5.443575046186815 0.5630832539221808 0.20911373364465274 0.19396607936993693 -0.7356098408350751
Ni 8.610620707817558 1.3540865753913167 -0.1519190776540376 -2.380952856117622 -1.2208155739171425 1.0322241285955578
Ni 4.806564276801455 0.25256871359999955 8.777205172586605 -2.548782129191191 -0.27911998763046125 1.1386248620500001
Ni 0.6810806215142052 0.18343294135472718 2.1973081074102128 1.054402978685442 0.02976617551883906 -1.2938624145014879
P 6.3543562888120295 3.1141633128918045 6.242449464502742 -3.6613624875483133 -1.7023379446103521 -2.152954369753324
Ni 0.09196517707275662 2.3606658369827342 8.2294155197115 0.6292091073806324 -1.0973769111438068 1.5064209121616317
P 1.4467895814370728 7.209372030781341 10.009341790968744 -0.8732474208166122 -0.280341261632072 -0.29187060242791024
Ni 5.8387418744224 1.461159284282003 12.908360254823615 0.797699153966652 -1.4488896507143822 -1.375596755557502
P 4.240923031545918 6.2470993529617935 3.439205070109331 -0.8532810049970143 -0.7872368209827474 1.777127993138049
P 7.5473363880765305 7.793813637258998 7.3020741156922995 -0.1476458561471586 0.3966553975454846 0.06579838655204798
P 3.378188179971445 1.7015109870594185 11.979724656413573 0.039923318557498984 -0.8020993399168767 1.136950559671371
Ni 2.236994279036558 1.2591360004390462 8.733793931838152 0.7905921106082255 -0.07801112656815598 -0.10979587517892057
