# total energy = -381175.04189495445 ev
CRYSTAL
PRIMVEC
9.22621150029209 0.00000000000000 0.00000000000000
0.00000000000000 9.22621150029209 0.00000000000000
0.00000000000000 0.00000000000000 13.50349313042349
PRIMCOORD
 96 1
Ni 3.323604302205306 8.49246013201166 7.743294525510958 -0.9085748924733126 0.776072833946128 0.7565129095363294
Ni 3.794390196770326 2.2608000938739723 3.1719299981368385 -0.21382605151865752 -0.7485828560559753 0.07392358676234366
Ni 2.906690256629353 7.314900304956909 5.606691232595461 -0.1418269354725364 0.5936507506600485 0.2485194891357849
Ni 2.801852815275906 0.9072152227204691 12.623592286847165 -0.8071716122334615 -0.3000788492703155 -1.0424409212275594
Ni 3.1184225845022957 3.233971657415309 12.54560957932699 -1.084832498819893 0.36427261033940495 0.027929636530732542
Ni 7.225304565012941 9.041050668214769 6.954339036644242 1.2343097517488355 -1.3095710834859962 -1.2792084120337388
Ni 8.38635869968176 2.464487165312857 8.953774397843647 0.6418543069484687 -0.36783178844557296 -0.5475747822375925
Ni 9.056421536585345 5.08317200354133 12.985526415432068 0.5594172833984752 -1.3171206136984799 0.7112710069793944
Ni 7.7517060625418415 6.791940184320099 8.082570001255945 0.7883331393707198 -0.3936016983208253 0.7686351467211601
Ni 5.31428860179037 7.271075800298909 11.293714166160763 0.3845979521603183 -0.6980542511788043 0.6629000718751745
Ni 0.18766667777822044 7.832499996708183 6.054764039672677 -0.24271290975633686 -0.7458973388040122 0.5270486372597827
Ni 4.039595219990475 3.441017069842722 9.823628999687882 1.1557458380010033 -0.9715093272140042 2.926632735325347
Ni 6.92630150249578 7.594934276615787 13.243294770861226 0.37601792380079113 0.35381207712771323 -0.6826651703172437
Ni 1.8463494467703743 4.996916152162876 11.392005610450031 0.22735828167713745 0.9819536624757798 1.0173364128504478
Ni 7.656057927849314 2.123052756075243 6.456614449721237 -2.381130776456383 1.98987726665276 1.5639272339082162
Ni 6.971768272802017 6.833375100197802 5.940402380180608 -0.6803318941983767 0.24065834122015325 -0.7093447364909591
Ni 0.4391086199770662 7.092299499928782 12.084060045101577 -0.9791395900657525 1.0398137680173576 0.011916034711295608
Ni 6.670883063137439 5.453115406335412 11.970373744291816 0.48016122867962463 -0.3175890902399369 -0.14065605509288678
Ni 5.196571369173224 5.266838196010138 6.879448955221197 0.3385379245774621 1.6963297907430592 0.28020525027484
Ni 9.173963471183859 0.9816596781277286 1.4731233579221203 0.5544825651010192 -1.5831611424371637 -0.8269657641412532
Ni 6.775489849203212 8.660321824169065 4.4499411255946315 0.9888971836731486 -0.11201962230311675 0.22741998815300837
Ni 2.836303489042849 8.938132278854768 3.114459004038911 0.8232800877595499 0.8442142668090559 0.328376410663428
Ni 5.630756882690182 7.720742896724525 8.897505579105074 -0.22363043920358905 1.3499523155165203 -0.5767704299649421
Ni 9.316074807025373 7.192948241258075 1.0085771501992484 -0.1406794521316545 0.9270868352345709 0.5183930184673137
P 8.791656944970466 7.3420899502678845 3.299929843478478 -0.8355740746355546 -1.219486570693074 -0.5604030443505124
Ni 5.482888390868332 1.65853145912344 9.444180753799342 -0.5305967596223572 -1.7799217538331022 2.599537505367188
P 8.66934505902286 8.96109631929556 13.043294493540516 0.0039052485916771453 0.06272488983304682 -0.12535079219438414
Ni 6.021855988469696 3.3104384983848916 8.085594353387922 0.05947244433402016 0.9210717393887428 -1.790476646530813
P 5.155920681273613 8.109553902050315 6.757782904079078 0.7778250407505444 -0.901843744397066 -1.292665051759277
P 1.8228133812161507 1.9389713840886225 10.957692775214278 2.809612060263213 2.953627518746636 -0.22365152224951163
P 1.165085989097356 3.6682033019898026 1.0119299554608734 -0.029428332563446093 -0.25547740851085676 -0.7264029775248264
Ni 8.402144747570148 3.25008062270644 3.6930707098644784 -1.219472172515371 1.253305319014732 1.6488145187709151
Ni 2.3014969128311185 1.6833868729231571 1.2116276130441537 -0.3850188417478208 0.5107097908904431 0.8200402406660134
Ni 4.949853247265935 2.101647945379124 11.830329079827857 0.8633191059593067 -0.762818282929067 0.2946275963477571
Ni 6.876701389434428 7.72517147824786 2.1127701433507493 0.3073401588184191 0.44702356558539147 0.24656313674036245
Ni 7.770278426305327 7.576398817698328 10.596893470644732 -0.4675263135244335 -0.5468577015659097 0.4423346447501543
Ni 0.42135738903769876 6.273768467455396 9.69136295414543 0.02579253558307171 -0.3356701161113638 0.022749120771057594
Ni 7.387178445902338 5.599987467314512 1.1776760773197368 -0.11503398364940833 -0.8838853601464326 -0.448606336691479
Ni 7.064953009022189 5.785572711776765 3.582935577863742 0.9597609284288247 -0.41908672996580726 1.1773112228766047
Ni 1.529862713447547 1.2311179848525806 8.57367847190732 -0.14030381395979064 0.10190027448092774 1.5195777612585637
Ni 4.694674689406776 6.248230314004164 13.416801059218583 -0.02500706356729887 0.4671758721635502 0.8384835349728655
Ni 8.082345804316327 3.0909284742115912 1.4869100857769524 0.7420216578986898 1.9355118045280018 -2.7840226418298823
Ni 2.638475061910876 4.300346409599831 3.4467668448538515 -1.0870487897449213 -1.0467058671515004 1.2223086135229013
Ni 5.995893429289145 1.831200007475966 4.567677733255943 0.044413236008052547 -0.3161857821345071 0.8386192892197816
Ni 1.1063703790671406 1.941813057232762 3.5164847121061023 0.5854800419237982 0.1732365601320694 -1.7816855306017445
Ni 4.065327123883352 0.48119306114485744 5.566504623134649 -0.32310590629310804 0.3212107461529242 -0.7945750065153735
Ni 3.63837496018784 0.18112990692554798 10.127943592169592 -0.619544844817991 -0.12184123637922888 0.3915725837059385
Ni 0.3566318248318579 5.419928723544921 6.749208063104521 -0.7287467951666546 1.4997288448534365 1.3030533369721364
Ni 0.2928205781863555 8.470307998183477 8.564374760223714 0.15758265564489635 -1.196836694504042 -0.027915495463345468
Ni 2.740830652368954 6.370735950393416 2.7409385990435853 0.9842653413280921 1.8886974152776248 -1.3556681349543749
Ni 7.332503916512166 1.399007355644508 11.373182293733556 1.0376342438675354 0.1450007052148277 0.36231291550987277
Ni 0.41092992479254653 5.113517013187681 2.449789810382289 -0.5951134512485041 -0.12849319447810773 -0.650566490010486
Ni 7.625214702781589 4.5366389125042685 6.234104061565877 -0.6116656991802304 -0.6796045291140489 -0.2467030047523364
Ni 2.636426842956334 7.413187136140423 11.9603946739259 1.8790994871765445 0.7571019492705799 -0.49957177199575253
Ni 4.548577630194259 3.2093468989032656 6.102187689439538 -0.1919264232320888 -1.0628819626907307 -0.6006302673016752
Ni 2.4186605727578474 4.884817682353461 6.110587232395464 2.364123186154793 -0.6942793575174043 -0.41196554553999376
P 0.6386033009071936 4.104307867500206 4.969879661962916 0.6432028505565633 -0.29583395795103246 0.21039568568086991
Ni 5.269873619595924 5.704335919458091 2.2081451821826708 -1.8501673775232268 0.029084833181098297 -0.28026824230229147
P 5.860692525866333 -0.036983268825599866 10.809424788434175 -0.34204799461324964 0.5291502569838177 -0.04534577512465093
Ni 2.21718779208063 5.9332013220994355 0.19901215006831405 -0.6513545331294202 -0.4755288721139358 0.44202662659143227
P 1.9339154201828148 7.933896061169538 9.90022131713396 -0.02613037853846468 -0.20039075194935813 -0.4697572597374813
P 6.1672518556076845 4.075448277906474 4.808444948741249 -1.132211502324489 0.24471682756024307 -0.5801853691837622
P 7.4371937384815014 1.4307455232284079 2.6215680293243944 -1.4267966754700845 -0.9057518212022208 0.9271935360157644
Ni 5.439691268592803 0.9794822922120889 7.487700788133985 -0.7375366255441427 0.036016270193608944 -2.305191701925907
Ni 4.213260199185752 5.041746313875135 11.457363170144099 0.910125267679568 -0.09153332942430689 1.0805207588184165
Ni 9.377705899891785 0.8478547005059182 6.791906047337524 1.0269824205806444 -0.26241758727411585 0.6197315069075003
Ni 3.7185415119717087 6.577596838590691 9.862978791765014 -1.194459195410801 -0.1473535217177204 -1.5262173780622685
Ni 4.67676661287179 1.8539610712636063 0.8686644205598386 -1.4109419678260153 0.019608261149230744 -0.08745118893513326
Ni 2.4739532583189847 8.441226979513578 0.834256187365828 0.26812440785090597 -0.8400585927694694 -0.09566354954259654
Ni 0.6755718077943823 8.988673465489827 3.9981141730552383 1.2162240978917183 -1.3932766893357682 -1.2467616043589433
Ni 0.341578338137122 2.337110089247936 12.632153288504462 -0.15293127291581404 0.2959262605545226 0.7874378812499601
Ni 5.720574051710319 3.868033817018783 0.22208136932028608 -0.4958063914160493 0.39669910629922644 0.0737927176114342
Ni 2.2079615805736825 6.325518287797865 7.930749923045669 -0.007188033108006975 0.3508591651469764 0.6721313606654553
Ni 7.43375236158941 0.1461634879353669 9.177621664046363 0.028494507895267057 1.14750956613414 0.2974354981101974
Ni 3.297650969236262 4.025119294136074 1.2928920839973488 0.9716597367489396 0.15211751876526705 0.03145950406086195
Ni 8.394247110520201 1.1091013376731973 4.725493003703433 -0.9146619792076569 0.015439988704154053 -1.3218247040423687
Ni 9.031215526748364 4.090929860815132 10.681263484391165 -1.1173271290134885 -0.09624359041578263 0.02352919347019174
Ni 4.640489149226472 8.892158066915647 12.899198599603857 1.1415795738029502 -0.27179337206206095 0.7482851223098984
Ni 4.269143362283334 5.501082479960033 4.638301614478174 0.8289303440667918 -1.1945306720786848 -0.23205902958691646
Ni 6.790224108979808 1.3238137318628842 0.21148229754110454 0.9888568173535163 -0.49662451644197053 0.21557183056517068
Ni 0.9288027124044251 3.053608448665988 6.984884255080295 -0.5264577977533191 0.1048272183197356 0.45111033406025536
Ni 6.569533129733618 3.357944261434165 10.298803803066756 0.6828502897448562 1.8722606098778403 2.1470390327101536
Ni 0.3276578302154393 0.7482512889403629 10.61118025916324 -2.38024503141732 -2.606476655689182 -0.03604326677680244
Ni 2.428541845281788 2.6016901566326758 5.125183557638216 0.6942037670844624 -0.7821609491217368 1.684216552419293
Ni 3.393622021331532 2.2208598242603954 8.060937303135605 0.8542086590176062 0.3792911952354242 -1.5800267105732402
Ni 1.842336044764852 3.9610155765858015 9.402658188912325 -1.1345789741154009 -0.9525901217119981 -1.381267323579718
Ni 4.783938285736495 7.632060551719744 4.080404598728006 -0.13848912934855503 -0.04472099705645846 -0.2928602200346892
Ni 1.1169620698771168 6.1802423614094675 4.42180025787729 -0.3931417279652713 0.43662268196704157 0.4667027891818737
P 7.505098655172636 3.49271153291615 12.604403612155016 0.2276580723057434 -0.7636775456055687 -0.6289064885385491
Ni 6.027428620219893 5.5311230246266545 9.407397693763443 -0.28131159596514127 -0.6055472449873185 0.3145590451643615
P 1.888900734240417 0.19900845958371124 5.770717588629429 0.8543055896067867 -0.1993700239943276 0.06643344903288557
Ni 5.914924197104172 3.2952060231869207 2.74932430268225 0.02202535523115562 0.6781150890527159 -0.9577277000488796
P 3.7233299157438147 4.677080304063026 8.312399542999765 -0.6817146334785162 1.6964236360084461 -1.8711108125441132
P 4.585473250010542 7.816077340225816 1.871233461825763 -1.3810019857334732 -0.554530130509503 -1.1181627375409067
P 7.830940766963509 4.525991864425251 8.432201899417482 0.6202989493751963 0.6013324355750225 0.8380999263812017
Ni 5.408229887354111 0.4025119294136074 2.7075858444459695 -0.048898782583231916 0.8155822048946599 -0.2932080902924112
