# total energy = -381165.53705408215 ev
CRYSTAL
PRIMVEC
9.31209575940158 0.00000000000000 0.00000000000000
0.00000000000000 9.31209575940158 0.00000000000000
0.00000000000000 0.00000000000000 13.62919342495731
PRIMCOORD
 96 1
Ni 8.201330485231004 8.593127608527688 11.046843462862734 -0.45164846595191255 -1.0718144892936703 -0.5843873230802517
Ni 7.33797813717269 7.640220834107627 4.143942277145355 3.9895000427280576 2.7538448326949214 2.7765355894242183
Ni 8.67221523908715 0.4569613080522469 5.351898046430962 0.31754101061082085 0.49067318395454207 -0.2527276136798615
Ni 6.123643582189071 0.9340032197237592 11.197282234700035 -0.47779838487440296 0.7699438382302546 -1.0214064691547635
Ni 1.4498653968228328 6.675850869622958 7.807456764546499 -0.8360247890197279 -1.0214846306908667 -0.7944914456626316
Ni 1.0449940908691977 9.30799858730888 3.4375276126595877 -2.6114139450897995 -1.4371520505624797 -1.1895216488998674
Ni 2.611009259971337 6.842788812992727 1.2751378852247597 1.435971142880501 0.4092211500256372 -0.18555882914284816
Ni 0.1605153908209806 3.5557586383746695 0.49022318343142235 1.331708538814984 -1.407272746504544 -1.664166575746953
Ni 2.06449166313816 3.4961705366497213 1.7245563955903043 -1.1937189748106667 -0.1111315632712086 1.044129364673576
Ni 6.231170353656172 6.699652586767663 9.854915673056576 0.3075597310283929 2.124913147345392 -2.0650023299223728
Ni 2.8378053558474305 2.0814676139811947 6.836212610861432 -1.4902232193558462 0.0769618593680352 -1.3671686793948068
Ni 4.8564256345353485 1.6978837592766973 4.547025660684364 -0.9213170226303294 1.8691691154367098 0.2858925304676044
Ni 4.2750528627128785 3.552452844326794 7.561858615819517 0.41787342638399644 0.9927342980310517 1.0031557504746915
Ni 0.10112936157726844 4.842792726123827 11.365166287014212 -0.687666480186577 0.27650697548764636 0.5114664665508095
Ni 0.13706939574001867 3.3900405795690465 9.530935750640074 0.5365905153119469 -0.33741280983408345 -2.2199326355460864
Ni 2.188966449160567 0.6292443944740741 5.062863626334074 1.180283418131051 1.3692345607849 1.337109398115581
Ni 3.8789442390100914 8.705338364237273 6.206134783803456 -0.025479632328343212 0.08115147196935056 0.412076102975929
Ni 7.803303569770859 6.022458348036345 2.5651099392333667 -0.539191957490536 0.4913133886417022 -2.0368338379079565
Ni 5.237476599152459 6.180112131784333 1.2541484210447262 0.8736672819628502 1.6771550175868213 -0.6009377712397651
Ni 7.446389557751195 8.36679711744707 6.903813771116513 -0.8955000615672254 -0.6081499727174882 -1.0706135270070336
Ni 2.4742518194442873 1.6216642542573656 13.520664132266411 0.675203828943192 0.4208826455239655 0.06535461414641003
Ni 5.835080354145203 2.597469472518911 9.428743878919532 -0.5027776805275599 0.5391176526091748 0.7803112975075077
Ni 7.268314347673654 2.9255252993150056 7.737347856862987 1.4858821687783315 1.8353259416350198 -0.27500596546208766
Ni 6.850629597748534 2.299426530839164 5.312318845186775 2.279353400706565 1.7444222753749117 0.22672810429230628
P 2.504106398930173 3.0990096461091596 4.760186985729754 0.5369191022959592 -0.1874856138519158 -0.4253177984771837
Ni 6.340522295921537 4.251344266527268 11.539279200282257 1.4879207964749148 -2.1924776246589275 1.2229336487014097
P 6.023789977751404 9.273646265498702 5.443350277939068 0.6920111303085179 0.674006209090665 0.31815781825921335
Ni 5.2864489115405675 6.702446215540515 6.179898884788006 0.21315936446893613 1.202997057678483 -1.6752989382146888
P 8.726588567102773 6.4602013525505475 9.637311547052759 -0.22909917562764415 0.9558780484346506 -0.05021184496770062
P 3.945516412667172 0.9043143955450623 8.069300795797213 -0.18952501287944779 -0.9698748769343749 1.8823493615724098
P 5.661875370228335 7.221549002016099 3.4754986149402023 -5.095017323590812 -3.183744851226149 -3.272052988844939
Ni 5.413773198911286 7.9360754332486385 11.559913873608139 -0.5253905328310694 0.8630321708465071 -0.1225565172786986
Ni 6.378152475491863 5.105300709812887 4.003221608599218 -1.7642899608331162 -0.31338096569586027 1.4334267791920925
Ni 0.7085815892039095 2.404448348506607 3.5950128474716148 -0.9866598097021975 1.1116059102589952 0.7075089688338009
Ni 1.0593719669534798 8.704984504592712 6.517099189767238 -0.3339310219330701 0.024880565291763603 0.7742206112287375
Ni 3.1076419590172746 7.410323810293666 12.548275521994064 -0.26546305896865896 0.3527450693157796 -0.9226943625938302
Ni 5.055536869272472 4.9036007124129215 9.913316482553062 -2.090289643734252 0.49658723544613187 -1.7298616039519177
Ni 7.47151359251505 4.85203963736197 9.388156177688343 0.4556712139580604 -2.1202005723610706 0.0733466312129511
Ni 8.812492651867993 8.603193984205868 8.698628067924881 1.6887884880606918 -1.81929459920377 0.07846981137212938
Ni 4.597521431963268 9.115024023776124 13.466174403051921 0.05390600598983619 0.5340345816593125 -0.3980749036008306
Ni 9.171073529055459 7.292944841354305 13.006121479157716 1.4895511329894862 -0.4674065001171176 -0.04890958121650932
Ni 3.953441006286164 6.088713910432502 8.03318290060259 -1.2307678000338482 -0.4756764534353936 0.591684113851981
Ni 9.228566409200768 7.081141219892521 5.324298856574358 0.5156331963339894 -0.7195175632589028 2.609709817914499
Ni 4.899391645061824 2.365803150482144 12.692282429186667 -0.5035667520877586 -0.3444404061048261 -0.4849450232215132
Ni 0.07031284258393009 1.202973797974019 12.728944150782405 0.01547032772145723 0.040940704078419814 0.4893022717489443
Ni 3.1211444980860628 3.957938748610457 13.428939987557749 1.2541028752153627 0.321298163660408 -0.8935722484168934
Ni 8.05818494691003 3.583182760828174 2.2982364449819284 -0.6437888049670203 -0.7297677802320013 0.8355956719021094
Ni 7.1328792247657535 9.307979963117061 12.915664710702336 -0.07433264927530424 -0.9779481408608125 2.5269742892874802
Ni 5.623025306093862 4.029353212140482 0.673027075811813 -0.2106088301329405 -0.3639864465575538 -0.4630299683159768
Ni 0.6725763703697927 1.2874251957773566 1.6246543682539092 -0.3473575797516211 0.7258923564369949 -1.4709831401793119
Ni 6.8778209178043 0.5793641527347888 8.818333198422438 0.377727193182414 -0.54006767522727 1.1477425080805523
Ni 9.00168650446149 4.837149596002665 7.287447911138921 -0.03659296863268537 -0.25660869390182256 0.12390660354868982
Ni 8.644157894111798 4.846685182214002 4.462688801660713 0.4183261976506989 -0.5713705991056095 0.9583313950711495
Ni 2.3021642870365593 8.696240446533682 8.435366735676741 0.47812311520367334 1.033998189776845 0.9376761807146431
Ni 7.7456058235155405 4.870747638044173 0.26577839177248014 -0.7663208967656867 1.9047868646403197 -0.847194175372986
Ni 0.5332916270129018 5.930305846915844 1.5195869213165092 -0.9425473927640153 -0.38047750223404153 0.681735973634755
P 3.6623448881549105 9.188198473433047 1.7039626954864249 -0.6854836136026453 -0.04867689638041294 0.506012899635406
Ni 6.261853709678004 8.687030783679178 1.8127922291712664 -0.6887255175787106 -0.2898957380897266 -0.3704658836343103
P 7.849621934824756 1.106425987584229 1.1470788734867818 -0.015872705366198468 -0.039026260664526344 0.49140183459045045
Ni 2.103034428107618 4.798541646361841 6.326767399053601 -1.227156428533506 -2.0024831283422286 1.7037435667086271
P 1.4235401016866507 5.323827664521336 13.441587676222042 0.8771107604267604 -0.24949136613075093 -1.9535545209623257
P 2.939716933481098 6.596549060857579 6.099745950456497 0.9747928830612824 2.1406989494247393 -0.9706166401964058
P 5.994726926417827 3.2260825068903207 2.9988040444461146 2.783328701086652 -1.828630274782399 1.2523069596572045
Ni 4.045025469556186 4.594932669300425 4.998861591148017 0.7900223541476846 -0.5433018658938514 0.7619477073986555
Ni 7.391802051529653 1.0849709186087202 3.451388667420892 -0.0916657412371131 -0.148210470401377 -1.743581010420539
Ni 1.393527216570303 7.132041136133897 10.113897166024705 -0.870801787489597 0.7764109340118371 1.1133758576752244
Ni 2.437040684189889 4.317795382937525 9.153052761051377 -0.282112751710198 0.2898494582328234 -0.21966322702572494
Ni 8.20770927092902 2.531176661739116 11.176824491196436 -1.384984367419989 0.8113388562372736 0.13333098218638328
Ni 4.713065918008456 8.207141233078538 8.639313741819672 1.3172455693121186 1.2892382854659152 -0.039506542735054544
Ni 5.991579438000413 5.067167677063448 7.532637258855478 0.8919239141801929 -1.1442144403226358 1.1473830678586046
Ni 5.130443368768562 1.7982309047975669 1.327332182797558 0.22172190932696653 -1.343231451852919 0.8133183485611477
Ni 5.0535440807478365 5.840034389169062 12.46441544228098 -0.5875446377623107 -0.2037758663715071 0.344206178606833
Ni 1.4785466522241208 8.79417575921399 0.18881857512834246 0.9554759279002255 -0.22669467995120957 0.9569561119901777
Ni 1.6461736906911935 2.719132005576647 11.24381198433108 -0.19052028691318157 0.27172986581397723 1.3018132939174483
Ni 2.6299314388594595 7.675755792098313 3.6499663190624005 -0.4074023516493436 -1.1558090871387705 0.48460589471453963
Ni 7.533737017382391 6.371280148710645 11.618342619392353 -0.6243651490247698 -0.832116197993941 0.8462855475157878
Ni 1.675106372682038 5.2742128175154726 4.032292109609522 0.2924239038282189 0.17384822557413931 -0.7827525599591486
Ni 0.7623412500990963 2.845990688151889 5.93470953707145 -1.9582408706944017 -0.10462281561841338 0.6677756547999208
Ni 3.5703320684730517 0.6796368014883825 11.339366194087326 -0.5244101711956711 -0.10093662501607778 -0.07821630060042659
Ni 5.706517558018521 1.5559767297116887 7.120217567957594 -1.6649754448014937 -1.444176304399113 -0.9160771143876287
Ni 4.157971880842621 3.648432616866104 2.483334837794422 -1.8542991403034133 0.5735506374760638 0.1459062477482326
Ni 2.3588190785500127 5.350758245891637 11.450239732824304 1.4847141166121591 -0.6406695426117482 -0.031721499472996975
Ni 8.975743005257597 1.51403504973526 7.672118487436059 1.1175037638006688 -0.8386750821583814 0.1442679408138612
Ni 2.2330405991002737 1.8241837160973688 9.180420079719834 0.37184656603192084 0.02330936414990179 -0.26329330501084974
Ni 3.966869048587676 5.768461620008575 3.089969463400208 -0.06176561124357104 1.7278103778498435 0.16338486414897022
Ni 8.641029029886203 8.38597072292475 1.5801276504530004 0.5125789828886979 -0.38639463904942484 0.12216879492197669
Ni 4.526516700653262 8.944519547673014 3.802000252929 -0.5269918158799182 0.027104055305643644 -0.8901033160316864
Ni 7.226111929011759 2.5325734761255423 13.29437927045575 -0.03176109446168079 -0.13369145084959558 0.3101190071151369
P 3.511088514296755 7.190372104911062 10.073173508193241 1.287042306255861 -0.671376741887618 0.8547352209450376
Ni 3.925616463708551 3.247500327482191 10.720123921829655 -0.8345885707938336 -1.1879478766548444 0.9719500142958485
P 7.178834418079181 7.014140689823604 0.11287005209997747 -1.386540399053199 0.5006002132602669 0.8960127395375859
Ni 0.14066107113231632 0.9234265411897388 10.23303053383342 1.7515414029181964 0.8818228211904491 -0.8367472690080491
P 7.392211783749671 5.9485482428025716 6.275494067766252 1.275853636628893 0.4670288050627247 -1.5235966526099696
P 0.271015514511988 7.082901206019418 3.325182762768907 0.967445955777908 0.6514951724723425 -0.9916685757706987
P 1.2205736592429912 8.893777937062099 11.695402075462724 0.2213431858313091 0.11052092627040319 -0.23066214923938982
Ni 2.9251900638622637 1.6575251356048848 3.1359544554205456 0.16615677046715255 -0.7094174987104234 -1.9941545538718755
