# total energy = -381166.67984417576 ev
CRYSTAL
PRIMVEC
9.28423435237390 0.00000000000000 0.00000000000000
0.00000000000000 9.28423435237390 0.00000000000000
0.00000000000000 0.00000000000000 13.58841543948580
PRIMCOORD
 96 1
Ni 6.8914456568024205 5.347960289468944 3.355536705802799 -3.00913352223374 0.7179689878248603 -0.26314803768223716
Ni 3.8047534491614776 6.539294653584585 1.6828844301574815 1.7469488984515076 -2.024988508533596 0.15646371154910474
Ni 0.4079074717078098 4.115793863340331 3.629465250612746 -0.8685122201244719 1.1139440714738686 0.40686319131642185
Ni 9.148015916125063 0.8621414152283364 13.088049013395867 0.4825834649678721 0.9144694035808767 -0.48589556006024065
Ni 4.065259776588033 3.1051956864021655 5.511217048917492 2.124504341942748 -0.45447050878173983 -1.7606947872826904
Ni 5.233420692139695 4.7443272344672565 11.477590894235021 -0.8629221276312042 -1.4390107010377733 -1.6673483159090448
Ni 0.5843385594865996 2.4593843554284596 2.101530047141372 1.020485757112707 -0.9536219054106222 -0.2772117148641548
Ni 2.3177255100000984 7.312058603013358 8.654977587340912 1.4811107155316168 0.3534667779731525 -1.5115474347549196
Ni 9.153345066556042 8.535154332328267 1.2577909125214743 -0.6181448791466709 0.29730642873150087 -0.16511778767967694
Ni 2.746387887262706 4.513019823600682 12.993147428247118 -2.311209883095529 -2.580017947277021 -0.7473417845600226
Ni 6.8045359404533 6.840698032663515 8.335758691255004 0.6511429313392464 -0.381128248444163 -1.9815980573631033
Ni 2.0149759169621233 0.5721975664228515 3.0163288534836186 0.12871482357061056 -0.21196174461640915 0.7257954258478145
Ni 5.556447052671151 1.670400848851742 9.606751784809322 0.10337968723993164 -0.49769203847453636 0.09603944482477654
Ni 3.6269789326939024 0.6830996007924189 5.191277696257639 -0.053139560137456875 -0.3712158744264574 0.11215177700560687
Ni 6.199259575998156 4.075036075200961 7.68196570413929 -0.6390561753780413 -0.40796259502818777 -0.18656233070669806
Ni 5.400109832972097 5.704614146273932 5.382357448757681 0.3009234566587979 -0.15563144545579646 0.3004352041684697
Ni 4.040600850552004 2.111132730574755 7.620287751076357 -0.7623755389646935 0.4634889102302663 0.5614646528458073
Ni 4.555123825699098 8.578650969556728 8.912097954554614 0.2716303641216354 0.41234401192533504 -0.27184016613959633
Ni 8.705752135758999 5.938929649021407 4.620319575100528 -0.43656328948401585 -0.07682584801080317 1.203986932395578
Ni 3.6425950146188275 8.118552175291864 13.141451928516062 0.3750205928845283 -1.15235635270348 0.5916018385508198
Ni 3.514695404275329 7.270205275238351 6.439957989758346 -0.22198287629783708 1.5901985088999193 -0.39048037908302424
Ni 0.14973241548895247 3.8056447356447074 0.17999901898196977 0.8208498810515025 -0.5581273609424582 -0.9742434383157157
Ni 1.3790337269433492 5.431694797721559 7.8194670694927515 -0.25374577053173075 -1.1460741192391941 -0.22650004744190025
Ni 7.571385832696473 6.078499541754697 10.291892988702388 -0.10080832696832961 0.08724755756475942 1.6093439714801185
P 7.365257264981146 6.676032854886781 6.202717024814353 -1.8931760198742686 0.5274867532384658 -0.8404470864571396
Ni 1.906907430870491 7.473734257377592 1.384292317194406 0.2960185631580128 0.8317153630110967 -1.0610760198302436
P 8.976322573058694 0.3956030761221362 3.0984850419221797 1.609696469723531 0.47107700699016936 -0.8118379073608794
Ni 7.498931668997239 9.056306250694382 8.81557905580817 -1.3499520584062041 0.05048129657900338 0.18538116591440332
P 6.526185314893745 2.8953812777093137 13.382822520832356 0.2650881921277435 -0.470768474610815 0.18587893148642826
P 2.3478342815117106 3.5063303092608473 6.441723851103246 -2.3664497774054407 -0.3184653221973031 0.7114517555316328
P 7.913417020635969 1.795812284429557 9.36654914915543 0.022410249374400115 0.725348311008067 2.089680292285027
Ni 0.5871637519537545 0.8070014198892633 10.842210400385365 -0.13396912999101443 -0.008613452700623875 -0.8517596832564814
Ni 2.2081158410312143 0.46602492095492304 0.6768485259053487 -0.31436595531694894 1.3894604009134714 -0.6882115540567696
Ni 2.7072084189373893 2.7153135553942613 10.796987824019066 0.47894818220812996 1.0865134860667416 -1.0802068271224234
Ni 2.9663778166390995 4.821590631482253 9.554721079503933 1.4658023673093208 -0.09507245292581692 -0.5668642265948237
Ni 5.611558266884204 8.344363319511853 5.914968897397241 0.4813099975720872 -0.9769672650047819 -0.22016947723818212
Ni 3.4609953936607236 3.204267749553695 1.4195278428314302 -0.2706644006639403 0.04266899962343619 -0.32978640363707723
Ni 0.3290629696084998 0.20360604128310317 8.326586796288517 1.8451452417182868 -1.645474912874721 -0.40862362565095434
Ni 8.378622143711004 4.818461844556747 8.469278976983372 0.7702621408016218 -0.036652104005394946 -0.04610193656438512
Ni 1.2345339058496927 8.871011504524553 5.184537342228212 0.24096018873128824 -0.2014600737541369 1.0970979464508073
Ni 4.204226194098304 8.8961903476758 2.0168058395230046 0.043873047233866376 0.6158082605936943 -0.11409347411300996
Ni 7.986103290190212 9.1312485891593 6.11219109924421 0.36233476988674373 0.2903053148233194 2.38996585824951
Ni 7.865603214504362 1.5967397347064662 1.2730969010241089 0.8713052094885768 -0.6903543114313853 -1.5593866657253854
Ni 4.662449573054705 2.7079975788444157 12.141493483971455 0.25752760617166615 -1.4362817321423844 -0.3390189779789387
Ni 7.602720123122526 3.762491615081657 4.574689420852835 0.0017077267197260913 -1.1095778240853729 0.29328522338724977
Ni 8.402389783263803 6.294543671595958 2.218036973697668 2.1872374593059107 3.676845156564945 -1.4355065445392567
Ni 6.3671463830423995 2.8213487941960254 2.1962413054890155 -0.8036224614296226 -1.22012240450486 -0.3224862704312382
Ni 6.4101138189214435 8.775551008476945 13.449759064146345 0.5634829688274168 1.1217753945928295 -0.005614517973300009
Ni 0.5141794584816816 3.2401141778011 11.36121951749805 -1.8622605612423349 -0.743647623537887 1.242836301162608
Ni 1.365283776092687 1.6425110093140045 6.6460392078792525 1.4545093108940048 -0.4938790924863494 0.5061321988220896
Ni 8.453518061004923 1.974895877919376 7.347880892251842 -1.7895037410945827 0.913850024829323 -1.3741582233387624
Ni 4.686876393235725 6.122738917719184 8.395398754910968 -0.15426773233905045 -0.13486490233240642 0.30308086932143286
Ni 1.4905652323916978 5.019874021298317 1.744453757680271 0.7291638280994152 -0.13359349181915056 0.8429415707442194
Ni 0.9666744649364899 7.44451677234921 3.3450334516519864 -0.814064739808869 -0.07879994101803849 0.6207368082435633
Ni 2.8006449519293293 0.7984924192446773 11.8637732579141 0.15492619185865575 0.6025809632701429 1.8843499369422063
Ni 4.720457468338253 1.5136365543794732 0.5291428587423245 0.9439738407978969 -1.4602516126944205 0.172152068818639
P 4.913690234749349 3.6824336635723665 9.579561048106868 -0.19075502863180696 0.4525650642289109 -0.5576614770496331
Ni 4.045790737469979 6.753156988388773 10.635475572176757 2.1760601025328525 0.8123495568899751 0.2938750344524487
P 6.264824837920759 7.8681099577384455 10.22582637813297 -1.0807608998536806 0.020117596685481482 0.8866019877466472
Ni 4.999457990291831 9.21333050372426 11.610471496226987 0.46522311931255367 -0.046180869431436594 -1.3194760013045341
P 4.425952275270156 1.6669285452608253 3.0349316735507834 -0.28187003957177265 -0.20252322491132863 -0.20437339074618996
P 7.987319524870453 7.211900284460391 13.468442657051053 0.3356500615067058 -0.7179720731486537 -0.2736383956905997
P 0.9260865782829857 4.656646926679509 9.999048745132725 -0.9315736673613311 1.5781624036709918 -1.7156650007365615
Ni 6.210864868748547 7.064076707523022 1.4257640629437798 0.46913633832403073 0.5011946523111562 -0.19722623817844742
Ni 2.3927792592754207 8.386068099539655 10.544351741924114 -0.23596736350238717 0.3285728429449502 -0.06349699211238097
Ni 6.077543265632065 6.452180684083058 12.32261403844482 1.6025997107777497 3.6140297639006214 1.1559391849587317
Ni 0.28711494264464993 3.9696878697300204 6.141868153865508 -0.4403412684692094 0.09890056842265547 -0.0930983599185816
Ni 8.063422392610411 4.31300028198916 1.733773174656232 0.058353757348544665 -2.7883446662440043 0.0514652577588275
Ni 1.619049749489816 5.923647799527693 5.175759098791817 1.7835999740156379 -0.2630742470215082 0.15186580776577716
Ni 0.34135900938339303 1.9362548951776772 4.62273811810971 1.157661309856161 0.24396246589272177 -0.7430665542234365
Ni 8.12829133696799 5.054550636036483 12.43739502586328 -0.6958145632150081 0.8138960754414887 0.08655438815247675
Ni 2.5362578146070436 0.9695989987095881 9.028510181922067 0.8495577905091563 -0.695528399433157 0.7537985959289598
Ni 8.292325186819104 8.313521093498418 11.216380821856083 -0.6819113228703546 -0.23287021263430216 0.9900084144594564
Ni 1.2569646156776466 8.250518280215099 12.517009190977795 -0.8260003149041905 -0.22672116231377082 0.5566901142752992
Ni 5.033326876654569 3.8770404966451073 3.428098566618758 -1.4748840178956149 0.9458432899064677 1.5428097352033106
Ni 3.568116887863924 5.062182276549139 6.780564976171514 0.5400699892201151 0.030197863739618958 0.46882034974550874
Ni 0.7870505290162126 2.4475655252914628 8.940267249541781 -0.17689112616552116 2.1745022711274293 1.0731895152643258
Ni 7.093396319127608 1.2779562692045519 11.554270312918819 0.4770967308216881 0.5976128206315902 0.3698444480002276
Ni 7.272182817123017 3.785525800132631 10.52095268646907 -0.32794780776644167 -1.783165971802013 -0.5265783824915835
Ni 2.5132607664928703 3.6239337038762 3.4657257109857826 0.8734495095250894 -0.7591377487536861 0.9897065669483214
Ni -0.010854198203584808 7.092811412372988 6.803705929915792 1.0611207570252499 0.5799801951514915 0.8031938585326361
Ni 5.7292452196073596 7.321881322797288 3.63346025658914 -0.7945899189137089 1.0422149212596827 0.4030281338410478
Ni 5.956987484541013 0.9499721276101284 7.184820030144921 0.5798830074519948 0.2086571057232084 0.06492832524226883
Ni 5.8590202452593205 4.8471037070647105 0.9792100379537512 -0.9240105103020925 -0.6585968165141303 -0.9937619679646176
Ni 0.19614430225631238 7.186675020138144 9.43799690186735 -0.40594427904657826 -0.506492924595618 -0.07595424403912726
Ni 1.0008125940910373 6.039765716670996 13.394590287681252 -1.983711247051364 0.7737238740979772 -0.2783766817065335
Ni 2.0134997237242738 6.20771751335464 11.291062273339971 -1.6682597719797203 -0.7157357276189673 -0.014187604354291694
Ni 7.4974276230567884 1.28116861423786 4.309905846730196 -2.295358003664937 0.2743449348393211 -0.2420289963154348
P 4.181173440578928 5.791635273433456 13.131314473192742 1.8982511204043309 3.138496520911311 0.8997140996485731
Ni 8.08216726146084 8.101562026705293 4.219053116116202 -0.9742727488917542 -0.7053405004275723 -1.611130116846264
P 2.5896143085562366 9.116570214888606 7.200786127699198 0.021669000333001395 -0.17999521901214163 -0.4216568046858286
Ni 3.2799064055836373 7.714725124515091 3.866243860693564 -0.050766689029906116 -0.727019785173219 0.5180348637969465
P 3.648592629912229 5.4715891520803 3.7559332320425565 -0.4064461583836613 1.4016790544668505 0.31656373429921614
P 6.840503063745309 2.488731819735646 5.960531276735273 -1.194635315977349 -0.11253512848695459 1.7641413510703938
P 1.640709867879144 2.526657916443921 13.162581917132554 1.5713939745989065 -2.4340353377648984 0.19763298669856288
Ni 6.570926039505048 0.09390260154879605 2.495607723584397 -0.5411526807613325 -0.5061519963164316 -0.331267616168294
