# total energy = -340896.71663528116 ev
CRYSTAL
PRIMVEC
9.02305828392454 0.00000000000000 0.00000000000000
0.00000000000000 9.02305828392454 0.00000000000000
0.00000000000000 0.00000000000000 13.20615786323780
PRIMCOORD
 96 1
Ni 6.49650269352454 1.7662907235603729 11.401826959751245 -0.2736733626935932 0.8609256660264657 -0.5598160614987907
Ni 4.578759937070873 0.21957973197923453 5.987394677323271 -0.020135594407610487 0.07739431891976348 -0.33005148437300574
Ni 2.6670536065931154 1.5352011784647435 4.746200829200802 0.6913205319993965 -0.049563155640108186 0.4222167909543567
Ni 3.3446221205076863 4.195956690392412 4.554367903676746 -0.23504639435001456 0.5477323908613793 1.153642161394439
Ni 4.927447000468456 4.518991199156952 2.5171066198175818 0.33282364780150425 0.15976706489072484 0.06788175144363792
Ni 6.960937548280786 6.053975824223457 2.4539551373620045 1.6464311061404033 0.20513623705414347 0.8466586145844902
Ni 5.059589688685453 4.553612673700387 11.417436850540962 -0.28563567726179195 -0.21923796656284822 0.23418044680529349
Ni 5.628692019257142 7.787530892416724 12.301126302734225 0.5878210313521489 0.11214097837232945 -0.01976149889764339
Ni 1.9051104748897334 6.536041734819649 0.42499416479617047 -1.1249311666129915 -0.2042908583347127 -0.6526891927804437
Ni 2.501913594319475 1.5218560752982746 0.4325013492684505 0.38024250340509996 0.0612670743405977 0.06752025433916113
Ni 0.2727742696449552 0.0780684023709302 4.853698838392391 0.7424237784331149 0.03558021109745486 0.23913907636214946
Ni 8.665203769362249 2.3061673684280772 1.3346014495353178 0.41508197968178845 0.19161120598451517 1.3210163492084606
Ni 6.872863476605396 0.7554438228387385 4.9181848311646155 -1.0089700431636235 -0.6385326987744036 -0.7426250958106435
Ni 0.6958411091967999 7.660134332844462 2.757973550843695 0.4758592588701612 -0.9554890405263481 -0.2028980917522441
Ni 7.590990637398451 3.9000635408738082 3.7276229721620404 0.6108704569724447 -0.029898330221329154 -0.23597507681187102
Ni 7.626099357087924 3.777151441256743 12.69612240803936 0.16559241332325028 0.25414943372805265 -1.4450967593308532
Ni 7.805802585393126 8.766207883524151 7.091363148510913 -0.022947867045424994 0.10141485020407695 -0.5451921409380288
Ni 6.705864714330204 0.7524066614284387 0.29712840619439146 0.2512885672404898 -0.9518313891691027 1.178415768794693
Ni 1.8033574468922555 6.503143664403864 9.18737897853558 1.5132718736451938 1.166820607757926 0.7052764799588563
Ni 0.0028666256091867326 4.929007989547428 1.299281590282562 0.04505935423248369 -0.5128486916103168 0.7324450699538482
Ni 6.242756249138171 1.8826791520554929 6.906833486342462 0.9693637416259111 1.0034714819428978 0.2679827400667191
Ni 3.408631695803786 4.325103723267104 0.4530495598438391 -0.32275932158696674 0.052202135924852025 0.30931810848039626
Ni 5.988459398197946 5.613154312933505 4.674623614942081 -0.3842022593837963 0.08243650932936125 0.46557201801154013
Ni 5.186138080781278 2.8475508640251936 9.352297023576025 1.2241567224752337 0.3150701804728251 0.5063695116438762
P 0.285212555456299 5.482301922047681 12.339741382863515 0.6408706028789608 0.17644092600198 -0.11460538075242198
P 4.1042643723547805 6.178656443259473 12.560297409746475 -1.1937955936848732 -0.6590488164498843 0.6508989336492403
P 2.31131953469451 8.532736251047895 1.3680652657040018 0.5859191863437457 -0.5295971147132492 0.5433165211818707
P 6.26542217148717 7.642801037927094 5.809599825840048 -0.9372295800955278 0.7364701319528414 0.5165467092871943
P 4.665273019667293 1.0374441695544945 12.608513023864354 -0.37024039788706553 0.3417443473299017 -0.6163260807703772
P 3.9525867630049887 6.241727620496536 8.176566365435333 0.7786233682821235 0.31121866793721886 0.7063792261047319
P 4.771645853493866 1.0893177314909583 3.8695755293192566 0.010416567347633673 0.06757681860870943 0.06599867548831215
P 0.04588495816933362 5.688857771734502 3.5799380660922773 0.5373343354565069 -0.681360335462891 -0.5872947265350337
Ni 1.5241389090380426 1.045276184124133 2.714816263186345 -1.066083500347164 0.5900728035008032 -0.17890121461701447
Ni 2.0005924773965447 6.4149162007380545 4.809973098064664 -0.41172077651903927 0.6613916056504481 0.07888170209856737
Ni 6.126006898312653 5.443087710849929 8.987252960164803 -0.9879636161152857 1.5649369061196534 1.5215307712198765
Ni 8.59394867828341 2.3085584788669644 10.234257657806682 0.5499427682491368 0.7782389883595113 -0.05952566616945878
Ni 2.404969856374551 5.279138742266603 7.14166579600432 -0.27752153279508984 -0.8080429590948212 -1.4035086514764215
Ni 0.6476101558798788 0.05635351036252986 9.095384388046241 0.2841097275355688 0.05608553013965825 0.08842640836420901
Ni 1.2578774828451207 0.9572742969148216 11.514079218340003 0.7524274266130461 0.03622864331473115 -0.7059076857849521
Ni 3.9307960773072046 6.861521492372636 1.5281902621967607 1.146838251098728 0.6736614241567366 0.580087153043001
Ni 5.559855107791969 7.854725607278586 8.113005236134754 -0.5261402665129004 0.2717239522767062 -0.5216220669275726
Ni 5.405876618585888 3.152909201658488 4.674887088243271 0.16867850844774177 -1.3879064261627905 0.2399731422276706
Ni 0.7869974575737905 7.510080873981461 7.000253720036874 0.0372164611492972 -0.26173547360542665 -0.5713788266357256
Ni 5.124348177817128 4.68464552575141 6.981118520384994 0.4064240468964742 -0.09500843245710089 -0.47370184620752614
Ni 8.27850256151549 7.187253895556901 9.299036617585006 0.00442563987152141 -0.3600755415389218 -1.100412355536021
Ni 4.646550173777892 0.30570392076464986 10.40910648076803 -0.007196003527806962 -0.3521711990901805 -0.05730140482463034
Ni 8.03970732466586 7.0827849270231775 4.832251931214312 0.8496824890124787 0.42980154528015013 -0.7940301897554971
Ni 7.3934037076220225 6.1605200961569695 6.976271333487748 0.34359168495128567 -1.0342532432104445 0.5079689949205123
Ni 2.1123881692373496 5.2912025711601585 2.6931320495760285 0.031181053588494684 -0.15169225830239036 -1.1585347136000501
Ni 2.4088407483680707 5.137594027342738 11.372113126595398 -0.6970132115087997 -0.08317647281917934 0.5879575569300133
Ni 1.0408909778097963 3.3268106035025413 3.8981939632023463 -0.07601286519120456 0.04325855357831905 -0.4398730705835392
Ni 3.546070919219374 2.6399844318132595 2.717431145470079 0.36502491512439716 -0.5186131048979198 -0.39384929555525716
Ni 1.294583283846605 3.2536606701891113 8.115474847180502 -1.4634238397748152 0.9504990435109242 0.33659417058753
Ni 3.863899123367921 2.776810087267171 6.931595465125248 -0.39591029184934395 -0.7374345527486397 0.20276413727754114
Ni 4.15323250953154 6.718668434001077 5.987856657906181 0.2444476330592564 0.8716718487993762 -0.3200028418877521
Ni 0.9655755105139773 7.434151838723966 11.329312249739315 0.440412488026777 -0.6823556094966248 0.40761472477046573
P 0.3674920191171488 5.601316060496448 7.973138810047239 -1.5156167197282864 -0.8660874127330631 -0.5354692572233101
P 8.643142391916667 1.6291402380091031 8.00954775243197 -0.22394514223053044 0.17069373910555766 0.04989637060981084
P 1.8152588607371318 3.16943944439072 10.228010994573316 -0.41031669708266105 0.5665384678242888 1.5189010469065132
P 3.9820560712819915 6.1609441798951865 3.68461005343685 -0.02424987368630017 0.03082649846255336 0.2172034526313227
P 6.831853676813914 3.9124161076316826 10.456292563938447 1.2959128692726134 -0.332095511386228 -0.45354028365798665
P 6.31424593973177 7.687447130197337 10.11989219897344 0.024750981692434792 -0.07359885643307325 0.47016786491233864
P 2.270192435145649 8.439140067717412 5.597126654546352 0.21444363049799842 0.5704509155048175 0.9887254339819745
P 6.902242554299798 3.8255421027048655 1.5399572324735642 0.12564389795477074 1.0006000739323733 0.6297847773784444
Ni 5.435472249678531 2.886819213572505 0.2581081907492293 -1.2921120074692845 0.33158514740871275 0.1748923505679375
Ni 1.6152086360557374 1.1654452740301728 6.934210347408983 -0.4968070647664219 -0.31314313865344134 -0.00252096664964082
Ni 7.019858118718272 0.7239082342202064 9.166011474270189 -1.129023077294178 -0.2038146900292425 0.331713445456461
Ni 2.8874508276507016 1.6692748011493694 9.140127027039865 -0.011753283881186209 -1.1011188946847421 0.11681215859575367
Ni 6.365758579337836 1.9370611241882234 2.5092493406848155 0.016866436738035468 0.4022858563583846 0.7624243899247579
Ni 3.980928188999498 6.763693494718236 10.488079895882434 0.6459387614304875 0.8722058669259753 -1.383544806759985
Ni 7.9773760382061125 6.938876170835204 0.22345874472518787 -0.029015413395743577 0.6653523900704089 0.3008926034208625
Ni 7.605337300031774 3.8211749425070485 8.256252602152273 0.9795779631547517 -0.9805719516369048 -0.7048471057309216
Ni 3.261537800050049 8.324989357670761 12.418925937541202 -0.7770655368767004 0.27095082155610756 0.10027662283457568
Ni 0.23052199473107826 4.841132425153757 10.095935979293268 -0.5005462200938798 -0.6974209884701796 0.23985024349656114
Ni 8.62401350840557 2.3675241645957508 5.941080221580764 0.09787212715814111 0.838616461006304 0.3609674572255719
Ni 3.3744884433481275 2.7434157486470885 11.670031050387536 0.7323741075065967 -0.4559182969718599 -0.4503243478238502
Ni 1.0203093819188458 3.2578203000469492 12.52765198496197 0.03423141037904427 0.47951125380045156 -0.08804845619949997
Ni 3.010967472171184 8.395694042195744 7.758459501008985 0.7504245372504044 -0.42764798927225706 0.9531421375607263
Ni 5.676911242598325 7.835723046583127 3.489978175240556 -0.5543046447622584 0.439456808981727 0.5006166683204991
Ni 3.2162691167598703 8.377485510627162 3.635377540653074 0.18054209265454713 -0.4585475070645909 -0.543070980829968
Ni 3.54860639859042 4.391892400507269 9.286240116360743 -0.6655794184795506 0.5183616510087461 -0.15841363618662394
Ni 7.38096091028155 6.097187250230366 11.23708035281774 -0.5949517288596593 -1.3719517026057468 0.5468577015659097
Ni 0.37871941051000696 -0.14636032111720249 0.48292580804836593 -0.21991853756964064 0.03953353931824804 -0.04441297889773641
Ni 4.515634621484249 0.48243405137319856 1.6189297452821416 -0.17871480963782127 -0.7069214717614472 0.0023551304957378796
Ni 5.8976603629280495 5.534951466994501 0.4931850252899313 -0.44095421946285995 0.12328388236302638 -1.618668077094522
Ni 7.9656099702351355 8.577716196473755 11.312196410526013 -0.32061836398456395 1.202303116935252 0.5148981179401777
Ni 9.425125736015401 4.878740531981236 5.715307964717724 -1.105081478876916 -0.20684422088418572 0.6176681966205685
Ni 7.751673258891675 -0.089186614758843 2.526680986937217 0.25584044827723035 0.09301814149994948 0.17460361568292512
P 8.465505443952994 1.789687513628428 3.816817707673318 -0.1776010077483522 -0.6819632591542126 -1.731093676586806
P 1.7677073437071853 3.2792410403560748 1.6972950062698242 -0.47106312303309844 0.06376695794431599 -0.9721783282565709
P 4.848594494334736 1.0960669790694024 8.301139610078057 -0.42225869993588566 -1.51847887176743 -1.3618158997233256
P 8.474032234008648 1.5169114393718208 12.56035064579021 -0.007250253804510093 0.22768352622704013 -1.5786979644594874
P 6.177745114375218 7.8655803463653085 1.2913403967079784 0.4691422518613017 -0.7773020783675387 0.645379803603224
P 1.9627317249377865 3.229848819441098 6.040298672513021 -0.2793591002244608 0.1506468477570115 -0.9932503184355217
P 6.996118452436339 3.94297720595814 5.965366685193251 -0.13922909283837312 0.682610148709592 0.5120472787549439
P 2.4968967739269416 8.615288211068195 10.118531521787842 0.023153555298327865 -0.4508326549188365 0.5681276666882796
