# total energy = -340873.63188975217 ev
CRYSTAL
PRIMVEC
9.24302711315001 0.00000000000000 0.00000000000000

0.00000000000000 9.24302711315001 0.00000000000000

0.00000000000000 0.00000000000000 13.52810447959400

PRIMCOORD
 96 1
Ni 4.692860512282478 6.255699275453165 6.323509819991206 -1.3519405495911427 1.8957450661530255 -0.11202116496501353
Ni 1.376148100368859 6.671857330804661 12.59795303024464 0.34079895269749694 -0.420022097295883 1.3749763483646837
Ni 7.9924455948480535 4.680678202470971 11.202177361677954 1.245419745619068 -0.4291770243222737 0.2189903693284164
Ni 2.2846359979888664 0.7105882157677889 4.5508543400366035 -1.4103752966892678 0.20055478833104814 -0.20054064726366108
Ni 5.589868570155982 2.744911022028011 2.9647249970001845 0.859900824306377 -0.7623943080177709 -0.4589347152006806
Ni 6.497709455874012 8.140583591319233 6.154408637895975 -0.6619346226381115 -0.3940053615171472 -1.4299056534127115
Ni 7.055036265209682 3.6398948569510448 1.1345926768848298 1.1372138406350865 -0.4958734972085589 -0.19487650699934825
Ni 4.650416531512798 6.632722353762235 9.051911871188919 -2.060549693467658 -1.029635284822459 -1.6919069790850152
Ni 1.6117251338786223 7.891687355655918 6.454556534920309 0.5367175278081143 1.6146545850597547 -0.22833324399589708
Ni 6.434330018561797 4.845435161795785 3.3198642841789634 1.7324342497751002 0.9068345127434383 -0.29895424874756904
Ni 4.130671870654812 0.713680008356521 2.9735992273871554 0.1616570828245861 -0.9494513189727004 -0.4048973258393027
Ni 0.050317191314020855 1.2099214997238406 1.5288650925006013 0.37382245881136905 -0.25760782459029824 0.9755894108206488
Ni 7.624027774835276 8.567842522303218 1.6163651335185132 0.06710476406829734 3.2321134723375238 0.6116554147675852
Ni 0.4941155951179671 2.423641883615002 3.666630313043444 0.01601848691544338 1.699284759606325 0.8556129955643007
Ni 3.8907691004289746 6.091663272247697 12.57866190823584 0.6118544181522688 -0.779447921065948 0.7817760549784922
Ni 6.909088866178052 2.4444941529129984 11.965324202848755 0.0017038700649841625 -0.08454198570813827 0.43776733709444604
Ni 7.505892644561478 3.5068507238502664 7.049238114265252 0.1302137767136403 1.267104172571037 1.817160840690219
Ni 4.662108960884236 2.5717059358688137 10.560714973214653 0.7211520135385322 0.5055778689805164 0.2555691968937147
Ni 2.3881116871693036 2.4874557432042597 2.3610055856873426 -0.2759647298309312 -0.49475198200960596 -0.13046291660996887
Ni 4.096518885257606 0.36629007515799067 5.982668571543397 0.587936988104723 -0.6885830784635754 -0.0077372207432576424
Ni 4.241615925789495 5.777927200979133 3.8349874314514008 0.4927231245050353 -1.3522585950521937 -0.40346882092289216
Ni 0.46046173318800093 6.984401051568154 1.9461933150919584 -0.09810584043550201 -0.07694309031495782 -0.5331730049899656
Ni 2.9119787381455993 3.1905820631368216 7.934936404092201 -1.4702724872655324 -2.4350460384176 -1.8880399841992839
Ni 8.023271090463663 0.02571687449814472 11.250120943614439 0.4717457509224199 0.2087740909170469 -1.8418254333164346
P 2.7403819387141732 1.132076724888857 11.644234379162866 -0.5821643472870038 -0.42350259964531584 0.1795930984777165
P 7.3651305837728325 6.598615583500885 1.3731838615550882 -0.7664617932189252 -2.573789964089438 -0.6899413922636828
P 1.1332413463124154 5.94843332320437 5.969641449048452 -0.6148754643667799 1.6016818269491704 -1.4459467660359742
P 8.118603672706364 0.9796407207831161 13.213833492406495 1.0138795646500989 -0.9673734506687597 -0.7821627488939497
P 5.500377581085415 3.923702006239595 12.650658619779671 -0.6599646433959343 0.8941533177313439 0.02377601937367518
P 0.8639374309580342 4.2338055678299185 11.93113886685645 -0.3221769667209355 -0.3641875068247663 -0.21126471854938453
P 7.190899521597645 1.0480945800122647 9.435866295573595 -0.5131713650570582 -0.7000982781920265 1.2975311216023266
P 0.14122698505535083 4.087090997543086 2.1787959424580623 -0.39687856929988424 -0.38981240648172216 -0.22137763861367035
Ni 4.057115860427217 7.528722921674088 2.1113985612345707 0.2214635134592573 0.26401347100632594 -1.0163395961548174
Ni 7.172672272016239 0.9518654241339681 7.356163923114152 -0.19765458396511765 0.612226713890023 -1.138185717630053
Ni -0.0831807744208582 1.79360942255148 6.205639040294502 1.4570187075794196 -0.31942460078677887 0.7891124407389055
Ni 9.067039933759855 8.739735098604118 8.298693889805312 -0.7904141902694646 1.4360480188650238 0.10139736670258022
Ni 1.9791724360384344 5.173414737935011 3.010463192653644 -0.0695722517721834 -0.6925978560499233 -1.0087057337586434
Ni 7.601326900103061 6.780601545472624 10.061513864547148 -0.4769694612152044 0.38977152594145775 -0.28023096130645286
Ni 5.777150786696761 0.3164239435699194 11.588918558754717 -1.4687642781511219 -0.48022447781739236 -0.9335336193011794
Ni 9.038063043578465 4.9911699712024795 4.45177463457874 -0.6183603375915867 -0.9858509406476571 -0.8118276229482341
Ni 8.520148502100353 0.5951816271148992 4.204494080064933 0.49955994492121053 -1.8886251672787926 -0.08328831580669527
Ni 0.0220483170139361 6.613931279523393 7.735424738301344 -0.6246109464869888 -2.214858049236656 0.5107468147759656
Ni 3.200185568367592 8.043550292077052 11.46187592319613 -0.1259200344342928 0.14013566381304254 0.055006695253182684
Ni 2.0772594403781217 7.574161643247204 8.766820865426302 0.2656494639478522 0.6155123266198302 1.4249881615064361
Ni 1.7468581911200685 4.3520423714025975 0.5159115774901323 -0.564897075566124 -0.7292018804262023 0.798986762429824
Ni 2.590016372694758 7.368291699065349 4.0643568479130545 -0.709384588589959 1.1436272003605983 0.25520487157576044
Ni 4.9828327606941505 4.142558403596843 7.706609601095447 2.040260861311635 0.4059247386625525 -0.12119640370637835
Ni 1.0781066892368183 0.38067037683078425 10.08470184681128 1.169900018014198 -0.6117749710645851 0.41598469400171584
Ni 3.963105031069984 2.57512585592212 4.631535799910397 -0.4801332036551667 0.059157741307078765 0.15057048599312134
Ni 2.281687472321286 2.7949989862681885 10.286351424786814 -0.3831234244973208 -0.6195422737148297 -1.1519820000831966
Ni 8.265780394351749 7.850546641717363 13.130296861439549 -0.5142494286125853 -1.8042225353619958 -1.0463435987160754
Ni 6.617582275255977 6.235808280980963 7.571125308821499 1.7573662371300895 -1.2638316724673524 0.47168224467433606
Ni 8.797559476586505 5.371668427727882 0.11845309040848356 -0.7265292186900455 0.29163920314339453 0.44842584524955675
Ni 2.5804128674639877 5.5250010054692185 7.557664688352229 0.7230253193018451 1.3204404221003325 0.4274978368476379
Ni 2.0364145033090413 1.9052929198598518 13.524884464281854 -0.39052151673360486 0.15092426978811427 -0.7247878105189066
Ni 3.753519389965347 0.4574512792383745 9.915559071093782 -0.3398201337239954 -0.6287979879851429 -0.2920096991089358
P 3.6310770090298177 4.553974786009566 9.268049894255146 0.2736797904514964 0.8711645701456545 2.9477242658883234
P 7.090871481552027 1.1898086725995325 2.8279420594086977 -0.09267875588265974 0.39098740062642984 -0.2566143503287774
P 7.0529843131776975 5.801256601558983 5.287527302783947 0.9172297399348333 0.8602070426928863 -0.024991122727698895
P 8.168710123000883 4.824120741139235 8.734772517315957 -1.3478820632510529 0.9750134837125208 0.30245814813576943
P 1.070111470733819 8.805166487948318 3.025911988267416 0.10900654650840581 0.44475405282492436 0.17744391334519763
P 0.9783929121150181 2.145814972906152 8.52345011140587 -0.5411742780278873 -0.10666581419037115 0.4144433176565249
P 3.9008070279367866 8.13810646003738 7.529526140735257 -0.5182503222418624 -0.3198357201822685 0.46890905280457307
P 2.015645421255585 2.6697097529639615 5.68747216417462 -0.9893293861145607 -3.520857613321311 0.4460393472952512
Ni 7.1091726753508 7.412778388839841 3.525221240352823 -0.9474036924150523 -0.8707593642874358 1.2108018984348825
Ni 5.57948865064284 4.929759298677708 10.457211554952703 -0.3636411474029931 0.11080451894909304 0.7814911767482218
Ni 0.5431794319475872 4.098043984740837 6.6532973322450975 -0.6311353778690679 -1.0496428382926373 1.24844670537085
Ni 0.07437494243495356 7.289818398382731 4.493792511795832 0.027494348765526845 1.5585744542367352 0.15294052888719467
Ni 5.945420096346592 1.0757035021723331 4.775474689137748 0.6722552878378294 -1.5889931757379088 -0.6301676146391598
Ni 0.8387492576140763 -0.12268916976099757 12.655745057631925 1.2451873178932877 1.0994121964062809 -0.403720274812066
Ni 6.320095445754202 1.278754323067004 0.7741839399158086 0.9029302925930257 1.0970889475897427 0.0926443031002985
Ni 5.5134010063694925 5.223530431256702 1.2021102174615461 -2.1087627628377748 1.1432734165656053 -0.0922007878049767
Ni 2.505414944997703 4.545961081452225 5.346483027292075 2.779126490079846 1.8066013200068178 -1.3202375620609068
Ni 2.2685254016296432 -0.015314771719791533 1.1540002610359834 0.5471063272416062 -1.219405066722861 1.1705749325940356
Ni 6.982376828617684 3.160172503743911 9.708579963651394 -0.14753915536596524 -0.48703327320910955 -1.417025969236566
Ni 5.422736152848196 7.996327666259914 13.347720589585277 0.03605920761640241 0.35475695753948583 0.5476292896246118
Ni 6.517018139634435 6.014918417646074 12.690606983213156 0.0689389890635587 -0.4843876080561464 -0.90206331660704
Ni 3.041667652383269 3.6917020242450462 12.192027930274264 1.2183156903134245 0.6698423075209625 0.22479694870786443
Ni 2.2163115411401133 5.493029374484393 10.757643212911189 0.6789787226045919 0.9101628057857228 -0.7130342695274042
Ni 4.09487362642115 2.8385521302984 0.578026568685342 1.6594133773326842 0.1812954258808039 0.7289290863807898
Ni 0.9799919558156178 4.485594870997786 9.050626166109419 -0.5384514797800856 -0.7659061778257713 -0.024449391291615958
Ni 2.486873432492481 0.7793748239750969 7.712466907413771 -0.5052899054264524 -0.310395143594659 0.052924615913173365
Ni 5.960874437776666 8.440205560097532 8.521786366515073 0.32806813539438984 0.8579393297046322 0.9031439512657284
Ni 9.192292194955398 2.2539861198895066 10.91479963099321 -0.3733830572811053 1.2253288884064637 -0.18308517079137498
Ni 5.522237340345061 4.3629214143829795 5.383116841182003 -0.9066861600910321 -0.39988110357163387 -0.4132089310287915
Ni 8.978445518324884 2.9604122005221507 13.416375946806754 0.6378611266286757 0.13725757093429908 -0.2493756664884931
Ni 4.8918074291131814 1.4467093697930176 8.246624220539651 0.8209784362095667 1.0579500726067521 -1.1353757589850832
Ni 7.509072245908335 2.944634353141087 4.857725615025193 0.27251919448449197 0.004949116475159218 -1.853713443003272
P 3.90285897996877 3.923951567973215 2.549222272275119 -0.18161270001090657 1.5139760988010702 0.35580082542296787
P 4.46212682501037 0.530604293481309 0.6764065769863531 -3.1476835867272177 -1.633600015814006 0.6652839987263188
P 4.928446788819413 7.772655651746525 4.259675876579103 -0.29184617694787807 1.2507678973048586 0.4337011374448725
P 2.6838977996715965 6.147334024899217 0.9922177078548287 0.7261186135151881 2.175709661171969 0.33424778184254045
P 0.2681041704275727 7.4869536818879 10.970940853727738 0.14377994543384914 1.045186859403813 -0.6958726701464532
P 5.268959909802645 7.325413296018627 10.860917404099295 0.8866194712481441 0.7420237147812189 2.456185905720009
P 5.783186483439487 2.5386066555691134 6.313092928369379 -1.4437201906983008 -1.8120430598476793 1.1234144728581492
P 8.522681091545236 8.857389591465019 6.170371345820461 1.1540237131035738 -0.4640663800002911 0.1797604772935162
