# total energy = -340860.340302769 ev
CRYSTAL
PRIMVEC
9.36075420567348 0.00000000000000 0.00000000000000

0.00000000000000 9.36075420567348 0.00000000000000

0.00000000000000 0.00000000000000 13.70040997954136

PRIMCOORD
 96 1
Ni 5.600136775081369 4.902582726666911 7.324609563885441 0.09535141761881642 0.14241468965520634 -0.22698007240211232
Ni 3.2722763177234775 3.0619869727560083 3.5588455132676393 1.8162504130608077 -1.5291543492034052 0.7184040184797499
Ni 8.321916494176229 3.707139518694264 11.306400165770759 -0.6306923767943784 0.07083363498311027 -0.5597852082608553
Ni 4.355296866757361 7.835793802751765 10.624941934345907 1.61563648935705 -0.8983311032581175 0.018929489914651272
Ni 6.943348850165365 0.23946681606756223 5.327541313530862 0.9406193225033672 -0.7142969382899118 -0.5111743892316875
Ni 7.53623094418738 2.2907544273801017 13.02855523181436 1.1222891010044542 0.699613111025492 0.13396938710133055
Ni 3.0948057772721866 3.1059825178860825 12.103709900428232 -1.3423889013469654 -0.4513245069535905 0.10265772147224254
Ni 0.40463451716471316 6.8762509634648605 4.757248591744569 0.574598619124604 0.3721023907964688 -0.0038283726071546968
Ni 4.663134632107914 7.106300860723731 3.5936721995775196 0.44567219376381956 0.4422014616063997 1.6374682405201606
Ni 3.243108207377667 8.532833009680658 12.66501536202742 2.198181102801608 -1.956980515924739 3.4716281868715373
Ni 6.938106827766888 7.085585511495464 4.696144396011466 0.2914641110181109 -0.3260320788009675 -0.15908366567045507
Ni 1.257589255657446 3.877767347764686 3.151601217808827 -3.726322951580099 -1.487358753323858 -2.223165283550771
Ni 1.1733611886190625 0.6563274144012944 7.946594242973285 0.8600862008443059 -0.1768769850981341 0.09378664423485784
Ni 2.1343362233112653 6.929335801003721 10.84654655909066 0.6332843058912707 -2.4145625737522676 -0.9410250425822181
Ni 5.179679774952111 3.4405171544517357 11.316264528634177 0.8100263080734372 0.4111821304067499 0.23101978968912473
Ni 3.7027586856898234 0.7604236824053333 0.6898885267321141 1.1940347062788725 0.2554362708602762 -1.842878042950665
Ni 5.607812593593424 3.3102248155867366 2.658564673270943 1.1875470416719998 -1.502873046909373 1.118651247141551
Ni 7.477595179358702 0.3887933126916018 0.7722800137801741 -0.6061236863160787 -0.19257665522157802 0.15012902758032853
Ni 5.132613902417215 7.1330632572188115 12.806910355826192 -0.19236222521792676 -1.6376888411713988 0.6607825113115393
Ni 5.581012754081211 0.5884226306815965 7.2323920930665215 -0.5682742195684729 1.5807031678149743 -0.6516977754014518
Ni 0.10884310650094545 3.0689326524339906 0.7643289890921986 -1.6163571695731584 -1.0017352159780812 0.9607353765269518
Ni 2.023720189949121 2.0700746451585093 5.98661330108793 0.9402809653273418 -0.23947846197943914 -1.2656651261316654
Ni 8.297129216834861 6.251139792446496 8.835517679798425 0.3194973630062433 1.3388639189128424 1.5259674668349912
Ni 0.9699894410667267 5.371051035513647 7.501796473481956 0.44138359369079466 -0.8529274783123375 -2.4138290380203524
P 7.835260239757635 8.94132696583625 7.1896050213143825 -0.2253844457802183 -0.24144509878750678 0.9634160086829084
P 1.5119583925435351 1.732001643473884 3.7403898539828884 -0.8153559478164667 1.424295763425102 1.830205589689319
P 8.894935067609731 8.489296141510453 12.725694579516075 -0.9996659921538784 0.09418310834232813 -0.30715118273606457
P 5.429181319611042 2.208389150444034 4.768591953784701 -0.25763070740843375 -0.6169320897854923 -0.7592380217769763
P 3.3138848705113872 6.0367785193659245 13.817411269278862 0.21509566225970053 0.016186894172507606 -0.9290971807963806
P 5.963848882747116 6.857763473755947 9.061190488354566 -0.17320930643855975 1.1209004481870437 -1.0210904805762415
P 3.7371220146626953 3.198513573973482 1.3322581204220356 -0.2227308102074551 -1.221773824065354 -0.2886837200594964
P 5.765578746279012 1.5924889616401359 10.753013902294981 1.177733655126004 -2.4854651143001 -0.8431778551247414
Ni 7.450168169309529 6.693051641392377 13.487396004881036 1.6636289580759285 0.5734560208797285 -0.30621607251630484
Ni 6.216317786513756 -0.3934371828913953 9.134789418904608 0.7091380197967916 1.5456124947594285 -0.48175274153646064
Ni 5.658669571612933 4.956715968685467 9.67768227682915 -0.9961458948157618 -0.29653021268710866 1.5750945633789453
Ni 3.7356804585031145 0.780970538056506 11.294987534148932 0.6349043579931968 2.080037369878624 0.8089366745536842
Ni 3.486347407421276 0.7711192802490827 4.474101687966269 1.0717548397003285 -1.0511901281750993 0.6576241681882158
Ni 5.118422998924195 8.01058716747812 6.049648620429613 -0.47492054910597564 -0.709196898059185 -1.1208305141810568
Ni 5.720422467617846 9.247011757701715 12.46167356888879 0.5376994321054095 1.632076380080628 0.3502798956047387
Ni 9.270432364917767 4.693369868441986 5.165452364517387 0.20467009605100234 -0.9566534931480943 1.1928262877930684
Ni 5.725954673399096 6.009491920630996 1.2163673020214236 -1.1980510265271174 0.41422117434338984 -1.7295633559852084
Ni 0.9037349583271207 4.713289553556198 11.955553498089566 0.755652361308247 0.03229074171290568 -0.027971031291629245
Ni 9.295491104133344 2.5506276877845915 6.719571594351529 0.5013831141728784 0.9326638151017163 1.4194826583071747
Ni 4.167276756229136 4.906664015534297 5.151723882285948 2.293101860640909 0.43009002305484645 0.3267702425185727
Ni 1.185558251449804 8.992932804198398 5.792629454006008 1.470529854691977 1.6279713567733187 -2.6481159284965234
Ni 1.9161183194661005 4.248490660388395 0.33306780636950795 2.674128293399885 1.0007970204345278 0.4802892696170567
Ni 1.4680002904305935 1.6797031092947945 10.564208424482413 -0.025894094157942502 0.4435934568579199 -0.022161623698703767
Ni 4.099710831814483 7.867807582399606 8.229041898406644 -0.45744990312503797 1.0780388729368273 -0.6314624221911834
Ni 4.066115084692816 5.005401251711321 2.600542973923231 -1.4149078944522988 1.2643170967442032 -1.0011374344930823
Ni 3.4653418748102363 7.512557596605687 1.6998231145506628 1.4718647714533168 1.991270804566177 -1.7189017625063046
Ni 6.099795117199043 2.734388655114054 8.636176673040344 -1.5698693104242643 -1.8665589315073725 -0.027316942647398118
Ni 8.192831692613737 2.836177497187335 4.025426694050924 0.5122766211569307 -0.02862743392870554 -0.4547060218313137
Ni 7.367503348236405 4.192092115833354 1.282345642509681 0.5526198008606676 0.497721349050575 -0.3285188497785632
Ni 0.2829128849212241 7.646088756452602 7.121980124147746 -1.3270247601860694 -0.9339956465392625 2.0061204679845
Ni 2.4618128511475406 6.739331210567502 6.158950403890426 1.0787955485971936 0.7600417486251942 -0.026120094125819535
Ni 5.85160407813973 0.10920723984255393 3.29696249891859 -1.296934111448276 1.0591898585511244 0.08399434073478437
P 3.241348385572464 3.8432168037061536 9.796478673359204 0.008371769003463002 -1.3604100205147345 1.7091390266925854
P 9.415140265378579 5.369291213708444 0.8889693045211254 -0.9395065490551627 0.2480649180968695 -0.09326239630027164
P 6.203399945603225 5.464087572332328 3.1268579360125877 1.1554391053938617 0.09516089887456515 1.7005312304189166
P 2.430164140916737 7.807028204840124 3.66996983558735 0.07460004400407798 -0.3150257003881349 0.5825055326765065
P 5.989450545711105 4.173679512158704 13.282150234321245 0.31285568932000957 -0.3454714184725018 0.8587222306172437
P 9.127306431930784 2.0594314675387446 9.239090687427446 -0.2793133345881899 0.4074671434490079 -0.402226720985675
P 2.4311095770993196 4.329348855884901 6.107492465445949 -1.108248306640672 -0.4780845486562541 0.8207367525124057
P 6.713579775534984 5.560082107504436 11.775776467782945 0.3992498977455382 0.21362756235460628 -1.4420520589672585
Ni 0.8739452938969194 0.4764090367050009 0.3111336869335955 0.511597335701719 0.35077020497759587 -0.7042878907933419
Ni 3.7819506669239553 5.384596046961141 11.467065344057788 -0.24782683394413446 0.46542520802103066 0.3818479002190069
Ni 7.658753856997493 4.204672969589699 9.06694548008775 1.0835358914956565 -1.7769367030628491 -0.8943186396646147
Ni 7.114285584127125 6.689035877804972 7.058780055530682 -0.7970396660057821 1.2620043894506265 -1.2238481900958795
Ni 3.9770943114615394 1.1828997972334339 9.03195404450249 0.044873720584238844 0.5414139048425193 -1.3778932649011624
Ni 9.118067367453468 7.969053500724474 1.1658650965892405 -0.0014375037774749437 -1.277929288210999 1.032198417563945
Ni 2.2380440200125604 5.438214447494132 4.100943643153553 0.642808443331622 1.7035689888039758 1.9484192566182894
Ni 9.083348329817841 6.7762125824425 11.22858234326537 -0.1251841847095328 -0.20278136366872174 0.12782779297996694
Ni 1.479289360095885 8.782390718865289 11.63397695367786 -4.70428111974324 3.5624117826140127 -0.10660385060418415
Ni 1.7066152778584034 6.254556467759789 2.065706917210064 -1.7827412255597685 -0.5530887700772861 -0.5108005508320363
Ni 6.94024107974341 7.9128328105008086 10.912582000180045 0.28415369339962676 -2.3794726720276698 1.3846475529058604
Ni 2.3904745427568406 0.5826854243815492 2.2951886166839564 -0.5588644962187989 -1.8911646458711946 1.007665208309271
Ni 7.210326923070647 2.4272248640718765 6.111355648738541 -2.7615766541215407 0.6673370246006056 0.9063110361398004
Ni 3.4913366894541116 5.629501461267122 8.794334105254961 -0.8180687187619395 0.45794972557959196 -0.6830557208874429
Ni 7.918692642681964 0.6766149771588281 11.125499844950179 -0.1590147601057326 1.0948127499610563 0.567618588262345
Ni 8.54290518128916 5.506538593005708 2.9731393734789675 0.03678708692136245 0.6032674478142063 0.07272648113044894
Ni 0.5550337562295838 4.345243416657425 9.395645558508814 0.6933388479810059 -0.5774075493283088 2.3917026384349587
Ni 7.108959314940101 7.757032416214651 2.4037780467438323 -0.02751697447334616 -0.7331258980709567 -0.6762950051248418
Ni 9.096977588053882 8.957006229260267 9.443459355310921 -0.4304720889846135 -0.9999056189685102 -0.3659052608468214
Ni 4.467990987570331 2.9662077349324103 6.643342291847965 -0.4398733276938554 -1.0148614689473943 -0.09141248757572644
Ni 2.0663397041995943 2.8522124692741047 8.197352936932424 0.6241350352918348 1.0400233129250023 0.4201845910156763
Ni 5.372773414301719 2.0516620414838593 13.419181380194571 -1.6481025803055551 0.8671611054132162 0.2642466700630546
Ni 9.382845663102247 0.5844452461867522 2.618682243572817 -0.9565601621033396 0.7930035482631955 -0.05774414878900378
Ni 1.3722865778869762 7.125162780603964 13.388314292946399 0.24592241783257002 -1.2622085350416326 -0.2400551604185156
P 3.2369675525680224 -0.12365837230464065 6.572867981077584 0.339063458063629 0.18590747073151853 0.41138987554218187
P 7.700175194699743 4.505668023559383 6.741012402036728 0.620418505672196 -0.08457772404208015 -0.08897559599945966
P 7.812101733661507 2.178528344281282 2.0442249222060203 -0.6500823512852159 -0.45698710455600655 -0.7321974727194164
P 5.384605407715423 8.787810595595143 1.2545919421360312 0.15992184530103423 -0.29996649206216724 -0.9334132916732312
P 8.670211439537885 8.420457154513311 3.9552949868873015 -1.719923004681967 0.4157183277142066 -0.0024713443586280017
P 2.7003997563125015 8.915491284015186 9.892874784890049 -0.8001054494152995 0.755700440937363 -1.8925144750308696
P 0.9489745477014042 6.769154573713122 9.093099427554437 0.2164184948361821 0.3212552262376145 0.5708404376337524
P 1.119284111126204 2.272454152756848 12.816459261270273 0.6287645636440461 0.41561394092585846 -1.686771971851295
