# total energy = -381166.4234359315 ev
CRYSTAL
PRIMVEC
9.29216399179272 0.00000000000000 0.00000000000000

0.00000000000000 9.29216399179272 0.00000000000000

0.00000000000000 0.00000000000000 13.60002126831901

PRIMCOORD
 96 1
Ni 0.6089851929580682 1.7010514038296065 12.128757712032906 0.7392029575029722 2.0987547437824694 -0.06533121710764232
Ni 5.162939994155113 6.764806840294321 0.26601142264210714 -0.614558190236677 -0.19257151301525546 -0.23519037612704657
Ni 5.400029556593795 6.656934109337996 4.637144757130605 0.3555596559464393 0.3886376694473307 -1.7159305956931223
Ni 4.033124367355409 1.6488108582669856 10.032911998133939 0.326566868258515 0.2634928226161656 0.6017756937600282
Ni 2.7339218844438204 6.879946043436697 8.462517711194408 0.258534964390258 -1.3407886467393813 0.47529464461594273
Ni 5.36526757136616 2.461336255827762 0.838860319328657 0.002614554804711626 0.6051034725816805 0.3640998322069665
Ni 5.229955080351773 1.0038324683617792 12.490654044957143 -0.7499694519908569 -3.1609337668689044 -0.1739425850601585
Ni 6.146023060481792 4.2947080738892645 5.312929458082371 -1.1575875191954321 -1.209908697196652 0.045715756869559976
Ni 2.2000777750311338 2.9772743653651075 5.005990699451191 -0.6587683090949881 -1.1609422946002779 -0.9088764828741315
Ni 7.527712082518137 7.133464151687316 0.6004066672264048 -0.5091100505034909 -0.6401722912603555 0.032390500515563574
Ni 1.606661602722331 6.211161129566454 2.3093926498279647 0.1394779756243856 -0.7270629797063286 0.1361615096566429
Ni 6.821489040211075 1.4046034982649869 4.702070964877873 1.181489008403378 0.6908099109115652 0.15911323335680985
Ni 5.429866694943417 4.417048704070244 7.723370673683241 0.19304305333503527 0.4689417058147214 -1.0916194398347394
Ni 8.96194829152649 3.3126006847742673 9.523823142622598 0.49746141052096915 -0.214948595158875 -0.971029045143476
Ni 1.3978852637502635 8.973005966592217 11.414402167862377 0.933576813834289 -1.3720226650529983 -0.8060722085216956
Ni 0.6455405658224137 1.075214871601205 4.002092256725574 0.6226795337922308 0.4876356826797989 -2.658162514099248
Ni 3.6719751244104035 4.652456384839264 3.7317367474505034 1.0595112464462848 0.36014830375838625 -0.9068692226361156
Ni 1.6999363441591129 5.099037782871914 6.668743520464914 0.360377903270689 -0.5902239843666868 0.007194203755594062
Ni 2.187942208950596 6.1274294404763125 12.301368949025303 2.3207337634255647 2.471338959311363 -0.24686626980307805
Ni 3.087925453333747 1.5988468928649557 1.3287181123895513 -0.37839156623929027 1.197590541950931 -0.6055819548799958
Ni 6.758516045319954 3.2705350587049 3.029473096190085 -2.300933955090818 0.5335365589769714 0.22652138759813892
Ni 8.906139555018289 2.8707211216855324 3.010147253667648 1.3427812516893778 0.31319841737140897 -0.1350443653330642
Ni 4.31528092480987 8.93165583714475 1.1715021325811035 -0.10908265116197986 -1.0698036295112285 -0.5926328509184955
Ni 7.814858531998056 7.960968517488388 4.613045530002064 -0.2972004992812559 0.30768828618645716 1.3061355754418862
P 7.508811821103272 2.2152704630416076 1.3072123282113 1.05010820796483 0.24649397406532386 -0.10544402596812807
Ni -0.0035449605357772726 6.120832004092559 8.05303527761547 0.13115711446351605 -1.4458930299799033 0.7015072427244112
P 3.1253914582623286 3.76315912896501 7.984953451000704 0.31606648294782336 0.26855661029231814 1.3312125730151718
Ni 8.365921021155948 7.873668637452669 6.94425246385045 2.5361775530533035 0.7105575258521376 0.7146417232238402
P 2.930887883072578 7.1415947951179986 0.8382173015853391 -0.041046119308032536 0.7660797272891581 0.18015462740814137
P 2.800713958706382 1.6435979543074286 12.175609731737868 1.4441624204420418 0.3883365932671441 -0.5711589973154357
P 5.3720694353561695 9.118130982706946 4.88952085843536 2.0494903503297026 -0.3167766216409706 -1.716431703699257
Ni 5.719605658157234 5.590286612871749 2.270210382223215 -0.10031853181610464 -0.43233973832097156 -0.07062023342072354
Ni 8.436104735249593 3.6827540345585077 5.438376458662066 0.32264670726850236 -0.4618925122774239 0.1594952992865769
Ni 4.668095096717936 4.124206158106887 9.863618992877653 -0.022472470070903233 0.014792327817826138 0.26050082986737716
Ni 1.2269280319357674 2.7811074928335375 7.406707665508966 -0.48911792365228024 -0.13193153073569536 -0.10328327087138342
Ni 8.865412000553514 0.8831068162702315 5.853503881822879 -0.8972309282154032 -0.24464792199552057 2.1038254734371575
Ni 8.7839290151322 7.132098203590962 11.563023825260498 0.6863518751402116 0.141432271137279 0.7739043655398994
Ni 2.741820223776483 6.3143413177427865 4.8695966005564255 -0.4168619544003466 0.05699055845243088 -0.03378172443613536
Ni 7.397612495463307 5.4625379432888765 3.7707006492031145 1.9335647081039602 0.9505507226844664 0.7265320469035229
Ni 3.5839690399167035 7.5327205588714365 3.0974861607918367 0.5765716836905747 0.11415698036109373 -0.38789873439877715
Ni 1.9054046727753828 0.7646075666541023 5.750075592869861 -0.44146715454353647 0.7096776943503454 1.9581825066526406
Ni 3.324615452723835 0.45903289768649347 7.760022685052363 -0.37354940765564054 0.015480355023786245 -0.5247367012971544
Ni 2.285119659234105 0.02092688236598688 13.54987803166708 -0.5425235929669302 -1.1930430317895646 -1.0974663855338196
Ni 2.2093513546240713 3.747808474167883 10.036992187311553 -0.14774612917044877 0.5782958654705331 0.1618062068079407
Ni 0.5267950738623839 7.3260349567815455 0.36526567156191037 1.118365597580332 0.4646438497703159 -0.08574500487730395
Ni 8.38215443152555 0.26040917701426936 10.720475446071683 0.22388420708560797 -0.1424224029646902 -0.645649769435159
Ni 5.608926693696833 8.37894863497288 10.104965295608444 1.517607267795754 0.4489858315180848 0.6628761606157746
Ni 6.302884079628466 7.833805254232526 2.812389562672841 -0.33627355402331766 0.25669251186488046 -0.8461289673332654
Ni 3.906509341770871 3.898806137880545 6.0416190943170935 0.12432363648145042 1.4594802817460348 0.38055694932172524
Ni 6.7205296792118085 9.223606335371711 6.695739115087562 -3.1797398438318143 -0.17735135363139135 -1.64229780069832
Ni 0.43561385695695365 5.329056008566883 12.964914011660616 -3.4540277001809545 2.4831565207715816 -1.1025430287257787
Ni 7.7965529690741215 7.495468273713033 9.56836327194407 -0.8512765729724759 0.3227073853031087 -1.5389361111805173
Ni 1.7176193321003559 3.797066235111934 2.133898054370952 0.9911440707257962 -0.7443819306007503 -0.3345653130829593
Ni 0.30428770426458085 3.6093645239121934 0.2998506959924088 -1.0471282994009 -6.116640279631756 1.3204507065129774
Ni 1.5227719468455363 1.497153450915948 9.529697648653316 0.0021964934306865397 -0.6700788490118008 1.1091024271108512
Ni 6.642587008244313 0.24207480838217985 0.8889543750255778 0.6298675669002378 -0.7509261594771713 -1.8883575154397025
P 6.588850424290447 1.368782206350383 10.701135665303365 -1.2653234265215305 0.701884680668488 -1.1094649526565925
Ni 1.0848787220788154 8.069305856640755 4.321229768151953 -0.09915742162846794 -0.6593817743092709 0.45839092688206856
P 8.106539557471317 3.804379168117587 7.556334735043314 -0.5102405645635083 0.730558908674729 0.5019312733668646
Ni 6.267945543286336 4.5920944880098835 13.475662447648206 0.36264561625894315 0.08186700997913643 0.06019312455012859
P 3.6500177410656023 2.7551266025110386 2.92709203411094 0.6176334867278912 0.4041159675885879 0.16568317326484366
P 0.15588720036777637 3.7871422040445415 11.550824143248908 0.22408038225681406 -0.328742278643279 0.07788025741724652
P 4.140067881919657 5.242146399415835 12.478876227187556 1.726949315401129 -0.5794852577929439 -0.7615638416966756
Ni 8.092610603754068 0.4656024575784844 2.6831076860430394 0.08982688825616143 -0.01398782963865978 0.696150349287872
Ni 1.8787454544866675 7.475945437315477 6.630105773665923 -2.1599590832059317 1.5382172307366218 -0.7198934585410828
Ni 7.307859484152501 3.8569170629256724 11.237901231052746 -0.855189791983953 0.5814212984733922 -0.3919523356428604
Ni 0.9685872906102636 4.659843655156283 4.15102520161504 0.056043364047813155 -0.7523595494895882 -1.4560429739297116
Ni 7.407973258234977 1.9935687240557365 12.632665256942019 0.5217565356229079 0.6123660676813648 1.0629015030747566
Ni 5.546074496936682 0.8249536668048187 2.7138573148896823 -0.9139924639444582 1.2549729365251419 2.360813147944954
Ni 5.210906144314175 1.874712655345049 7.583739184878476 -1.0949289638239466 -0.45086196549487517 -1.3879704466315064
Ni 8.691583490087497 7.389927875900823 2.620057566191376 0.7747458876045883 -0.6255321727496775 -0.9950351782500864
Ni 4.4582315745671375 6.399977900436688 6.535748495132369 -0.8330883320992233 0.040297414067466085 2.754483494720185
Ni 4.06962398723623 7.9154647907683335 12.031136096313984 0.044524050554303966 0.6999573817387881 0.3688316904649971
Ni 8.362408583193893 4.907405486333684 1.5071137214226313 -0.96285936484849 1.2473591287336259 1.2499415447488214
Ni 2.46429116395457 3.8226289780579976 13.06520061999202 -0.1579012153265797 -1.8489188498281062 -1.3523221013002773
Ni 1.5200865114724311 8.595790572228184 2.0675975355798 0.5980005429883121 1.0204430768002297 0.8447326012063711
Ni 7.003931386631654 6.13658222193828 6.46389962526412 0.12822425708743726 -0.5979779172804927 0.3766257325881191
Ni 8.800301807960613 9.231402460901245 12.9749095923902 -1.0651859282335592 -1.2079996530993968 1.5532903230196604
Ni 0.705371880091919 8.226966001884614 9.177607336314678 0.21572069743820912 0.37326427231505394 -0.2903227983248161
Ni 3.5242575945617767 8.651292667326999 5.48826144067077 0.4943686305282582 -2.0398679967485904 0.20363574124921704
Ni 3.490703590643843 8.63903630311549 9.69962995478735 -1.7282153265977462 -0.20052316376216434 0.9806254305826595
Ni 4.530775498296661 1.892572194400787 5.192882133957039 0.11258372233670288 -0.13555498642089558 0.06973500260229282
Ni 6.325807848021029 6.2202674502088176 11.165005134310626 -0.47203551424869666 0.29478031987553754 1.2670836037457467
Ni 4.872727130581336 3.100525627610323 12.055997280884029 -0.7330389947841053 2.0538473417468173 -0.27154911726173875
Ni 3.9137293531373167 4.622089593146159 1.0251236035534605 0.33799156515568884 0.34987263286399095 1.22164192647318
Ni 7.050670971153174 5.332252512955631 9.143226329807796 0.5064720986600116 -0.9791262203293138 -0.6663497209866718
Ni 7.701837942229619 0.7701800773573936 8.396707818658273 1.7096043963647782 0.31514140003039276 1.5530234425115188
Ni 3.701171103449492 6.206626553573114 10.391504037567945 0.6739133922665427 -0.36754742443593474 0.9530187246089844
P 5.391499350114519 7.855455996167942 7.995942364053419 -0.1896869923786088 0.09574299663028027 -0.22211297411779812
Ni 6.537882905184972 2.78841113367527 8.97789085716537 1.4899478542072726 0.6551870195016329 1.7303331442716976
P 0.20349374378310453 6.1113632890572855 5.227630180938793 -1.5317401076527106 2.977949383321452 1.7391556276593338
Ni 0.6333436714599987 1.3338065013525702 1.2609243428563304 -0.5016445953643812 0.33684973824176184 -0.20063294986715124
P 1.4172501333611673 6.487240611816726 10.311685278704843 -0.14728744436647537 0.22120768869470933 -0.7342044758471162
P 0.9034259911157994 0.5619083028862244 7.768644883954453 -0.5495401334940794 -0.05206329635414259 -1.7146319314863567
P 6.5670417155683785 8.32348370852975 12.680088744728108 -0.5901113700482223 -0.7664111424866478 -1.0649033639961338
Ni 3.182064366015161 0.8062225227733121 3.654570901386784 -1.19482120673591 -1.057203424248715 -1.0021051977229902
