# total energy = -340898.1429435043 ev
CRYSTAL
PRIMVEC
8.97670146880010 0.00000000000000 0.00000000000000

0.00000000000000 8.97670146880010 0.00000000000000

0.00000000000000 0.00000000000000 13.13830997848292

PRIMCOORD
 96 1
Ni 6.269732124214514 1.9403588647775962 11.292469381055922 0.2829326765083321 -0.08184181316815582 0.09571060073044807
Ni 4.574410274226462 0.14873047512695797 5.8439600012310375 -0.35515059343347866 -0.00211627501205442 -0.052361801431167886
Ni 2.798172438917205 1.6332030771432826 4.818396117296336 -0.1871796525757228 -0.45749592587162496 -0.37540677257935345
Ni 3.241415017928208 4.1369397141373065 4.794786495264685 0.29559715934987796 0.18419897268084406 0.19700769440973812
Ni 5.164825870692664 4.507695430327283 2.8391358198597674 -0.09764689852121247 -0.02997931997090966 -0.24029632989504424
Ni 7.184018126094937 6.061436747756419 2.608387918164775 0.02693024873194072 0.058997818690446784 -0.6893068440034774
Ni 4.906368687492292 4.334283515036063 11.586307334673977 0.5974858081354226 0.06513735592928137 -1.078563892202362
Ni 5.596452598249748 7.7958611085120735 12.254022203516419 -0.3411097990696964 0.5552109586266115 0.567314683868681
Ni 1.9260500029402319 6.435145798666905 0.36334903996537804 0.05436494790412572 0.26018998349517775 -0.15837249853604335
Ni 2.656538046150621 1.563014249849461 0.384790788638357 -0.031959840736048184 -0.053017175626979655 -0.29478777607470524
Ni 0.5825457224556524 0.24994098669779577 4.604504665261445 -0.015981205919604734 -0.577641776826302 0.6605979061045592
Ni 8.666331831453867 2.2958452120934463 1.3808096556562977 -0.2912453101390855 0.8244476257050898 0.6388769694876998
Ni 6.724716228497331 0.817484845977411 4.699770805245895 0.15726615284574208 -1.0422917972442047 0.37667201244502224
Ni 0.7514836498298442 7.318776365682462 2.5741229517159647 0.4669604137186345 0.42003032482599917 -0.6771020744071694
Ni 7.623499467270396 3.8637248340356622 3.834941041387288 -0.13617693627561064 -0.34094216314358056 -0.708446907267038
Ni 7.544486542620158 3.8144247906160857 12.435896455102549 0.12038213533519912 -0.3597495256580708 0.5370204037605137
Ni 8.04360011038634 8.732974861742822 6.90856984271529 -1.6857155055623225 0.6879300182606088 -0.4793719000091099
Ni 6.97297587904573 0.6871251900161782 0.5271801219824328 -1.0788562266318 0.03471991997968859 -0.5429321412592585
Ni 1.6683827694523359 6.446312815056919 9.323298895855988 1.0303559650385674 0.6927143270231295 -0.7379055788477872
Ni 0.08989089125909598 5.032213062710618 1.2624285098806227 -0.31727053055825355 -0.4318340023291466 0.07589639421799832
Ni 6.31762282553342 1.8956279623085959 6.814552361878631 0.333049133548749 -0.02619722722065811 1.2562019238362367
Ni 3.4336331223971426 4.214184228635751 0.420300823554446 -0.41661255739370184 0.6129939310733508 0.15426490412557306
Ni 6.237101815068454 5.693742086702291 4.804772177766494 -0.9138304844452971 0.5978599036453897 0.26368308425010073
Ni 5.164377035628757 2.827840436641477 8.895542024219914 0.6358800916429049 -0.4563512707442205 0.9307743113884873
P 0.06494104772661767 5.769577259100066 12.114966817027048 0.3467178892850932 -0.5207054686505743 1.087169888703818
P 4.048240928807949 6.101248417924995 12.480093243845499 -1.2445381143450631 0.8368999925358296 0.188715629604275
P 2.403861858573374 8.407201395657633 1.3205580366773833 0.4570177006836259 0.042564869945404114 0.6509837800535627
P 6.297847152617666 7.734514331977225 5.795676120396147 1.0377070060870002 -0.2129544475469816 -0.23014869993808104
P 4.627875507039098 1.0503458631532787 12.473406499063408 0.4876855620811279 -0.15364655381528378 -0.07399043544453708
P 3.906525745729861 6.07295385549628 8.169112347657375 0.36195501794982177 0.18786665134041838 0.5363465176219409
P 4.61619681867623 1.0830300325070075 3.7701301558292033 0.24037860519620538 -0.5547674433312897 -0.7648972769452825
P 0.09105786242525493 5.545644469015443 3.5962972332480385 1.0328676757168276 -0.3565384749199408 -0.052417337259451656
Ni 1.484162905822229 1.1112258512216633 2.611515400890081 0.23855954970959564 0.08605996501456147 -0.7311824011913407
Ni 1.8320370104542112 6.392856558945561 4.788900472236605 0.21240885945615678 0.4642658976056069 0.16155166759497339
Ni 5.988644677091935 5.612440103226125 9.108474764558297 -0.743691332291629 -0.6643542878231977 0.34762214626691745
Ni 8.713549280176915 2.197083544631287 10.167961602623114 -1.196764703615526 1.0578575128929457 -0.4628042254584159
Ni 2.313870428259963 5.020318933517075 7.157225365790055 0.10257056107507496 1.205598242746756 -0.9002342338181013
Ni 0.5925906511858975 9.030830786852976 9.001436578517687 0.129585399101022 -0.23749485589050712 0.4394737782625915
Ni 1.4325468734728908 1.1244305788018158 11.275520471372653 0.7151675138203233 -0.17170006888288494 0.8146380958138356
Ni 4.095934142698737 6.709051884766967 1.6907562997179866 -0.02187186037242685 0.6280935057189505 0.17369318805351375
Ni 5.673589392332854 7.689397431353265 7.930349149391126 -1.1288333298808753 1.1233640792361879 0.07805174999810428
Ni 5.265723993059023 2.87081190565996 4.886833590170791 -0.3217838450475748 0.525761800127559 -0.13880820325087062
Ni 0.8209687037434593 7.432780471914912 6.923889481116574 0.8913348744459424 -1.7229939302978068 0.27683504825102645
Ni 5.047428571377075 4.547893098650819 7.061276098838339 0.3558622747885226 -0.12262233751962752 -0.5561920915929582
Ni 8.182290145133692 7.04995109250583 9.251143273312124 0.05648456535028981 0.3668748238489423 -0.10175886380705701
Ni 4.70755270758392 0.23703249025982218 10.265998850292126 -0.5489022427997643 0.2576083388109305 -0.4760952861403672
Ni 8.239642289599766 7.2705625031175405 4.727938796186589 -0.3717817742322565 -0.165749764836721 0.3091787546890546
Ni 7.232582080009706 6.058537273243578 7.0894979499867015 1.0696573337413515 -0.41459218452956337 -0.9090970835253699
Ni 2.3269135752171084 5.259601882787328 2.6950615596857834 -0.008594426537230361 -0.3573013212278943 -0.6737164457643882
Ni 2.329256494250705 5.25111890007948 11.329150875488809 -0.8784942710378484 -0.4910498505676705 0.5968944544083269
Ni 1.1425814687862266 3.32752851328946 3.7722055691647105 -0.7413133189777557 0.0801788236434361 -0.11041731081300339
Ni 3.7586974290813573 2.6735040115663167 2.395009035772867 -0.50554907262511 -0.41179893805514245 0.7334593701509755
Ni 1.0578234553179742 3.363183970766255 8.169006422582292 -0.8703204769778042 -0.8379454030812085 0.6402903048954586
Ni 3.6318925468262697 2.6834142897773896 7.02573733847816 0.050899357953028475 -0.736595601787112 -0.33666744702762663
Ni 4.004380766362928 6.656592042497483 6.0201178894432426 0.302177383670557 0.6381028103258365 0.33488464409559104
Ni 0.92219447570647 7.635043505114092 11.375792019989797 -0.2804459055307364 -0.571987406754002 0.008737122762681727
P 0.22356294999196447 5.46393853398176 8.054414342416123 -0.3541753740044029 0.3161824397003974 -1.0698159708064028
P 8.488566216042747 1.6464437115285477 7.888096714145021 -0.6293134941689806 0.24578075004838315 0.6088881364350933
P 1.7355464484154226 3.243820773870751 10.377727362750568 -0.9952082134928408 -0.048345224072607065 0.3144477163974778
P 4.092729460342439 5.952199269902664 4.037034414932311 -0.36632512199305944 0.7761093436110182 -1.9843954176025826
P 6.7056138081774375 3.8283566309997683 10.312613962359409 -0.04606876933360453 0.16188925344005023 -0.39357213063447055
P 6.315944182394408 7.655743778261496 10.131423735410674 -0.5774579429502701 -0.37360982857993075 -0.13978059446646893
P 2.3421290838835658 8.39153705192727 5.623078391910855 0.10978661920753996 0.2622144701243742 0.48267345357851715
P 6.85727517627171 3.971409342568299 1.5190248229060357 1.1201442867473097 0.18704518388038754 0.3161870676860877
Ni 5.360760329490752 2.8469877404677617 0.4415890706355686 -0.11827254519136407 -0.6414141340872567 -0.391043707785662
Ni 1.4379149408372218 1.1114771988574514 6.90162008058575 0.2956858624089424 -0.05048643878532596 -0.013761315450150495
Ni 6.9208840815286505 0.690863986098526 9.126237861047493 -0.7278281400071271 0.06227803210361532 -0.912804614283944
Ni 2.758531326072913 1.6517130351788194 9.090357088368616 0.10053244759912364 -1.109064117673748 -0.06026717232117363
Ni 6.192263192184115 2.0665712847483255 2.639643894345151 1.2758850040874608 0.062469322178815 -0.5951008528430138
Ni 4.043115232378128 6.765308871677107 10.27482833366931 0.19684365802804807 0.28925527629225023 -0.026151718694703344
Ni 7.873832735814047 7.297950418717163 0.18989493417815098 0.5442804277570369 -0.9277136701852926 -0.2220355839126434
Ni 7.537879690479443 3.7733025220609 8.231242790213804 -0.04160893379003802 -0.5076337230682806 -0.7474795956894675
Ni 3.1802657288214786 8.364032439211032 12.198145828740474 -0.20414147724104198 -0.43612517350533275 0.6027768813310328
Ni -0.13920709274097315 4.773953366938364 10.1346293154371 0.3982582232562302 -0.5723725580075626 0.890248326249983
Ni 8.551412101691046 2.3039152665424996 5.732165958853266 0.09516706952215223 0.7886547843761965 0.28747067358800166
Ni 3.5539119428230177 2.534679326299792 11.242779748800872 0.39585012803536984 -0.44507698338198187 0.5057236505297613
Ni 0.9357941781428608 3.3877891089696526 12.680452318703583 0.870147955955682 0.1155939699179364 -1.1253330300371007
Ni 3.046952738139736 8.276662205670839 7.772689549502796 0.20143384850189178 -0.24739720260588363 0.8250868019509854
Ni 5.567511713329006 7.85029582506275 3.562833886223367 -0.46165725633816623 0.05470124819762192 0.5702693956216307
Ni 3.0756512521259682 8.295279884121713 3.5094530344027453 0.20332643753891433 -0.1879350426845086 0.11025713108605527
Ni 3.307447632530248 4.2497678725023205 9.327240565387221 0.7017563826207398 0.438888852293399 -0.45024747183932784
Ni 6.872885659794405 5.857288607288829 11.339123092938701 0.7648635954938698 0.6355167947662153 0.06911819495390031
Ni 0.5791866408373703 8.933675948919605 0.3086988825840266 0.11311594069108906 0.0272781189896627 0.5555007219528885
Ni 4.6129652062160975 0.33867567883226657 1.437712067388336 -0.3705741270774005 -0.4428529791474695 0.4586084422095134
Ni 5.826184337360053 5.565043120477515 0.39820108267777893 0.8467923119488772 0.22640851616935848 0.7142959098486473
Ni 7.7922434978969815 8.834914281457445 11.18026779644012 0.6939880515292306 -0.11992730718596765 0.7091773576751593
Ni 0.24919502282158185 4.836565858353431 5.708779856683441 -1.0506609951445067 -0.19464613615609705 0.9268312675803392
Ni 7.862414371788247 8.738073628068808 2.6452283002102854 -0.09626467346170518 0.5579316999918842 -0.010658508155110677
P 8.348475815896004 1.7501335879924094 3.5752495617611704 0.2150038738768426 -0.21911815315553232 -0.9191637237327526
P 1.8436079784017412 3.306298614766645 1.5970925009116859 -0.9417436659157975 -0.12946944234844798 0.02620905429520002
P 4.693261799149112 0.8079111940642685 7.979184199684494 0.5036336007699521 1.4620097330361077 0.6178954821400262
P 8.477623617184687 1.548705388012097 12.397926804036247 -0.02669859233710886 1.084176867513765 -0.5617269053682584
P 6.2216798422726 7.737997292073146 1.465000341603771 -0.19778133935096906 -0.40153020913928267 -0.2310215894613376
P 1.741919906322906 3.1775009048278102 6.070857795747833 -0.20570959305911024 -0.48022036405233415 -1.0470881901915838
P 6.88618015438734 3.9769928507633057 5.9375959722633755 0.4331956585633636 -0.2934446317832495 0.9476695444819291
P 2.473682641114792 8.50753398584347 10.06657245469684 -0.02682483350232799 0.14272759290993484 -0.21715254478872922
