# total energy = -340871.2540027006 ev
CRYSTAL
PRIMVEC
9.21858105366889 0.00000000000000 0.00000000000000

0.00000000000000 9.21858105366889 0.00000000000000

0.00000000000000 0.00000000000000 13.49232520049492

PRIMCOORD
 96 1
Ni 1.9514352706368325 7.919581336495858 1.944918655889386 -1.3089859004064874 0.5468990963268066 -0.5657661084346386
Ni 5.20630411373219 6.810724348383562 12.876548652382342 -0.42250089785367884 -1.1907539786450718 -0.09336164088229727
Ni 5.771993104200852 8.92790970129382 8.014885790086923 -0.8316462003360582 -0.6259690031767801 0.5551533659157988
Ni 4.243838188272954 5.038046577488888 3.5695026922624855 -2.9736055045304597 2.0006311627351545 -2.5854170068054056
Ni 6.15688728857683 0.928670608350539 2.576952850313199 2.036159437548751 0.18631524769289848 -0.5737221300569215
Ni 1.1604902590140458 7.356104805412382 11.746080545367176 -0.2836325307888341 -0.8163468509748264 0.6017715799949701
Ni 1.0817635792245541 6.0506800195071895 3.4456833246286966 0.3625885377687627 -0.32238445474605126 1.0216496955138212
Ni 3.3919307020075555 4.903777948550487 10.370497750499698 0.17273622345688316 -1.1438570569832172 -1.3883152315654348
Ni 4.895186231271352 2.330448000480528 11.07796759137754 0.02125556694466662 0.47215044256000627 0.3805178685536737
Ni 2.366953580336077 5.301836266268315 12.364056404114294 -2.023178709018367 0.7522199385879303 1.063652008087536
Ni 2.7777980695841187 2.8793868296871867 5.859406452651426 -2.236156296493801 0.15859515606981076 -1.3902872676901412
Ni 6.379128833818641 1.771350295263563 9.10421598040881 0.6599471598944376 1.1405691302605647 -0.021221114162305387
Ni 7.473088595404027 7.060188362643918 10.554627839115547 -0.2873819705289373 0.22704126465735092 1.323328542281405
Ni 0.032702915287262505 1.4892064121678743 4.499879659913848 2.474967557202886 -1.0787670093521033 -0.1410196090798926
Ni 5.815726051381338 5.274650671572857 9.799624230205085 0.22987976254741055 1.2916144990075755 0.07240997833129464
Ni 8.083312549580304 1.2284772922046197 0.32568047450573945 0.3874130530116102 0.5806445682083677 -0.6064548444032523
Ni 7.1670501509483415 2.200807099089472 4.552566614597792 -1.844267981319656 1.302888529259498 -0.9909324689356225
Ni 6.1084252094605125 2.2022820720129284 0.3474095912424855 -2.9820549208493934 -0.37270274338462905 -1.2477985302638896
Ni 7.74559906159339 6.520219212528029 8.364823116176984 0.5657162290333095 -0.2285232485195161 0.8795777339100141
Ni 7.678773569580039 3.7595031731136914 0.13814504215286041 0.5284414038422512 -0.1127809259491735 0.15009483190828343
Ni 6.786968065735141 7.939899088516472 1.9856251430025544 -0.2164148952917563 0.7567018856186838 -0.6987397072816031
Ni -0.3821405942995007 0.2018758566011851 2.481238169877797 0.4654511761629596 -0.17178465817689123 -0.08412263878253255
Ni 6.911492654797958 5.770186262369617 1.1440387797690428 -2.5820177513158695 -0.3688514879593389 -0.4583778142559461
Ni 1.7659113326083173 6.25693654569104 8.791747575864932 0.8459397341405946 -1.1868222476908334 0.023779618918100983
P 6.018848260102844 4.802705428970629 11.878723938515543 1.512344219624602 -0.09882754909287497 0.25447699227080045
P 7.122727214598474 7.645365432863748 13.261821720428033 0.775928852169096 0.5282105187783677 -0.461590921876605
P 7.287398722921623 1.7820991604432523 11.713172977586785 0.9645796899737066 1.1681282708257559 1.144620674622119
P 3.7795535862919283 5.860214922185095 7.753539947070049 -0.5737673814725602 -0.1719612929640716 1.4704408945225966
P 4.160972365717012 1.4725023438097293 8.600952453351214 0.9053836392295246 -0.8022330372812635 -0.1191858010342528
P 4.2618052021968085 1.049867289754807 1.7848324696420328 -0.9637188846353081 0.787525812978076 0.3549158517148533
P 0.16453599518580617 7.020290345064419 7.018167305912718 0.9947814103680672 -0.33933213834398335 0.40372824523186596
P 0.5854444090622071 4.48612092811223 0.1883881510742524 1.0145084564833498 -0.25316264433475105 0.5466923796326392
Ni 7.533341239327226 9.12064256948573 4.573587744331279 -1.2471770946298069 -1.1111842493405444 -0.2739204457073927
Ni 0.7207759403635743 3.5501307666290383 2.6846083584220586 -1.5361762890471933 0.6554778112691744 -1.371697934723728
Ni 2.2881531519004126 0.9440840754006598 7.706491998244095 0.8095228860744574 -0.5029504586599983 0.19208480318682403
Ni 3.4715331469703496 3.4145530992210693 1.8313669435190087 -0.8040888595430797 -0.645223737641334 -0.28349626232128594
Ni 3.10641281834946 0.4695198340012192 5.42821839935661 -0.008917614204603996 -0.34645820786580334 -0.484456770731185
Ni 3.9552044243140565 5.1138694043353246 5.798447665441122 1.5037217680629136 -0.9816574713915996 -0.22234514473326225
Ni 6.040410520527624 6.433555334694187 4.683711988370774 0.3721417286748365 -0.5343030048293508 -0.5025308546240764
Ni 8.326812142081431 5.750633652553047 12.575143466622466 0.05413123462676484 0.7193311582797095 -1.2124499755612665
Ni 3.176298879178984 7.4240734014414125 4.237089265290064 -1.4542786829404373 -0.47481076300098873 -0.28164198272136654
Ni 0.32781918524475145 2.810459501257909 12.169442945444978 0.2627346042939024 0.8479004574113913 0.12285476524540777
Ni 4.817952961566861 2.6040093848778545 6.624946899383828 0.9488975033517594 -1.3770116336271574 -0.11984040389911618
Ni 4.4372347942804184 2.1277867207976024 4.001972128284554 0.8430256458175933 -0.5662795577359473 1.0203646581538104
Ni 4.9926911600926 9.263198702537801 -0.03453649100273439 1.9126171593180157 -1.5612784834314595 1.6289085238756076
Ni 4.454805409231095 7.408742901618236 6.300618790677282 2.152508283354841 1.437576539694408 -0.01093464463463278
Ni 4.293212906885661 4.1846180253961744 12.91450247127711 1.5217454583338437 0.4672979995637113 1.4958757896559334
Ni 9.499378741906277 3.5319793810897515 5.41629139955431 -0.16240475962388803 -0.24042051417773436 0.39955251658762153
Ni 8.661308345379055 -0.23139006479955002 11.796825145082543 -2.3143245174651113 -0.9435424096874332 1.2047258674441317
Ni 9.168404036463407 1.3309786918040762 10.193424485464512 -0.24718225838160013 0.04953435928470179 -1.056174211653252
Ni 7.289463685014462 1.0460968902192211 6.778746013544948 -0.2585848437915869 0.7211126756601645 -1.6684245796923587
Ni 2.267632591102824 2.0218099162472516 3.3371105677330624 0.17768354015982948 0.5288872331304182 -0.11118452799633109
Ni 9.048663890821052 5.978277286127018 1.5952247003316973 0.7254380425083958 0.5759667031167243 -0.2171566585537873
Ni 7.220683853877531 7.67309492382473 6.502112998034523 0.13081387219148438 1.2258526221204178 -0.918444843288857
Ni 8.31571297083242 5.519874138678275 5.728166127496496 -0.5574149082564658 1.1897000834592608 -0.8386722539449041
Ni 5.809826159687511 3.240450982768571 2.405263236448629 0.42054531678920476 2.134144693245989 0.17050681990573216
P 2.0068481596549397 4.275291985865664 4.202575820739257 1.3095620846249316 -0.03715706866627149 1.1603748521325823
P 2.011273078425309 8.927955794197679 10.540918887650095 -0.10111840200958068 0.042653573004468474 -2.13290336463972
P 0.7152530886233067 2.317044184038617 7.326643143124415 -0.7775447905059641 0.6611864316181775 -0.8560140876574612
P 2.7810061356926368 3.2257657835994067 11.773847832509324 -1.2110068153568367 -1.020477786692907 -0.5975323451026419
P 4.794888072476309 5.132619997624766 1.4932764155785372 -0.08957106349161348 0.6403245005675036 -0.9561595842308114
P 0.21476896366834938 8.910643299508608 0.4427057481108569 2.253706132452106 -1.2638918362813265 -0.16957659478197892
P 7.876761028811761 7.019073492402567 3.5146023563352795 0.9102841618549355 -1.217663401441406 0.9038150091908241
P 1.7762822359763708 9.319985160090878 3.6321881196513104 -0.8585869905909601 -2.4446069426331576 1.0221649445873429
Ni 0.2635712084151398 7.693984227853184 4.918235448774592 0.4853438013218287 0.08849659948051211 -0.9881903874141111
Ni 2.3306323720959603 3.5805428645945576 8.050627149596506 0.8217564520261719 0.46423787258114885 -0.339511344234325
Ni 0.38270384958464565 9.312610295473595 6.542455351207214 -0.5406495158726689 0.5674216417601905 0.7299338734962203
Ni 3.465522632307264 7.054122536496203 11.106787640443804 0.015556202567044179 1.0862473768895486 0.27623418144223394
Ni 2.3840909219904876 2.0491337896542836 9.958941586816088 1.333970081155651 -1.4629762107144353 0.7361137770546871
Ni -0.048953429471444695 4.7092935500119735 7.77055375974212 0.07315662668933208 -1.384000920460797 0.5446288122353911
Ni 3.546120683993391 8.18345399250223 8.873848256216831 -1.0261144161533942 0.5830398079134217 -0.14967034277635516
Ni 3.587475237334803 1.915805455954586 13.396030428591418 -0.8167795676368708 0.16990955264136545 -0.34605660155201046
Ni 6.02991977560954 5.701341901167284 7.109969620668653 -0.9666774530429998 -1.1508437727136953 0.1433811673335337
Ni 5.081991552027121 8.538664346793645 3.6878572852148683 -0.12542252597258402 -0.9317968391157309 0.2532755157635316
Ni 1.7965538950931264 5.291059745346311 6.36828317354085 -1.1379111238124273 0.7342466419389613 -0.9035717828317663
Ni 4.254365807514125 7.402806135601324 1.8174026373661842 0.2684499095111248 -1.071978268565044 -0.41829483019213126
Ni 2.3305494048690156 5.559910434969348 1.3532941102778961 0.3369494970444197 -0.15324983259749736 -0.3211228144248083
Ni 1.274173797089457 1.7966645180623857 0.822502979178216 -0.11571301199430395 0.7066142249336734 1.421296314477146
Ni 4.650469786108373 3.4995576325160234 8.88354896876279 0.35156673273696226 0.6186220758934056 -0.8786691060528157
Ni 6.257130135887245 0.17341441032693725 11.016347831925913 -1.1443877326757066 -2.044954153022246 -0.2801265745181047
Ni 9.578289793311201 7.984498582289488 9.346538360145404 -0.9624395037022522 1.4096571875763206 -0.20902734457843358
Ni 7.68022088676118 3.629972894691894 10.610000166378258 -0.1888560118368812 0.44100487019513723 -0.02029603124487472
Ni 7.680700252961303 4.635683182550721 3.30775123169166 -0.1943093216419686 0.17290025983857318 0.6755061906749592
Ni 2.3645198750123737 7.738666688853145 6.754460584360236 -2.5299994492670494 0.36541006637795775 0.14984877733574836
Ni 6.966628986392917 3.5305965939740114 6.437538683445596 0.7014725328317338 0.6657668519000083 -0.07138256550804481
Ni 0.9151036230289706 3.7305752666524 9.77686263242192 -1.611854396606798 1.2600670632185977 1.3746819570527162
Ni 1.4736546664061796 0.7310214710331341 12.298524278983198 0.924413402167466 -0.07004842007765355 0.20861056875598913
Ni 3.7663802343693074 0.26485351300046983 11.675906864817577 -0.23474840349362153 -0.5360582969575607 -1.5783452091057593
P 5.579020552908881 3.9945401084664875 4.547062200019068 3.2277299985578476 -1.2627065577239736 2.4255512115532873
P 5.3613514237297855 0.44040571220834185 5.377258084851187 0.8466825258438903 1.0689762485139267 1.941122722956876
P 7.132001106854707 4.135234088202696 8.479116924299475 -0.23436839444638347 -0.34735423731751147 0.09868999507374615
P 5.252498421978694 7.49259511231674 9.930674652596123 1.5750534257283648 0.30952431095393146 0.613498381513595
P 7.926347774782215 0.22547634523456656 8.595743955215259 0.4558393641048085 -0.5114932060236869 0.8044464999928146
P 7.835618502828096 2.37599700807302 2.1642766290658395 0.672744568769422 0.5618009531393034 0.4770789902098751
P 3.0661644947006397 7.668282824661954 13.384521030498073 0.05861086766467326 -0.4395542537915398 -0.46759573330978826
P 0.2387188365129746 5.711104378204412 10.461071228438778 -0.3884602633292019 0.8499678814633814 0.24179348326586095
