# total energy = -340853.7750095987 ev
CRYSTAL
PRIMVEC
9.43485009760838 0.00000000000000 0.00000000000000

0.00000000000000 9.43485009760838 0.00000000000000

0.00000000000000 0.00000000000000 13.80885680711402

PRIMCOORD
 96 1
Ni 6.900828702006967 6.93845488462405 7.398578376840995 0.862779688516069 -0.6359297139339177 -0.7481753362049115
Ni 4.62214255022349 0.49951493530736285 4.620470694767184 -1.9705785663241482 -1.861015375981324 -0.7615898098386045
Ni 5.118679846806192 7.397394303140283 10.655798130654103 0.23481448084486656 -0.499392566105411 -1.4245960682743402
Ni 4.220302845147223 8.278080960665092 12.75800257890014 -1.4072411219356602 -0.2017513797423106 0.9841198168891632
Ni 1.6216148789646527 8.685477792512037 0.40084998928977533 0.26121456810495014 -0.25546712409821165 0.3952281781806548
Ni 0.46011500085176205 9.016688208954532 3.0231864075108894 -0.5232696298333246 0.7451938849790845 -0.05488636762523451
Ni 6.360372177720524 6.615556571212056 -0.10265400068421303 -0.5566363782192284 -0.5286177815191153 -0.09184751823061602
Ni 3.0056224903694755 9.000431962051517 10.436775631027857 1.6403095666236975 -1.5470276299394004 -0.191590894269541
Ni 9.089251641880306 3.284695924579776 1.3056398586330047 -2.457044139955246 1.2111176299030884 -0.14903785139867884
Ni 8.806309919086003 2.1451641516839404 3.20038232920884 -1.1716684227685306 -1.863272547446617 -0.44581231888610967
Ni 7.524368517197628 3.9692131766446113 13.383889784821779 -0.12818311943685667 0.5811495328692443 0.10170229953750873
Ni 1.5201336301609072 6.5944508113037275 8.947587366053954 -0.32913951408169767 -1.5137285015666382 -0.4775248194980421
Ni 0.5588525952159272 3.0839506167704327 7.895117560393738 1.1514852629524361 1.2358698971471038 -0.877469686428076
Ni 2.4765632651305345 6.845880134413715 6.345777407938588 -0.8875856918161552 0.5727829060721038 0.7683340705409736
Ni 4.078563090519231 4.488950769881125 11.255074341572863 1.7237218096027669 -0.5066291930631661 1.565136423724969
Ni 2.5503154891821227 2.9234543799351296 5.967442745177751 -1.0829144558615738 3.735826777305476 0.9672348682083665
Ni 1.280111040948626 8.801309448477413 8.897101482607612 -0.034135765341444434 0.8331042729388232 0.8756745422008662
Ni 3.8894603878627163 6.698922907622422 0.7901677611741195 -0.38869191972403383 1.536081672450858 -2.00517738734494
Ni 3.8268601567533023 1.1797619741694665 11.927980123490546 0.909521058436666 0.7656529241643846 -0.11782774434446158
Ni 8.877873257890057 8.496384524705727 13.067860042358943 0.31864607074954154 0.14608365386636132 -0.6373564190781152
Ni 7.334001544613658 8.534916452942477 0.8574844739009553 -0.351850068305336 0.7699050145725193 0.8478924869915913
Ni 0.33400596255820425 6.017094587865979 1.4713196021708719 -0.6527344441960823 0.1791228437095173 -0.1803546592340894
Ni 4.820453666679974 2.532030749485055 9.527738192122388 2.0316445803975336 -0.8693897376334188 0.7618011545184622
Ni 7.560636081385207 9.040199855665108 3.9670224044270372 -0.36130658573254554 0.8036201474367773 0.8917791610722124
P 1.9308798338305866 1.4058775941797466 8.25777904999422 0.5573359753894144 -0.01999701194721717 -2.3345860959276243
P 8.651851986381825 4.87622306624105 9.217936394279796 -0.2761051120635374 0.4931419572100088 -0.963473344283405
P 9.268853450380501 0.7928321628719791 1.2426933685210717 1.3791330508455344 -0.6488515642019084 0.2747624819927139
P 3.1391633601694213 6.955390440741819 11.32239294126974 -0.9509320172832847 -0.7411701085316719 0.5727350835533039
P 3.45705176812262 0.6434030053270063 0.36448335917504515 -1.6389260560126095 -1.119843210567123 -0.3382751578343787
P 9.341322534804226 5.447135286988861 12.933223786450208 0.44659753379156636 0.34464892257120644 0.038416652104985446
P 9.230142259989858 2.239748524987915 11.435818710432871 -1.2864242130558878 -1.316482980114481 -0.07777972728364023
P 2.311764736601804 4.715689090004927 7.943779687295474 -0.9454722797202941 1.7654094191495402 -3.17474187639659
Ni 5.205310641387447 5.9396722070846915 2.3086748231597043 1.9486154317894955 -0.027753001743552202 1.037081456687859
Ni 8.219132016584968 4.2782705648060375 3.6016257517521586 0.3696698700955762 1.1515809079900363 0.2897975219489654
Ni 5.0751851873616705 7.525925267481434 4.300009403163114 0.7778540942162668 0.52125697027867 -1.1342187625625046
Ni 9.274844580260604 0.39470507135133354 7.4927966779570205 1.0521486354336267 1.8497233480072726 -2.280437120689047
Ni 7.740011453480485 1.324115182304211 13.780838463551834 0.4022891987924943 1.1848435266979078 -1.8042040234192347
Ni 3.6758836837747286 3.716878107914955 3.266209279088324 -0.37862245130317373 0.46598905094430065 -0.3201982457280098
Ni 8.401724672600112 2.5705626777218065 6.046152983012006 -1.7535553480244315 -0.9637062862298178 1.0517526855467885
Ni 5.876562494064213 4.388252613644385 3.9857883214845535 -1.0680192839172962 -0.898200491217524 1.1309182374343618
Ni 1.7301817002722673 1.3729122275638777 10.296007665970969 -1.5859651875448622 1.3706157574031426 0.401826914444095
Ni 1.508217414352137 1.0026509661233607 12.590032053732529 -0.7244142292295718 -0.06319103083618795 0.7940715845163937
Ni 2.7182369531286703 8.672259567374992 2.5883322745976876 0.33802550371741785 -0.2031711429079727 0.9437563254704521
Ni 5.4133207838545525 8.543473862078308 6.443032787335565 -0.7221416311453112 0.7224391077810719 -0.34458978719849687
Ni 5.492913180182965 2.785101736530692 12.594837222941877 0.6885817929119948 0.024630911174802744 -0.24618852700976313
Ni 8.528029012292912 2.246994489945267 9.399647835285805 -0.23485073339944068 -1.1659541459925726 -0.027036692402817954
Ni 7.378194382973341 0.05489950637218631 8.46529858025067 -2.1674409934052736 -0.20461018934734437 2.2869996043979133
Ni 5.805565246272452 3.6564667620530744 1.7833999163379433 0.6039459619384695 -0.42224558730976314 -1.0506962192578162
Ni 3.8169818685887873 5.798592891971041 4.884966341925917 -0.037846124313496106 -1.8060539321437798 -1.119533135525872
Ni 0.7020179557098765 3.2542874023694313 5.028163780910564 -0.5079872497529574 2.247779996775658 -1.4695564350351145
Ni 4.270911381646227 1.2054813758279839 2.308343659917513 -0.07677545438884197 2.41546760206504 0.34488032185572215
Ni 8.754880550619173 6.860107888522682 3.766628073045315 0.08112010451078286 -0.8162748600863102 0.15277829227771753
Ni 6.227180397378159 1.8211242213971564 4.989485612495637 3.397701257675084 1.5958891315267936 0.052913045948947586
Ni 8.805621175021045 7.359607728069717 9.213283126158748 -0.9367007041752514 0.2190299643171002 -1.6768295159266025
Ni 8.702186912224889 5.0631463185002366 6.655937730088964 0.5295937722791395 -0.1849728747323911 1.0346440508909602
Ni 2.484516843853253 1.5555237532794315 3.8630833771449185 -0.7093213394521912 0.733808268849962 -2.147053430887857
P 4.312585115001205 2.6183218894589357 5.027528815491774 0.7891003565540474 0.9086173156754738 -2.3214369601401765
P 1.5918762311188546 5.330303536901767 4.568646949561791 0.0857419195535104 0.4485130056467243 0.4500800930235281
P 0.6305989701139566 7.878901883346601 6.961058898744913 -0.02336849952261137 -0.8560493117707709 0.8717770069186729
P 4.955494677662496 0.12851115115572154 9.710126111888087 0.697569598232902 0.7932686289991242 0.9245265307065627
P 2.9866867460082704 8.444143759121276 4.853233166746806 0.5373487336342101 -0.6147404814508123 -0.3996391627641569
P 6.475166000163363 1.8042547092308214 2.5895889966449785 0.11298070066480542 -0.7463200281637277 0.5474793943103088
P 2.7830638088864372 4.479874443984025 1.2621546340386887 0.2652216323818142 0.12336950009829721 -0.7208280545402102
P 2.351334498361093 3.1445789641870254 11.37079277933578 0.24000322413465763 -0.6221540003060639 3.5930256508451275
Ni 1.253561372472079 4.08360130052864 2.8420146399366013 0.0720561945363017 0.4800596701047539 0.3651107899699841
Ni 4.657042061131361 4.623246427697461 13.632269764345546 0.39581927479743445 1.563744428473449 0.6301730139557986
Ni 6.644276255235727 1.4009903417736163 11.09311004204568 -0.757893849044256 -0.08289596546428304 -0.6537194338171709
Ni 4.925954161671 8.593271001459692 1.8660463736776765 1.6840931394675513 -2.444113805046823 0.082659938194077
Ni 2.869930474722816 3.55655169838334 9.449345908740039 -1.2001518749202043 -2.603591620831903 -0.8265003944690605
Ni 8.440181122035225 6.691809030567939 11.241252286022707 -0.6411739930519925 -0.7867274854464967 2.1062574799174176
Ni 6.304149905349614 8.697252485567734 12.087499853329643 2.429243058582578 0.7818729855676728 0.6752048573844565
Ni 0.6048739075453166 3.2871395507828414 13.1152107250822 1.0321567656927322 0.9447683116747343 -1.8140850299783724
Ni 8.536076939517677 0.17065002262580056 10.840270208830063 1.3872613363796236 -1.026500081627587 0.1181067090374611
Ni 2.118463525604115 0.776431562760827 5.852096983997925 -1.5344317955522606 -2.1781342114530617 2.0958396270182034
Ni 6.1717412175742545 3.8520795113509605 7.058120863712691 2.1253054976878043 -1.4362920165550297 -0.24894115005423578
Ni 1.972034650424296 5.984846269865681 13.634782264955108 -0.037412379210187176 -0.026282073624980543 -1.093068256466124
Ni 1.6432206859338399 2.3173879073239156 1.4049963791706104 -0.06636017259278894 -2.4344875948109688 0.7672259250784593
Ni 3.248315142189739 2.7873189263288407 13.765828560360882 0.7607063787923867 -0.017161085160318834 -1.7810396694876294
Ni 5.565816267716113 0.7380977663783782 0.2789526681276784 0.0547909796979508 0.4924379891644487 -0.8383801766257819
Ni 2.8698266913705623 6.118613576070545 2.681017412555419 -1.466294990675023 0.13255013815630076 1.1995312106170697
Ni 5.925708628781461 5.549314714707769 8.989095989530346 0.8510973670821342 -0.8447156319255066 0.9387948677001187
Ni 4.2116322178089325 2.2021412120712425 7.069112464201382 1.6695990596164343 -1.3772713150464475 2.7236102021800965
Ni 3.592479607963543 5.698272129742498 9.436103152992462 1.1932163241426355 2.1194477533554466 -0.9595848078622765
Ni 1.6962634137857049 5.239955411339786 11.180644695276564 -1.0491263036675351 0.5277477202093362 0.26119502772092434
Ni 1.1487590563962138 7.993554183036367 11.442377818295308 -0.26656297690105707 -0.38680370156238547 0.023897118332571746
Ni 4.456296753322017 5.1077920296697545 6.977187775170164 -2.367660766994406 1.3768242002066997 0.87392696338214
Ni 3.2952157825582233 9.170948009804407 7.532303226219937 0.8941869991827567 -0.6323867337776656 1.1860784275462737
Ni 7.137294352692006 3.717925376287697 10.390225967086996 -1.0444936899915302 1.425025699612591 0.8178563456408172
P 7.470637045280807 8.808819589240501 6.45609628092925 1.3624620179477567 -0.1447497655462862 -1.9641585217304172
P 0.2759967295584878 1.1520423842675138 4.734297445064023 0.21688103629489744 -1.684540254307299 1.2143230242142635
P 4.817726994970761 7.353644902740229 8.122714451886186 -0.43597013598470724 -1.2362619903791998 0.47673446238626277
P 7.667948067615572 5.4309828234380975 1.825806737553841 -0.3850779771205304 -1.3957896855656091 -0.538064271643996
P 6.100451489426141 1.7045943865166187 7.92679506995664 1.0048416228175467 0.9652268366394021 0.08049121267753234
P 7.127793458535686 5.354541667078118 5.318259950615231 0.2407655562219789 0.5877521257874264 0.9861748996459788
P 6.642068500287784 5.384469011928013 11.908841529849937 -0.9463428552507056 -0.2468909523934264 -0.6516445535660133
P 6.966542433683993 7.406291366883489 2.5988266584805815 -1.2823965799537331 0.8165674516260646 0.9074173818301018
