# total energy = -381160.7966667921 ev
CRYSTAL
PRIMVEC
9.37428720593167 0.00000000000000 0.00000000000000
0.00000000000000 9.37428720593167 0.00000000000000
0.00000000000000 0.00000000000000 13.72021689336149
PRIMCOORD
 96 1
Ni 2.1545392369572918 7.997260427192061 9.961645066025014 0.46742604050114334 0.6606974077969008 0.4452898707237364
Ni 4.070793474396593 3.0367533801036823 6.162188452010353 -0.07557706320536661 0.04392266952487919 -0.08562262036682672
Ni 8.876306061355523 2.079216841460732 11.937836619248497 0.8355653328848061 -3.332735651436976 -0.056786927082057036
Ni 5.43277424842269 3.7060962156040396 1.4077629165433463 -0.7954049586158366 -0.10932099242503109 -0.13238764443650747
Ni 8.422234350955726 0.8700341321359762 0.6304854787395865 1.2653031148065563 0.11677050672454084 0.6489420670331857
Ni 2.6705937325497775 0.27164996156545257 0.5752287444204238 0.2418387346814996 1.1327236660742168 -0.6704133495330842
Ni 3.4591681235349814 2.422512603188115 13.017412312312352 -0.5212538849548765 0.43686873653957664 -0.22684611792740933
Ni 4.945358199406681 1.978340139788239 10.727549618923181 0.4780020162447768 0.4993997651942625 0.18978212319557639
Ni 1.4942332140591357 2.335462974739943 6.101202153518508 -0.6579879792855378 -1.424697883959527 2.8209079448920065
Ni 5.34352166254556 9.474779287651899 1.0158202302123733 -0.03200174971757714 -0.22766218607080146 0.3493422142818177
Ni 7.276630867888135 5.092675118539031 11.322649976781516 0.19496212473461905 2.01579810028358 -0.31109422654421265
Ni 7.737648924904354 3.8694806625373985 0.855386808805127 -0.48652805143791694 -0.5145289075262172 -1.3899262848062968
Ni 6.824527757744004 6.135498919686985 9.414798850147829 -0.2473056713333418 1.0694524168193968 -1.2724361263069117
Ni 8.633521404110295 8.66930305732876 11.462692449254835 2.147971314716436 -0.1984642243506066 -0.5213857825470505
Ni 1.2983949857680799 3.8257308654269515 8.928581772430391 -0.1601265051126726 -0.7743409388566858 -1.1563384772796794
Ni 7.66590750701572 0.3740893568694672 2.987824289463447 0.11884564408601467 0.3625674547228401 -0.22841731906927112
Ni 8.819629122566202 3.6783202034252835 10.178054229559088 -0.29713956413633347 -0.07599229636591429 -0.21891297912326171
Ni 7.381135418603212 4.537679835032083 6.159705203402134 0.6099859974849624 -0.7732862723399263 0.12597788425542178
Ni 7.570795991806249 5.797096535737973 1.960948025243775 -0.15804776820677297 0.2950806247247757 1.3074113568305161
Ni 5.029248693158855 1.3650555401397086 3.113748148388866 0.8808293469289282 1.6580792319022926 -1.2515621110713802
Ni 8.948056853531089 4.176357319534958 12.529809714986401 0.11242508527165153 1.0477078260534536 1.2239096394614342
Ni 8.922286938755725 1.745735958150885 7.9471886109748455 -1.09531925728383 2.583928595185337 1.0471231571945774
Ni 7.747988763390067 7.951654521269129 1.4092721767393568 -2.9057404652573697 0.8242110842142516 -0.049511990687198595
Ni 5.257034491313292 0.9511901463901603 5.351981956501457 0.18657210089871093 0.19347834110024095 0.8619808467638574
P 6.922967144814244 7.401740101279185 11.797698529048475 -1.1189638932859634 -0.44836876675937615 -0.10536714998360563
Ni 1.7536103591735495 6.778059417423352 7.648485394753075 -0.04402062855532419 -0.28709580674708624 -1.5610581398905374
P 6.798814088690231 2.4255779950147947 6.628373615983349 -0.541503379232532 0.5078047014285061 0.49798128758018106
Ni 4.658533142156122 7.137263344073903 0.21207636811422195 -1.8325074983496181 0.5401556069553859 0.027413873236578595
P 7.102475365270202 3.0658980381744736 11.653855720653029 -1.4672972066872922 -1.5551595150179152 -0.5027632823498567
P 0.18335917752751857 8.100583817753739 3.070337700465347 -1.3214781193362275 2.4552096578496685 1.2345797175807705
P 8.946688207639053 3.0464463927911054 4.800730763195047 0.9911852083763767 -3.6320945918221317 1.990728816019778
Ni 1.8272735058831906 6.108097878985499 -0.08383143574450355 0.11970619231409706 -0.5675417122778226 -0.046067226671707755
Ni 0.1530408587328734 9.12850250268022 7.440171865413254 0.9343908250951521 -2.5766035222788335 0.06100507892846268
Ni 7.7266153891856915 7.260291485766106 6.848871843477049 -1.2720121513956157 0.11001056229288796 1.3762192196328493
Ni 5.218346809145986 4.1271610617171675 11.941966930070622 -0.5881740438161935 -0.04211724088502424 -0.720491754246714
Ni 2.480483193574017 2.750097060017895 1.5665192780185038 0.4101637164445646 -0.2592715854459664 0.6690504077472865
Ni 2.6945075385126556 7.639322029277294 1.7316698406098034 0.532651842379173 -1.2725857645108987 0.2827074478714034
Ni 9.482466202935928 7.128385894349541 9.343892681224814 -1.929473311643406 1.5193502186287897 0.2840865876071172
Ni 0.6410971715463204 4.263585059434832 6.691212273572905 -0.19477957641016777 0.6678404465995853 -1.2414340214984427
Ni 0.47715589196921543 0.9650640910491408 4.431149500911055 -1.9785839531271279 0.6624678694337623 1.6102803672514587
Ni 7.0773241534323335 6.329331050574648 4.609937776130656 -0.568230510814731 2.3514504757831305 0.5030466179182305
Ni 0.8315433099942371 2.4360022020828933 -0.09886216741086123 1.3913113380792812 -0.07531943866860577 1.6696779924834857
Ni 1.3838416111509229 8.178624756460504 4.944463892433392 0.45668294305202634 -0.9077567674473916 -0.13954610985815968
Ni 4.79266043957551 7.357709075560785 10.228133545205848 0.7970149834154339 0.7375960180271683 -0.430221149316072
Ni 4.084967396237389 3.6564593663004574 3.5474851555763243 -1.1943882329635496 -1.0563565028673871 -1.2293830038711795
Ni 1.7768867136250688 4.0786210039845985 12.057600634231067 1.673541846314266 0.12973863684943462 -1.357475620476759
Ni 5.558811536219983 7.097478870335582 2.5295828962364104 -0.7689092263181532 -0.23584857853633576 0.39067141204790784
Ni 2.0168965819385005 1.6521149545635616 8.480012768459527 -1.937358627928754 -2.670269581775427 -0.27832577386394003
Ni 2.471183900937727 8.097555923074786 12.445183339710086 -0.9234849768159257 0.9021916146547883 0.5278410512540909
Ni 0.866741882565548 6.154369359280586 3.0454630300919656 1.230845704459635 -1.1095598263632438 -0.48655736201395566
Ni 6.397632105159333 5.970117749637165 13.33816291396889 0.8361736558927663 -0.6085806324970036 0.6289972484801425
Ni -0.09638360594610823 6.343045632355789 5.692174829254433 1.6509680747788082 -0.31757417784160147 -0.5660101061246445
Ni 6.976513071768363 9.391535619698015 12.89707177868348 -0.27482264580668797 -0.8092462353743032 -0.5409269379037716
Ni 6.054130109119451 1.2834711209727443 8.276432316591544 -0.026066100959432528 -0.4060797761831781 0.7942343353465031
Ni 3.935363151093693 0.6454899624025354 7.535581482947154 -0.1206932388177147 1.3002904295150186 -1.9834723915676808
Ni 7.5796171958090195 1.1865503683854468 10.303210334384795 0.6949977237406676 3.3863233548554454 -1.127937300429167
P 0.4954320017713427 0.16925931255348303 9.699108786214602 -0.8890818167457074 -0.21152465707899054 -0.8758347219278142
Ni 5.0492252986104 4.834732239325175 5.07186982612272 -0.4830141247473875 2.510193727395032 1.9188394860786437
P 0.752585566025547 0.23786315660606228 12.873679183074005 -0.4798686371398703 -0.3790016890194634 2.5006945296553447
Ni 8.84935498642676 5.196785949202976 8.332040586670647 -0.8983110486534595 0.6714425621285468 -0.13495334828115468
P 3.5970732585878613 5.997556287486379 3.448356758416601 0.987382289690519 0.7423957534086569 0.5025992459681667
P 2.524026756371966 2.7437694163389676 10.26521916173652 1.2467983711341497 0.26564277907963285 1.9985722233235967
P 0.8934951600400511 4.496367352523889 1.3397749631421825 -0.5068911884753011 -0.3503557431479966 -0.3290947768866913
Ni 6.987959076112022 3.7003122805671538 8.6556597201283 -0.6267570462957142 -0.5293952831150882 -0.46951326204747523
Ni 3.0930647217026666 5.049234672897332 1.6201514484123951 0.41778780864872567 0.004378074463037621 0.05690236961399878
Ni 1.9682534070496829 0.8862272753818702 11.332034575428883 0.8043647389122858 0.6401892605412199 -1.1685897838432067
Ni 5.506896735191987 5.272398947594421 7.4014944949615735 0.09017655828609632 0.8134291631073992 0.1969058787245512
Ni 6.893353772396866 2.35189609973129 4.344781383122823 0.6720169465747781 -0.032540652940182664 0.5586135565502572
Ni 1.4682758135451375 0.7122826942199018 2.562977856002054 0.6740491465134586 -0.8477963277333593 -1.3861634753297547
Ni 3.6974999944876306 3.1272996175773944 8.500456213400273 1.7746941868855757 0.5285334493354252 -0.13694852433431254
Ni 7.499485791116475 0.3910821267906388 6.425506547350872 -1.4770830824294627 1.2223109275157464 1.7953949097680368
Ni 3.3755494841038285 6.307329599145846 11.486469390628507 -0.597296832053068 -2.194798045261988 1.4314318602492508
Ni 8.147399006690867 8.579544259957315 4.880376579824528 1.0616316352233974 -2.638647841105088 -1.9978885669930107
Ni 6.712851877526142 8.730010939498731 10.00751251455334 -1.3504032870110099 -2.1646042952874267 -0.51997321847024
Ni 1.556122256382507 3.1703650917418242 4.058233804765442 0.7329166102736281 0.9695267495663367 -2.2444298493565027
Ni 8.670934183254884 4.76363764723483 4.030340614000039 0.7698610487084613 2.4860667524398408 -1.740086109893403
Ni 0.45190625011856406 6.228679331788517 11.69837795900665 -0.03684519385280751 0.5973449116821842 -1.2643510353059322
Ni 8.762483469430292 6.153544422030592 0.087866128839926 0.39714879224213534 -0.5446781774160877 -0.2759230779597184
Ni 2.3611203980721256 5.291756850108471 5.057710903141014 0.05182572642203978 0.32154498956389144 0.9220356459639089
Ni 2.973851914791683 1.4280601226079574 4.787971421252251 1.040876404953917 -1.867927015499493 -1.2636002731828369
Ni 5.225893110126041 8.022355393308338 5.865502582336292 0.8822169713050741 -0.32626476363706386 0.5367882331450498
Ni 4.858392939540895 8.871918895071467 12.14005873694007 -0.6072269466825865 0.3214328894660593 -0.011921434027934307
Ni 9.112959934947389 2.8173669430400867 2.2786397970744865 0.8998429119169535 -0.8818202500872877 1.2162798908303183
Ni 5.743916205974192 2.022605522679932 13.156370179787666 0.926364869466882 -0.09397227788310268 0.4721301308450321
Ni 3.809625840478216 8.969167747701375 3.1568164348393752 -0.2773410413531675 -0.6532242393483072 0.7088593122141083
Ni 1.8683703797919549 5.744019323130441 9.709125211801169 0.7952640621625982 -0.12997080746489875 1.0079295177142513
Ni 3.82921810016556 7.880972397803782 8.096258521763431 0.6140555395686458 -1.424481654183663 -0.1147251941597379
Ni 3.8259464740263813 0.2425043660659685 9.792695104940279 0.441256324084311 0.011211038224471014 0.38869037706213705
P 3.361488053706213 5.1285786374876094 7.219248982721546 -0.3287353366647435 -0.2632745359577724 0.06262153148596313
Ni 6.492378023178465 4.535551871898577 3.513843652064376 -0.9228488858938235 -1.636007339703918 -2.098536457124076
P 3.850310245761983 4.8844065857764845 13.26038351786752 -1.0179768746479243 0.5549937004094828 0.7104181720607958
Ni 4.267484762798437 5.228105441841931 9.442828905502436 0.11476376070715719 0.017769665278595203 0.13463093194472944
P 6.870011797936824 1.935555894231761 1.7257565404132598 -1.4833177504852648 0.7327487172371961 -0.29028243200518394
P 6.139389248763659 8.010740651799908 8.042750091957041 -1.1720188641294138 0.15321075182944582 -0.17236675593260636
P 2.0912253030202956 9.29677095310502 6.618330942393372 1.197648905992692 0.5910922459042529 -0.0862977920569804
Ni 0.4732224411726558 7.963213017055968 1.0555034616518304 2.8378934237064093 1.0721708441918243 -2.2193667357402873
