# total energy = -340896.3819204294 ev
CRYSTAL
PRIMVEC
9.04638507239452 0.00000000000000 0.00000000000000
0.00000000000000 9.04638507239452 0.00000000000000
0.00000000000000 0.00000000000000 13.24029897607211
PRIMCOORD
 96 1
Ni 6.396382153794508 1.976146600337727 11.371933664148514 0.7649358434927019 0.20481176383518918 0.33647101474610436
Ni 4.528294621331835 0.42927629435423903 5.766732956644244 -0.630731714672746 -0.8916115251460968 0.8461094269492395
Ni 2.388489871397824 1.6372871139866354 4.701246122156921 0.7174527103100741 -0.05966399151953596 0.3201604505115389
Ni 3.3572581861463973 4.284756892887771 4.680180710231107 0.08498627233440849 -0.7242152258448882 0.677373325790685
Ni 4.992301796672756 4.571065929235832 2.720034450902221 0.7941574593619808 0.1685034163224582 -0.3121239533603076
Ni 7.479731979945797 6.117120251299494 2.6181106412802313 -1.4582440953460885 -0.03520842958033291 -1.2910745673437056
Ni 5.0818971929251235 4.608626519425639 11.43722142411957 0.3068102544568781 -0.057561600464552484 -0.06768891870654149
Ni 5.536478035178911 7.7641593682304 12.46973961340272 0.5085611199785564 1.1945337574024784 0.13287949647126146
Ni 1.7929753984679822 6.456766773138668 0.5714049524782882 0.6198654613822034 0.052343032378090494 -0.8440268333885981
Ni 2.701892830582704 1.5194127184728672 0.26776937509204374 0.6443732167155806 -0.8024541521531341 0.307434004083806
Ni 0.18472989399154247 0.0459547307575127 4.949090834461622 2.0568015392791352 1.143003193623354 -0.16408471842947225
Ni 8.485291942165935 2.423273221417044 1.1507046850766736 0.18988625287360847 -0.3434297054521247 0.8411417985313192
Ni 6.867463602143238 0.8387581938639901 4.994810359211203 -0.5244909038349355 -0.3426077237714616 -0.6083412627926877
Ni 0.7669923176513829 7.253382382850632 2.679995151244206 0.12051351870674085 0.9686132366131319 -0.28169289056396
Ni 7.693425684537218 3.8475360632963724 3.845711407457913 -0.16045354943478818 -0.3994021070526863 -0.2333713206404368
Ni 7.649378836359434 3.998882083015892 12.495148194728852 -0.29268435657845726 -0.22378701938611137 0.05720678822829503
Ni 7.853691439788324 8.887195685027805 7.1256510463275164 -0.248391705308669 -0.32367951940839096 -0.6625066930914978
Ni 6.835484631449365 0.78975573602677 0.3730095894258787 -0.4758877981152514 -0.5157604659404731 -0.13989140901272037
Ni 1.932497793096443 6.392673135977113 9.254942087706953 0.2611094099856535 -0.021206201763969933 0.4036518834679758
Ni 9.233464160628765 4.773505930986186 1.4943795621209333 -0.04093941852683917 -0.27718266139843234 -0.21252327354683398
Ni 6.200211296794042 2.061282128824302 7.007679854495099 1.0496502944918051 0.2029371725202957 0.0671135058190457
Ni 3.3459682977656464 4.2702012595507295 0.5715126044588419 -0.02186928926926556 1.1508761686135276 -0.946591480926402
Ni 6.159837280893969 5.701809765985482 4.605796810222515 -0.7430572982520558 0.24760083397625748 1.0917456809999584
Ni 5.210382997950607 2.7546875329785863 9.14744480033546 0.843095322713264 0.23619053525678677 0.7502766988186305
P 0.35450792298652656 5.451270135612972 12.321594204668063 -0.6997923169158335 0.04554220740617318 0.8874034006020199
P 4.0053050163094275 6.043889765368262 12.613502953281898 -0.3632421121923615 0.7289869362019187 0.5951029097255429
P 2.3854050541399423 8.38449712138202 1.6227043414948323 0.29857603947254385 0.31318736162781546 -1.2060337876222778
P 6.289526255113876 7.86029530078027 5.8420305415298035 0.29319677743850153 -0.1629575468035645 0.006943778307684816
P 4.745597833506525 1.0726389064054487 12.663961879091314 0.1997556894685205 -0.6735197563725498 0.030180637348438347
P 4.064866414625825 6.1562730052353025 8.298171993278403 -0.44815433675572497 -0.14781837716928092 -0.09133998246657819
P 4.7338827650345126 1.1710364351854377 3.781760703178102 -0.6493282467280107 0.3570033303715013 -0.7006942599048126
P 0.1192892501153301 5.525803300972751 3.789876215090259 0.7393963044607008 -1.373043907228661 -0.6460068956642616
Ni 1.2320181159343486 1.120421911555389 2.475459102107779 0.16837460405407775 -0.04608985237952708 0.29681997601338556
Ni 1.7608788247701423 6.323694450958504 4.89730842253834 1.094909680550237 1.0840832793586943 -0.25668299878318374
Ni 6.08990872545871 5.634079482085898 9.248163631486042 -0.9037684722236049 0.3036745370413738 -0.38716648421844285
Ni 8.65297573305183 2.339856506065359 10.19105838072357 0.45497213100850675 0.4095335390597334 0.7061475697099
Ni 2.3438550082002085 5.330310922841322 7.005587425662993 0.1458280862121295 -0.5924603298963732 0.5333619810723201
Ni 0.5941240435675651 0.04502657166467213 9.205793983072514 -0.27791516868908267 -0.04429239415947211 -0.09819017261919219
Ni 1.5033101533144246 0.9549363922051696 11.451732730170502 0.0201744180653459 0.6267855855408044 -0.5908505622070921
Ni 4.170871953123932 6.64543817704006 1.6023011249451964 -0.145875137399981 1.1020565760076633 0.07681916314258384
Ni 5.398149763359952 8.010275316376799 8.008924691108172 0.42956268979646667 -0.23855286484137628 0.21330488890786492
Ni 5.473768494910189 3.1112598410039647 4.89415756667054 -0.753826878063734 -0.7876029460729146 -0.9545760417937753
Ni 0.6665801589496045 7.4140190398834775 6.965720911956959 -0.028911026607395373 -0.13360891843811828 -0.15967630494913146
Ni 5.145999876471597 4.6075047676955 6.952997171566314 -0.45936408942861534 0.6949193050942483 0.6922011348321369
Ni 8.151037065739365 7.1947437157961245 9.115813210822532 -0.07864644615930971 0.230358501956042 0.28520656014417334
Ni 4.78179241957334 0.5383548898098308 10.364571662052217 -0.5602770602956093 -1.429988700044821 0.08516882065885978
Ni 8.19606092348856 7.2041519561134155 4.646034225710287 -1.2950402368596727 -0.5089789242422653 1.208259848739319
Ni 7.086358978063933 6.205105391036018 7.042819632080186 0.7680836450930643 -0.22956711640299818 -0.4265730110405234
Ni 2.3918279874334787 5.333965662349194 2.6589966825668028 0.16666224934866136 -0.23757353164724246 0.12944116021367386
Ni 2.317548120851472 5.005826142128863 11.331365150972651 0.8646758770975173 0.2936238376735911 0.9474353169839359
Ni 1.1336567726940416 3.5029502152906207 3.635944738560468 -0.4545854370930494 -0.5299799519739647 0.19598439535154635
Ni 3.6754919148788097 2.67258254344037 2.400717869894828 0.03953996707615126 -1.1062927255761978 1.0900119861383035
Ni 1.2496947520689534 3.3256953491588654 8.209568080813318 -0.4642584414064392 0.13874418278215458 0.14983849292310325
Ni 3.756827961698786 2.806640921576865 7.069749815349943 -1.1860848553041767 -0.5693170590106905 -0.3646436205255784
Ni 4.125676214061247 6.752411678724657 6.115826618255866 0.33446169762555944 1.116839904964425 -0.23419664475520957
Ni 0.9169868074637837 7.329688639654825 11.44508635116943 0.036181335016563496 0.3615261579425193 -0.42819023492897224
P 0.206832021629243 5.609301433788721 8.068518656410282 0.14476956304062807 -0.21885075842675858 -0.07495434201970318
P 8.581762590957863 1.6948311684657664 8.021131882919859 0.24199351509180902 0.3757459010863271 -0.060894007271895124
P 1.8524463329351741 3.019221920823069 10.426179352637623 0.01376157256046662 0.24408922127857316 -0.009558076002080314
P 3.9991625209484263 6.219109194892911 3.994121875270739 0.2997536047204128 0.2136805270797288 -1.5742532984245725
P 6.876347152135143 3.9012987288787455 10.369550792312447 0.36616597070737583 0.08389972413844905 -0.0825565798469933
P 6.290458032760684 7.89316081719635 10.158301420926534 -0.054223537230255 -0.5608486165283632 0.35454149909457006
P 2.3087912202484535 8.320303973986341 5.754153958412325 -0.4492491124818005 1.0625410344115442 0.2585804729162128
P 6.887709411595257 3.956707836516645 1.6146277290378337 0.11436883926158367 0.48608350770133063 -0.2563166165827005
Ni 5.277036762044655 3.0698997691475607 0.34291859926490814 1.0068005463161305 -0.6475896667703492 0.045178396308851225
Ni 1.3916234850862603 0.9965678556091879 6.9988089694420825 0.28926916024932114 0.3945689473301011 -0.2961108657615029
Ni 6.977865683712695 0.8181975702167383 9.130404125060764 -1.0278866775624684 -0.48693685684056137 0.6277206957605641
Ni 2.8461283917547306 1.4788125429497827 9.106558759048887 -1.010294418402002 0.16038335831848508 0.7257422040123759
Ni 6.449710592900698 1.8314587199196757 2.634302765649387 -0.22098348849904523 0.9413932245549143 -0.40587074549616553
Ni 4.183744958865765 6.987997634823625 10.539092710661006 0.051519508035530626 -0.35957314798120654 -1.1340732381235759
Ni 8.386234027286752 7.001874789291632 0.3114887441357075 -0.7032602208597759 -0.40628032222975835 0.1021373301923983
Ni 7.7170005636399726 3.88513283902586 8.286003700921874 0.00916829676282937 -0.2603499061118097 -0.7349416111234569
Ni 3.1097581411071658 8.154429460084542 12.476651051481962 -0.21979203929410535 0.7001548424615748 0.335798414159112
Ni 0.20214599424043783 4.930650683439729 10.144081408470043 -1.0943283541254702 -0.9245190745073949 0.2815746198185408
Ni 8.628170545599891 2.305552614446924 5.829107780670907 0.23373333196554585 1.213947900263032 0.3674805757537413
Ni 3.82991370547129 2.6118813006239936 11.429912849742319 -1.005697543059939 0.09665676669380127 -0.34040685946540084
Ni 0.9792892604110839 3.3370485622340595 12.670859747593175 0.2877714926578721 -0.6555104642793226 -1.034226503737567
Ni 2.763498711891127 8.262669455658006 8.06179266922191 1.6156575724029725 0.07984098068804314 -1.4004572662446075
Ni 5.6693875224305055 8.049428070312608 3.721569676471241 -0.3647822029859718 -0.3150611816117606 -0.6952576622702736
Ni 3.1105089910555654 8.515226429867782 3.701166459921605 0.40459033612184514 -0.5415396317871062 -0.09495263951850098
Ni 3.5094093341238386 4.312176485581726 9.308194537179812 -0.2572180453510473 0.05742173245257852 -0.24602886150344722
Ni 7.21780295095841 6.195706197103647 11.35053715453461 0.49547677599077244 -0.07598098351200462 0.23228117290005157
Ni 0.594158419830263 8.935494334118212 0.2832640231838305 0.6072238613587929 0.0807408667944932 0.609005635849564
Ni 4.633033665941075 0.19037483818191783 1.52974459469054 -0.3536382705540103 -0.24557120514073832 0.2615632096936205
Ni 6.092477898776125 5.712457361036879 0.39591413140602527 0.2362910653903931 -0.5375778189258806 0.3707175946338003
Ni 7.977418846345639 -0.3062174156425477 11.26456845399686 0.012348751373340024 -0.22446836172385215 0.020159248556694313
Ni 0.11777488527964287 4.830814779457384 5.984840392438364 -0.6981763785789653 -0.585107746186044 0.033062843992239827
Ni 7.910077556997636 8.787233131656574 2.6484440745570708 0.5681574914849505 0.34636050594567447 0.018087967849962396
P 8.419787068956786 1.679705612878735 3.6292983595593964 0.8597172475406613 0.19349608171205385 -0.1969462450441834
P 1.811149585773213 3.0854143192861723 1.4303230151375532 -1.7659092416040942 0.3881679288997638 1.471093697615247
P 4.557170681997985 0.9686145262049253 7.985541595365732 0.5773301591231541 0.15504960481039748 0.16437448175574917
P 8.549702202799706 1.3868741330030119 12.401049508063073 0.02518395546479533 1.7587834291925901 -0.23312243785442432
P 6.570633620132665 7.847449434193198 1.3057624365290634 -1.4075820502148468 -1.043937303267428 0.020335626233558526
P 1.8799202039386516 3.326988982202493 6.038939583539778 -0.4658805503908944 -0.5181518489907851 -0.5943516333818151
P 6.973188702708811 4.109790762140896 6.052709990665724 1.141445362217931 -0.1434629284140626 -0.025076997573285843
P 2.487312580269075 8.449061170559439 10.164947799927607 -0.15432686771176002 0.17144964343497568 1.5384632853091569
