# total energy = -340893.7529767965 ev
CRYSTAL
PRIMVEC
9.08555357864806 0.00000000000000 0.00000000000000

0.00000000000000 9.08555357864806 0.00000000000000

0.00000000000000 0.00000000000000 13.29762604418458

PRIMCOORD
 96 1
Ni 6.384209518234563 1.9340872138894294 11.506342974466431 -0.6742975150788387 0.5317468140664005 0.8652777723475743
Ni 4.83079791291708 0.3568732753578658 6.203063568484311 -0.5159849232464533 -0.35110059173382113 -0.35754274781473905
Ni 2.885889804738785 1.6233976243830857 4.832064439083216 0.16006042776142757 -0.5861906948375776 -0.06703714405515551
Ni 3.4059923182283933 4.419185994476462 4.803993712807078 0.4006904868468067 -0.414911258431879 -0.04150171878821239
Ni 4.763991837597156 4.599970339195061 2.479502079594638 0.6621891618510789 0.16237313505500423 0.5490886477789576
Ni 7.433318387701679 6.209412553311398 2.509660666078653 -0.44085111822609235 -1.0518069358234918 -0.1884186671891465
Ni 4.890698967532104 4.27876876422086 11.693280964610597 1.31528098938658 1.900402876640011 -0.880956873645728
Ni 5.5105608591004245 8.043213427015688 12.558969770271625 -0.39753908570201857 -1.0749162681474456 -0.10725099726987979
Ni 1.9055858323745913 6.45305984310528 0.3959629609904571 -0.05385458392661047 -0.3939176868993474 -0.3239813669195259
Ni 2.5262472526561113 1.4360444244412705 0.2244049959111047 0.7491217592785809 -0.050241669764371534 0.8662612193067661
Ni 0.5502829053021646 9.187311758943 4.76234553529225 0.26919527231758156 0.5065877983022695 -0.2213940936739026
Ni 8.900780656350252 2.200275762063393 1.2885586335167039 -0.7996130831599132 0.6874816178692805 0.14538997023344638
Ni 7.02447756309658 0.7919913379665395 4.974097080761622 -0.048770998756116006 -0.02894599361038886 -0.81450696955261
Ni 0.559753686332151 7.19270567279653 2.222764324232831 0.2854557000405019 0.8180597199008749 0.9329155261012062
Ni 7.865082063936341 3.9337630389218665 3.7445182267290504 -0.41777186780912573 -0.9877391588093052 0.12036028095832821
Ni 7.784793027134739 3.9635091412742987 12.940917356341842 -0.3919405085683185 -0.42271429941606553 -1.0159901832351985
Ni 8.230648396939534 9.110538831368762 6.966546256493166 -0.7149188881446268 0.40910107950800506 0.3117778828747986
Ni 6.755935856550814 0.5673882769878469 0.386835613885004 1.2437873522219676 1.4375870812173694 -0.19395579495729176
Ni 1.7804414176518057 6.302466792863508 9.072411305858077 1.097219045409704 0.5427524211482846 1.3737080231752214
Ni 0.11802679206460139 4.820794718448531 1.5681229336403468 0.2283101040674455 -0.9858344855874247 -0.5143682135786367
Ni 6.450942909126015 2.2006482697593155 7.048619696013771 0.3323657343284792 -1.2540313985474791 0.9336997125653985
Ni 3.378790170872504 4.106025134402048 0.2928246655431222 -0.9170579902436593 0.7252315829245446 0.6741231942845035
Ni 6.089019883100011 5.392657630564226 4.467656514158804 -0.3006288082365145 0.6025246561109108 0.38138895830471736
Ni 5.425483735573187 2.78467673809062 9.407910816468206 -0.5886525261145088 0.46880183780274753 -0.035734734397448134
P 0.2317070553065383 5.594602229521926 12.59862276022488 -0.6530524896571335 -0.5943457198445441 0.1727400801116251
P 3.9419491226785985 6.156416519401277 12.753446952759115 0.26853861257018913 -0.4884743765310103 0.0633085302506587
P 2.2809009643466807 8.358391279980218 1.37839204433212 0.39114989434622316 0.8087422991546911 -0.21786911123977964
P 6.603244043436894 7.8889770697967245 5.865756032715927 0.057480353604655844 -0.026553067898180075 1.1468521350557992
P 4.630525055814252 1.0971078489197428 12.816863208046147 0.21925982093971916 -0.6460984269368034 -0.67576381521172
P 4.050766797655715 6.1993366744143765 8.157867661599159 0.02873644870274406 -0.9147092875058247 0.274690748214514
P 5.048551375067582 0.9202484633386665 3.8900342696420083 -1.467318546843531 -0.1761262229750386 -0.1618306322879729
P 0.2057114694632949 5.557042551108684 3.719492069450561 0.7507469535868296 0.001973578786603053 -0.7660200776958163
Ni 1.5733543953796658 1.0327003597394155 2.506802350928966 -0.38291233692777926 0.5375299964070808 0.7806221438797072
Ni 1.7970770662184834 6.615609481830804 4.740098648847484 0.8467702004616899 -0.09505728341716532 -0.4578800486839211
Ni 6.071248540338449 5.652404521264801 9.374334244735264 -0.9272423869758288 1.1839084164781482 -0.33561740849655747
Ni 8.438453177942842 2.439452959506208 10.442332888607066 1.0271212601513535 0.5475025342387604 -1.2366651393548895
Ni 2.3034149660660836 5.491581137715504 6.805325834253336 0.45183692781363477 -0.9115429739627011 0.708189025619961
Ni 0.6821142874444341 9.14043030257814 9.135336032697563 -0.046833929634403214 0.021229341692421504 0.03921806496035826
Ni 1.3180049126016862 1.0171822342605048 11.391890439171972 -0.14606179948949038 -0.07264986225624263 -0.1494605407583942
Ni 3.9678429503219803 6.843220769592909 1.5895048753862888 1.4297691278348474 1.018077919002163 0.25214988679952055
Ni 5.686448090450679 7.726609142142382 8.042377556088253 -0.22709551493405403 1.1598647452653832 0.3021143916431055
Ni 5.436976960825424 2.768068346184619 4.968564887199498 -1.4474500900543783 0.5890011677031791 -0.8049069845690009
Ni 0.7310018340351387 7.388980886333362 6.897957595564949 0.05823060150711906 0.45983408708649837 0.1567629879570784
Ni 5.1831084232775755 4.4608250864377315 7.265663576431308 -0.9972432416449987 -0.10879211650475458 0.1743804439285255
Ni 8.029221674534703 7.461074753824672 8.933052542592108 0.35461426131403445 -0.807014774940623 0.07118304790272902
Ni 4.6533843085689 0.4153588007283838 10.504326346206746 -0.3931782376301616 -0.8592233386233783 -0.30492357895712646
Ni 8.377216546954635 7.199765147911935 4.769405918963012 -0.726394235774078 0.30805441127662425 0.11582974007782632
Ni 7.086513722797988 5.9418884287642495 6.953687472540999 0.021387464536840588 1.4638768681518337 0.599675873808206
Ni 2.3964237778503987 5.317874439219429 2.5677845864175195 -0.6499946766674161 -0.6011984811003195 0.5354031798720651
Ni 2.177125771594854 5.388977981372799 11.509015944323513 0.6120853032161523 -0.8688235807173037 -0.423581018291735
Ni 1.1744259097075245 3.4708177428724385 3.8789044665321337 0.44274062193932145 -0.4693114304493143 -0.06411482820203797
Ni 3.795362801556381 2.4786207808994076 2.5557771188338374 -0.7898495760152462 -0.010930530869574726 0.40342022707314396
Ni 1.2177730857379014 3.540867360812955 8.312744550344037 -0.6220282733614771 0.4445360232768473 -0.16769917525360797
Ni 3.6986561694735203 2.5580648612200143 7.074270939377125 0.482551326178356 0.4107679256874668 -0.03670095496545937
Ni 4.6584540474548675 6.752510602859041 5.966644745102034 -0.6117050370585981 0.31953670088461095 0.3663012107336595
Ni 0.7247473389650672 7.423333364340249 11.528163748449279 -0.05816400993524177 0.63067566462383 -0.8988833762171616
P 0.12387152866915838 5.632534415631091 8.050262908022178 -1.6897806767706318 -0.5932943957618942 -0.3499518228413586
P 8.672115444375295 1.895055675799616 8.15072641650172 -0.7305177710241483 -0.6969173093608836 -0.0010806346586884614
P 1.6919390404327947 3.374619901788886 10.551520345614037 0.26853784123924074 -0.08888200784438886 -0.496683394704364
P 4.1308741233861355 6.330395784504124 3.898305757602196 -0.7924101376535707 -0.5141239587783145 -1.362556634544092
P 6.841076578952966 4.13121937442138 10.589724189774618 0.33219964106426014 -0.8625434041355466 1.110629919498971
P 6.38681707210602 7.855905654841668 10.398929382144622 -1.8219603189613913 -0.5691609930488005 -1.080793809974145
P 2.3965146333859897 8.431121136220662 5.74171551275057 0.5257641141204042 1.6686366957031646 0.6826407448372114
P 6.915332808191337 4.045697058769748 1.7399143974461675 0.23032533472526137 0.14177319941646552 -0.2641361126271193
Ni 5.351045795263634 2.95901942533583 0.37339626306041096 1.0268600360701672 -0.8887326609364048 0.6695497159812082
Ni 1.4259231177764538 1.2080152012154481 7.035827236602585 0.8315346144588582 -0.23538166620224624 0.007671400502328724
Ni 6.913615638568671 0.701103094382914 9.230228279734677 -0.47849309694858233 0.31754101061082085 -1.0769479538654936
Ni 2.7341974025163642 1.8214808630781758 9.42530420020171 -0.010503727744801265 -1.1246743134071793 -1.5178497228238634
Ni 6.388897663871048 2.158464044584501 2.643754351057133 0.7316218027216046 -0.3818910947521165 -0.22079039865163266
Ni 4.071154779842294 6.804216488163773 10.679190544226248 0.8823339564989127 0.11093255988652508 -1.2088082650436214
Ni 8.133523829392956 7.265426443483417 0.11089099829929894 -0.7586883199210934 0.06500237301331385 1.1942848746164656
Ni 7.474857538573799 3.89110636496198 8.412145049057166 1.5597872435979139 0.001400994112584684 0.010255359179421048
Ni 3.003420525579061 8.33691303136655 12.3884539181855 0.1090242871202187 0.21772512946274764 0.20484030308027948
Ni 9.053826806052976 4.891135074102939 10.427932286215922 -0.20904997028625288 0.11268450958062527 -0.4714896690475558
Ni 8.816403120447065 2.4568699656789668 5.787804708845078 -0.12575676938355118 0.21944596880859626 0.08484126211611195
Ni 3.5449286032538647 2.5252114995503763 11.48089070472602 -0.3350913607897584 -0.5051891181825299 0.6325227451348977
Ni 1.1747348185285333 3.2981377119285398 12.692743643764826 -1.042485915532882 0.44652682845463104 -0.15830847806732734
Ni 3.109557962256248 8.197976746341078 8.0170188675495 0.011570992667051042 0.9450948417762175 -0.2741500452196956
Ni 6.12977767636605 7.859830613979192 3.6462089029983673 -1.6889910909898007 0.5892333383186432 0.8783330628696356
Ni 3.043805811149177 8.431766210523358 3.4354013465437836 0.9171556921637882 -0.2999968310794704 0.9203086359704732
Ni 3.4868810015648943 4.400569695233904 9.385411351634495 0.10158505723335408 0.0673824432097162 0.04556920398936668
Ni 7.161296914142786 6.249343561203561 11.582112856927747 0.0027112282835759756 -1.259949820914443 -0.4799737952591669
Ni 0.47833077244637623 9.061467756596164 0.3191764050858816 0.16991957994369444 0.32890605791465294 -0.46020252616951063
Ni 4.707152614531543 0.4059552527947347 1.6896494809359064 -0.3654388627333642 -0.9860638279894114 -0.0004466006191153599
Ni 5.86979456127294 5.41022909114749 0.4971651249743518 -0.22339775436749268 1.9205968350893823 -0.7830423232854257
Ni 7.934586548663312 8.982032761829116 11.18461988871794 1.5642069699321641 0.10648120898339081 1.337931122685928
Ni 8.908139954733109 4.98062777665989 5.889105905362767 1.320169942047765 -0.6802876712240026 -0.2403017292116829
Ni 8.100516013312813 9.10908514279931 2.4091971575991113 0.21963057401557656 -0.6441865546260712 0.39899175898814515
P 8.564724201306955 1.7327967747879833 3.577899168564415 0.5796441519683114 0.5250979412913149 0.607551677011857
P 1.8160022742820499 3.1805979055347047 1.6422837645663477 0.7469422351287588 0.13763732287122105 0.08709123449255324
P 4.623211185199191 1.090875159178213 8.299660444663605 0.8122086604367367 -1.2289852542121287 0.377765245509201
P 8.420227557503326 1.6791465810216084 12.441524453634806 0.2501310565972789 -0.3466641532290223 1.3374181876052516
P 6.4343163461128965 7.841041689219011 1.5392272391010449 -0.46472792484368997 -0.23253442656143827 -1.6556986474852584
P 1.9534666996309498 3.333017152041853 6.162465680960913 -1.0463772801674884 -0.08904295890228535 -1.2985420793653442
P 6.849662427066297 4.024264237923875 5.963692848750688 1.4168364789335792 -0.3006989993528176 -0.13808083816654285
P 2.405918181319639 8.184993490305152 10.156872972778935 -0.6053199594678608 1.162541777876914 1.099362574115268
