# total energy = -340876.21220364893 ev
CRYSTAL
PRIMVEC
9.18113480448923 0.00000000000000 0.00000000000000

0.00000000000000 9.18113480448923 0.00000000000000

0.00000000000000 0.00000000000000 13.43751882969775

PRIMCOORD
 96 1
Ni 1.2570809500903826 8.408670663698352 11.16841873342314 1.2958534767895875 0.16887751183242528 0.8961716337129534
Ni 2.6179270834843114 8.328041939598924 2.4163075313357956 1.591637555339291 1.192281471033192 1.0916739472217587
Ni 9.275792102584099 4.743139397266969 2.3984226811256284 0.44733261218537795 0.37986635101260385 -0.30611142861764057
Ni 7.015663015783779 0.5571984685985267 3.6427363454345643 -0.6993498300617762 -1.5019546488601618 -0.2586923159037287
Ni 0.22811447039107252 7.415556514630819 7.51967608973011 -0.3046764959433269 -0.9204112229866083 -0.6364333930432136
Ni 8.995363527214826 3.325572214284533 5.0292869013815755 0.5673661059319067 -0.3925357189501562 0.6395503414056405
Ni 0.6908877239195251 7.4493339088419095 1.795131244357121 -1.4622642722490753 -0.4728968338077275 -0.7936095572783107
Ni 6.265518412897898 1.8209127884408838 0.8050037183765322 -0.18491811023505572 0.21204273436598964 0.1181038808239837
Ni 3.8688842167932873 2.520340803769802 1.5766110596280734 0.5237326855126722 -0.21435595588019857 1.0575911466054366
Ni 8.977074707082048 6.838834363295167 11.595167969102706 -1.5163199164428982 -0.15430501333488908 -0.3049845141020489
Ni 7.979232273693039 2.654458818076845 12.514079270180716 -1.138598122577123 1.0874128579525595 -0.9486344794983598
Ni 7.091021768620047 3.975238480055389 1.1589777724976222 0.14507860964061467 0.40887893619487004 -0.11162110131311744
Ni 4.992269484768449 5.230630101378487 3.347124927769321 0.2976437574662616 -2.109209877677522 0.7731471756589008
Ni 8.03831287487498 0.05279244209110948 11.562864146995688 -2.282517143146527 -0.3233846138757914 -1.9442460990772064
Ni 2.871207043827164 1.1463289233525775 7.746245375167193 1.1031109854141068 0.11835739159568648 -0.1394841462719727
Ni 8.03187689951701 2.465713052871191 3.0407624014818473 -0.6960307929908723 1.3594617976688523 -0.902127337075756
Ni 7.37280915191083 6.153683012276726 1.9089874127048119 -0.2881576723526973 1.420270958536425 1.0821888905494588
Ni 6.253289141604293 7.3058603183725666 3.9552125892553804 -1.4320823493490562 -0.32957608739848404 -0.581638813800837
Ni 6.160780029326243 0.4302775457081933 6.060817671976009 0.30198455093346055 -1.4383990355957033 -0.48509928941119035
Ni 8.31232383715549 0.36275397314366853 1.5213286938321398 -1.508233797000654 -0.327426645155649 -0.7568234987982126
Ni 1.1105041361246146 3.9788466659550785 12.746574978005203 -0.3133565402158281 -0.7306640667940254 0.5701125583287923
Ni 6.113919518303301 4.872299598887415 8.001800420665118 0.7255570845847634 -1.2614323189972405 0.02156847019939511
Ni 2.7621535269912485 3.903139030003828 10.92165186996894 0.03879794670380415 0.2858969013429786 0.8215402222503078
Ni 4.507340317211671 5.894830103228755 11.857319659814186 2.6159408864258755 -0.43306376097118965 -0.3930689657458069
P 3.3766468660910833 7.82043536956827 11.744511977038362 0.10158634278493472 1.2371014555613598 -1.6321810239792922
P 1.9128802137772507 1.8449489988362724 9.732848263594137 0.3403209846198139 -1.0009124629664699 0.771646165633342
P 8.382844132055025 7.574858381158851 3.46090030213249 0.15483671746864303 0.3232699426747981 0.3341955884483664
P 8.492329162217366 8.21918122658971 9.570832453676921 -0.8019890395912574 -1.1471650383105274 0.07471342965349068
P 1.6746022273786552 8.934134540535357 6.62380943651017 -0.6897045936625283 -0.8621353700638508 -0.3864566026356119
P 8.850696389246858 2.562271045509962 0.9674115627413715 0.9150990667450757 -0.06268426640309849 1.0616326636646618
P 4.9733104418095175 4.670277913043208 10.080973934971961 -0.4753560939814975 -1.1797077481332394 0.6523629197892765
P 5.070134687351829 8.697417347019579 7.873243419588208 -0.6850359845422654 -0.5996632754027157 -0.045462246097857185
Ni 1.2570625878211732 2.7623187874141353 2.8985126562553254 -1.5785879212441847 -0.22618174487053305 -1.3285710216272668
Ni 2.7591880205138954 5.76847932879738 2.6854341300065476 -0.9282618293792788 -0.4328246483771901 -0.54337899898869
Ni 1.4020602466349144 6.228316455479215 9.874480118461754 0.2105424956713793 -0.399111572395461 -1.2820803342648952
Ni 5.233320173817695 8.892599087583203 11.954137478562274 0.5311611167662594 0.16740246994879557 0.9394407288142336
Ni 3.6947548178784886 4.672463023079153 8.147314977357109 -0.6180592614114 0.21839978693226902 -0.20436413477480933
Ni 6.149808573473496 0.5077690761131587 9.772784362898133 0.4703745816065061 -2.7740189936499515 1.0824331453497809
Ni 5.277665053958921 3.4104701659751973 12.598305162818308 -0.1799311985434256 -0.6611764043158485 -0.34111879793076094
Ni 1.3955783656039193 0.9918838770304886 1.019768819052213 -0.009456003206577263 0.4451160641500334 -0.10661439212714542
Ni 3.7500619727378552 8.467172853400191 5.898465832532259 -0.5971603064752038 -0.6122773646223004 -0.045761008285198614
Ni 8.638694810087225 4.878460140207241 7.2376353071242345 -0.7559799198509948 -0.9848014163372201 0.6743625639888192
Ni 8.797987495480653 5.802137368258609 0.13588262837808707 0.5693368565050324 -0.7063519724112223 0.3696688416543117
Ni 3.572948705076494 8.7698197745131 9.614221577705788 1.3729081529817453 0.28404287885337537 0.8234040149319239
Ni 1.9369164241726393 3.942241482285707 6.251362021450745 0.37853323402347716 -0.7832433835526381 -0.3863607004876959
Ni 5.054232962216301 6.958694075560942 1.9630064543791237 -0.2682802167024799 1.9168620506372989 -1.8354041031711228
Ni 6.568532579394999 7.169933620548377 10.998904690874179 -0.03473251838517889 0.3312053954717909 -0.621170296236556
Ni 5.948548921801489 1.6532010026148465 8.022077874553299 -1.9639165809229402 2.205287631939402 -1.7585931675586552
Ni 3.6089754772657625 0.46406503916734915 0.4245687162109234 1.8976607951184996 -1.0396412469952352 1.0221276635915042
Ni 0.5700860272432965 1.3705964983442354 11.965196155193766 2.8861764270825137 1.0432988983524807 1.0888434197514991
Ni 2.970381659828306 0.8247321404153447 11.74276480712307 -0.1944047095692523 1.3001436195245093 -2.107076633384603
Ni 4.842442549152578 6.61544817722557 6.666621985285853 0.8825753830857573 -0.8278042008821487 -0.5584130105036771
Ni 6.720526262777605 2.8329584370635317 5.913636739353245 -0.12957871423280265 0.9317230484550019 0.12657360885789168
Ni 3.6920188397662557 4.645856094994418 0.569941883430001 -0.017667335372776025 0.640527103496613 -0.4203247161379664
Ni 7.385442393127047 4.82459442348083 3.9456183035933554 -0.9927795494466902 -0.11921819693408499 0.5344390161865827
Ni 7.151626438146388 7.701447865089951 13.35553668350564 -0.7241031257470562 -0.623413583744778 0.4167699089071725
P 1.52428869162873 4.662097522110324 4.1629697298872115 -1.0649555573903078 -0.5067798597084175 -0.30123661702384247
P 5.835620966162344 3.0679863018120255 2.8544377014714817 -0.09457520157442423 0.2940439559301452 -0.05555151201305916
P 6.393558516096558 1.5305777688330238 11.538501088208367 -0.42158507090762876 1.6771254499004666 1.204276695721855
P 2.8302500023551134 2.486609315231735 13.081437582332924 -0.017417167035182906 0.959313813589077 -0.15039487964720552
P 9.224194126105074 4.774777587115139 10.905392998697282 0.5544825651010192 -0.9026914371093421 0.6554477293621873
P 3.821601373578523 7.10622572752561 4.006799548372879 1.4646782810072065 1.6426263876823322 -0.26132024044487895
P 4.186826908157806 2.8113552273384173 7.167357394178267 0.4693960197433207 -0.5092997979167938 -0.3767419464510092
P 6.6161643057247455 5.444780066035646 5.9626437996467905 0.548045551226424 0.3246462541970344 -0.7052260863368952
Ni 1.3990947401575609 3.764549803144243 8.793861493589251 -0.8254737529767591 0.24541925294390635 1.1196141252754523
Ni 8.89952166307523 1.8943067784717231 9.800681240394843 -0.10210467718224996 0.08657315720555413 0.05823960036818357
Ni 0.4006619598134624 0.589531670336281 3.4377335451841766 0.31809842577618763 -0.5312315649928786 0.8495469918758789
Ni 3.9758719783431204 2.589851173862807 9.48401289051347 1.274889730053727 -0.6247227894745048 -0.6651145630279901
Ni 3.159917002609973 3.3636739228944887 3.8101681066551554 2.5399061668578 0.5274435587053562 0.8866780924002213
Ni 1.8995767497348832 1.6131896180070908 5.316137680406911 -0.45303377633521336 -0.48608505036322736 -0.6560156860505154
Ni 2.627255116242797 6.112303638612854 5.429052782457609 0.45307594242705845 -0.10870135656316118 0.9627794035401742
Ni 2.8896794866520388 7.096714072075028 8.001854589359287 -0.7620654639234424 1.2970197291835468 -0.8961641775137857
Ni 7.582533809688472 7.67732902448312 5.629581615815073 1.7497876534518833 -0.11221965412906482 1.243588348837284
Ni 2.353216610558472 6.055949834408539 12.117242171043616 -3.594352597186668 -1.282931626521597 -2.202854082797245
Ni 9.331429778289237 5.918618422989813 5.2467595186522145 -0.9509973233035814 -0.49545235051074027 -0.22444676445729733
Ni 6.7705909897776255 7.265812209226392 7.934183200527624 1.240444918112296 1.084216719612765 0.2747473124840623
Ni 4.816928176085815 6.558506780406549 9.171267639448734 0.47689644188542385 1.3476036127786857 1.4689203441130123
Ni 7.075487288868711 4.8665613897594096 11.870422057008707 0.50931599586671 0.7792268061940774 -0.3892727319281683
Ni 4.367419825834389 4.269833546119879 5.629890101937796 1.1610507951536841 0.5061368268077799 0.3757926951638625
Ni 7.869664613319253 5.780974852994524 9.546954158796735 0.3482358685915164 -0.08072492595489322 -0.49166922931922424
Ni 6.599996327685678 3.19626511451041 9.905695058004643 -0.05801334328999041 0.0759043646377983 0.8344425321342727
Ni 3.311130289551169 7.225810005753241 0.32565576254601875 1.2454714247926097 0.9709562829240118 1.9561693328773537
Ni 1.3683930260390813 8.850485223150947 8.974273542914121 -0.8838182543539229 1.423694125285361 -1.1141111931793521
Ni 4.2226700576549785 1.3931453649336452 5.307389895355449 -0.05100451607232507 3.3971649255556393 0.9479189414885739
Ni 4.707883840384504 0.15869315730373384 3.578048825349465 -0.4019050759801981 -1.725659650055428 -1.7523556712893753
Ni 0.7218446735800185 2.1042517834798797 7.2450123487791975 -1.9865556584786945 -0.32349439998077834 0.34887118818267016
Ni 8.053030233646489 0.5212469817130176 7.944919619334487 0.29435017431665433 -1.2547603062937036 -0.7105318148205247
Ni 1.1940340987591627 7.828386232136034 4.5548214729339 0.4591378323504222 1.0912319745883337 0.05732840140782385
P 1.794195686740891 5.791533157790054 0.655652365533191 -1.7467411533160755 -0.8352177197374003 1.6721951024783848
P 7.7612813193094885 2.764421267238636 8.072078333611085 1.0770459128959384 1.2503336379809176 -0.6021983831197435
P -0.00663704220581608 8.571479723645421 13.173471111838445 1.8298368934959905 -0.41393372500995806 1.010710422893498
P 5.950522865741522 5.642964037615043 0.18420293980319433 -0.5242934431121486 -0.16177509645968915 0.1108615974392736
P 1.6201213746337215 5.517999614508994 7.61815936629551 -1.2265414206573264 0.9216458667246579 -0.09279779795902728
P 5.8446184780750565 9.012339445099117 1.0904534562611734 -1.051181643534667 -1.3901144895577027 0.42525814888384184
P 2.742046842206718 1.2598352904718255 3.258530651286761 0.3935407631759029 -1.1789610997752018 -0.46817577418297435
P 8.140076570834678 1.114323488120215 5.3221843756576375 0.9152692737743527 0.9966521450282191 0.7744368410046018
