# total energy = -340875.73815290607 ev
CRYSTAL
PRIMVEC
9.18422432823483 0.00000000000000 0.00000000000000

0.00000000000000 9.18422432823483 0.00000000000000

0.00000000000000 0.00000000000000 13.44204065999177

PRIMCOORD
 96 1
Ni 8.43664696707605 7.728111601848219 1.8672070217827383 -0.16303622256029984 -0.8206382792613286 -0.7648466262130054
Ni 0.7783483291181034 6.366706455908428 5.53127909012844 -0.32832833103431197 -1.4450774760571434 -0.528835039736244
Ni 4.701386138014391 9.386644777858537 3.14803161906301 -0.12419251022022482 -1.0675035206231422 -0.28158413290023765
Ni 4.3059685376602745 6.465326658272959 3.282653981352011 0.6321501922868275 -0.18550277909393212 -0.9506715645330466
Ni 8.345144538676179 4.9446303231163276 9.759472859704942 -1.1210603708036757 -0.39798491499018557 -0.5716140825749833
Ni 6.472031142136445 7.599165090282005 10.9148565638994 -1.1483821985470803 -0.5308245593624471 -0.7872748733095345
Ni 1.9588481319721147 6.086661083353086 3.454362242053004 -0.5393703920499292 0.9068874774685607 -0.5629767186149595
Ni 7.806948984703233 5.698930678880801 12.036124547875634 0.5328253918425598 -0.7067165548394926 -0.20033727300360338
Ni 8.019683176114075 2.3821674062676954 9.296045158724118 -0.13602678385099157 1.7392916390165658 -0.10823778666318133
Ni 1.2742376714900092 2.540237093629955 0.6358706996394597 0.591104072978795 0.07091102518826498 -0.036362597789434147
Ni 8.890512971960609 6.259370424521366 7.799462004914858 -0.0722233162417853 -0.25713242761577654 -1.6180052466995427
Ni 3.2612354514642923 3.110219248495399 8.368973927487412 -0.3368829054725424 0.18445171212159844 0.458419723237475
Ni 2.963767605088358 3.2862073577996584 2.611559944023182 0.9916040410813503 -0.02796691752657119 -0.3120841012613077
Ni 6.311977662288551 3.1613019050004763 4.807640267758826 0.5022973984570317 1.0187849723715166 -0.9108546896464248
Ni 8.696496230020703 1.058151238147424 1.8271500267545298 1.0824375162251552 0.45714214207663206 1.4459375100645937
Ni 5.67787125216988 5.115585477410738 8.934696439043424 0.06776142381568974 -0.7238511576372502 1.0789567567654064
Ni 6.4142256333189405 0.5403905836214027 8.995588765705472 -1.8889257292383468 -0.9432189649097432 0.9675955939818948
Ni 0.9691285503545953 4.448948544217457 7.314661695168668 1.0459877580385535 -1.7893810994737893 -0.3260426203239288
Ni 8.548510821127083 1.2443981261852635 12.981933433877112 0.6091473036337509 -1.7730042007776625 -0.824957732572289
Ni 4.481635199108066 8.791984611840784 0.727804786589446 -1.0000220899417165 -1.1191238159025951 -1.1202234767246773
Ni 8.224932224581437 1.6426077307784208 4.191282371429449 -0.12120874500155253 -0.34148852256535384 -0.5586122709986766
Ni 4.547183009154225 3.058392669808209 6.484668635007891 0.2169329725787554 0.18633658784913715 -1.1183285736948096
Ni 8.27853135859144 3.9439815143788803 3.0543139557208474 -0.4128034680602568 -1.8456242382372345 0.3041666461864439
Ni 1.7997038903468037 7.969463836709227 11.75187922946992 -0.6445796762994319 -0.25840563790124527 -0.104578078423407
P 6.0561510896619914 7.548192644470574 1.9192815745306324 -0.3878380563641708 -0.6053752381858284 0.18246167827476317
P 8.896896007967625 5.945187289609071 3.265246202290572 0.9262548262515791 1.4951921333253475 0.7803444647382883
P 3.5402981120012886 1.5612722388674238 13.391122778824785 -1.2544034371749169 0.3486562439583866 -1.6116456230301017
P 8.563903581339689 0.1588145279668189 5.958211438330727 0.01593852560712739 -0.37868544333062526 -0.6309772550246489
P 6.320445517250379 0.23828837757763968 12.027414229387785 -0.28971318976527527 0.19927669294957293 1.174148251767591
P 3.830804316228563 7.391206695595838 12.177749881323413 1.7908795383961866 1.4999756707569198 0.046442093512623246
P 1.0163813852554624 2.7240042410607517 2.921680896452163 -1.7959674944420552 -1.2468906737376397 -0.29890436934624004
P 0.7484261257931228 1.3165310251767912 10.079111423952732 0.17229065127903231 -0.043962778734195254 -0.5712955228933
Ni 6.018780480291412 6.942869593842538 13.167057091262206 -1.3482091075731684 -0.18370506376356105 1.114094223898488
Ni 0.49850225423377115 6.489490352854919 13.333429317545821 1.4041946217998524 0.3133848223506022 0.14109828483662795
Ni 1.2627022855550258 3.410506651783786 9.58545201128227 -0.8969373082343843 -0.18259203320504036 -0.15208255176227356
Ni 1.309798988639894 5.9378490942571185 9.765037581311635 0.3972608923399674 0.0016146527852875416 0.04041697036446587
Ni 1.3793786732286148 8.359738271359848 6.25964962494527 -1.6677951736384762 2.6346286926433655 0.7529761000276646
Ni 8.1093303911709 3.26032621324171 0.4459179770277625 -0.347257306728331 0.126086384808828 0.5559894886638489
Ni 8.553773381748696 0.5494058183616731 8.163982955727672 1.5409022337679528 -0.8834292464456204 -1.4047818617618903
Ni 1.0330231999960593 4.851483918536232 1.595569806730164 -0.1640160699750659 -0.7800834977674178 0.46123533830939917
Ni 3.4539021124070306 -0.14766947157183305 10.2116094751217 0.20369127707750082 -0.031143772592656046 0.6131985908849891
Ni 3.3168183779599283 4.717605478429345 4.810126437322997 3.0406498476744663 -0.7443837303729631 0.8789110468602928
Ni 8.71473609981917 2.9653564759217597 11.47206989148347 0.18381690675107695 0.8891437803318945 -0.08767590335142965
Ni 7.022212109043431 1.9228827089455265 6.751251771334334 -0.05296703911533458 -1.3517999102482203 -1.266577867753922
Ni 7.870632397181875 5.451718908807596 1.2381629561922218 -0.45907381188170615 1.8143686226570623 0.31256026956677785
Ni 2.8163516181119115 5.628524414089733 12.416345930420814 -0.7426757465429209 -0.1142693375692419 0.7310052521835282
Ni 5.525716205366641 7.652001933660953 5.0647866134418 -1.4732374834311275 -0.08882441513357606 -0.3868175855194564
Ni 3.6705763361157295 6.5487010480164125 9.906729959598048 0.4627515178436095 0.44936609767563895 -0.3267530161273921
Ni 8.090695599720199 8.050863618191517 12.939026573995697 0.06443930142099225 0.5933782137249523 -1.1276958738423224
Ni 5.478270501751893 4.261112785346215 2.2130839969203793 0.4282339436827141 -0.45238020191161443 0.4150513835541691
Ni 6.661060850188854 5.90986476229542 3.488303462006288 0.32953032176221314 0.42639149115733666 0.23224826277958707
Ni 1.2510566889263963 8.27020126699667 8.950235228425111 -0.5472672782995027 -0.4313218385794184 0.9343674280563845
Ni 8.019554596971487 0.2398625536518882 10.771914212662548 1.6918822964946667 0.5392379802371229 -0.7252660357069057
Ni 1.2447103898172616 4.103346177391484 4.632489759726278 -1.7313351031736506 -1.2478142139931736 -0.12313167305587827
Ni 6.531746969643819 8.610605362772324 6.907931885534202 0.1427291355718316 0.5677718260107577 0.3910172254231008
Ni 0.44751970577542255 8.339018660954338 3.71472122945577 0.14782789025097767 -0.260042659284036 1.4156913095855426
P 6.8617728917677745 2.1658972884357 2.3739585464359374 -0.2212531972206641 0.3815977318814138 0.43210268260950097
P 3.1647000680545716 5.1036459855990515 1.497537394731747 0.9582113245535175 1.755983754960266 0.09933354219501601
P 3.159749771064957 4.416445573816257 10.156456370331284 0.2117848527189127 0.43024840300958156 0.31820024146137454
P 2.3723586545331714 2.80310796642541 6.254057350665166 0.03946463375352558 0.07432287908329135 -0.2204715818596332
P 0.5459516315383074 4.419981500237411 12.837995512707653 0.41428853724621556 -0.3376282682789992 -0.14324849841041137
P 5.501635168804916 5.387383416391547 5.406549974439092 -1.3803000745704421 -1.4900028758149242 -2.013444769560055
P 9.001173692606 7.3066475408956855 10.88540459286731 -0.22946992870350155 -0.5906142778265699 -0.30600704182929234
P 6.455563827660788 3.7379058857091714 10.3940044994166 0.8667178472282104 -1.4961339284133266 0.6949450161258612
Ni 7.839112138799022 7.68776530374919 8.988047598992722 -0.8962659931989726 0.2492820783334223 0.768053048965445
Ni 1.9878519128500423 1.2105450747868969 11.944623956320656 -0.5155905160215121 -0.8564059237792412 -0.3210611079489374
Ni 6.599214282604318 0.28837638257255876 0.8339110503199042 1.379345423966657 0.6592820155066129 0.04934332631981825
Ni 4.896201907483234 1.9389734702178918 1.4000688941158204 1.2945239593448867 -0.2661284604667997 2.3388315014675394
Ni 8.103323908367175 4.694442864314673 5.4620520797593874 -0.3638905444096378 0.08648856791154783 0.25780811352656247
Ni 4.34031753718005 3.771777305556479 13.666388680965666 -0.720817770127565 1.0920824955140869 -2.1786278632600284
Ni 7.784410897852557 7.158120262758305 5.321502218997108 1.00994654814428 0.8206894442142382 -0.13178343519360533
Ni 3.056197640159753 6.998792336643583 5.651625493900452 1.8655150636238906 -0.3236260404626362 -1.0078881229533545
Ni 2.0938562316888776 0.8978047815389212 3.8992001542830326 -0.4060406954151265 1.3802566229270163 1.7722038163635545
Ni 3.889170062738769 5.245964727994354 7.395044783002072 -0.7196600023740379 0.8220194758795715 -0.4829621884635295
Ni 5.754495236927496 2.6925115353513105 8.463296831222182 0.10997508106926221 1.4124938856941673 1.0855608923454851
Ni 3.3514429042138194 0.5577708100094301 5.973468272021168 1.1243503544088573 1.2569089772055904 -0.7825862095846136
Ni 6.098352601104068 2.347653090707451 12.324765436112944 0.548939523795603 0.9073883283643793 0.6138174554159107
Ni 2.5255698871505214 0.6523462799171401 1.7546571061637575 -0.28584933593449485 0.4441241325504093 -1.2855718923579214
Ni 3.3358297226139215 8.324581060086667 7.733649689203948 1.535364334668859 -0.6711767100616699 1.4802568521717538
Ni 7.082534095365859 8.73821097756584 3.4456115129774854 -0.4079065449792717 0.8475227623569985 0.774767227760827
Ni 2.2712954484594805 3.469138740803637 11.882884844162426 0.03879177605621706 -0.6308463858737393 0.18258303434397588
Ni 4.39908738956696 2.4386320183125023 10.617397901747935 -0.46028145903656215 0.4345850827117226 -0.15286776666773028
Ni 5.292556298733344 5.338486605310455 11.316289831281713 -0.3471251520258409 -0.4407009658014733 1.6536700470910037
Ni 2.5163305573331702 7.558488160102036 1.2945329707249822 -0.6170066517771696 -1.900885986924017 -0.2069504074447468
Ni 6.372235359039686 6.148094360836448 7.064585365483105 1.5877942703338008 0.7560670802481624 -0.0818397562856268
Ni 4.3083288833492 2.2135266765398587 4.285281990462858 -1.5645116456567765 0.5333005317067655 -0.7745240014017692
Ni 0.22015963689526427 2.2686687602609092 6.063772159127636 0.5873448630466788 0.3499060572050877 1.0574631056680046
Ni 1.740630958552367 1.1507741419327 7.831386369174414 0.48640515270680745 0.7375523092734265 0.2796480922197893
P 5.637598427866615 0.7967663728713005 5.121739826228439 0.6192975046938753 -0.5049325220870337 0.8661131237646761
P 7.890121321508336 3.7478799534841647 7.387033383996429 0.8676030780466413 0.8800960683073293 0.9085193566450288
P 5.552552509269524 7.2533147493953285 8.764398875221104 -0.3239607980942356 1.4853476364311 0.1270011833136135
P 4.260038231083164 1.1850037465343581 8.663879375236068 -0.8854735305691589 -0.9402771086726 -0.1792611690595945
P 1.915480224022281 6.466640002372245 7.533457474730059 0.22770229528011754 0.3803553748338804 0.42993961351991117
P 6.473316933562318 4.600212721247055 -0.022285520677736426 -3.1105252325093655 -0.6547766714370917 -0.45082211339587525
P 0.7230675636075478 8.851994334531213 0.6222927421822312 0.7532743479943738 -0.20917209768641395 -0.7103947750220282
P 2.9441868385171923 8.130270422963704 3.582909239854751 -1.0904979246357864 -0.06672269813853025 0.21185144429079
