# total energy = -340871.1112391275 ev
CRYSTAL
PRIMVEC
9.26870215718722 0.00000000000000 0.00000000000000

0.00000000000000 9.26870215718722 0.00000000000000

0.00000000000000 0.00000000000000 13.56568250181506

PRIMCOORD
 96 1
Ni 4.010020640457257 1.324747816500596 4.696073302524637 0.5367162422565338 -0.6067829171666324 0.2551336520181929
Ni 4.939597333541682 5.652175167908639 5.658503837852781 0.887285129856601 0.6407865278055868 -0.19712930758926697
Ni 7.4583949951275725 5.8347315288047295 1.5853939213135069 0.3536848075212296 -0.19050023230852353 0.9112087305517339
Ni 8.605267145403712 9.201902782448915 3.5718575681996754 1.301550784284681 -0.09662025702891101 0.09806316012302466
Ni 2.1579021993493375 6.846744060323855 6.56522113040522 -0.3165300528478033 0.2314072549355305 0.056833206938960185
Ni 8.133888751511929 8.663076041773985 9.920529371949948 -0.7685947804015278 0.4018017176331144 0.6114011326649341
Ni 2.0376963989603536 2.76902481812081 5.728462149224203 -0.15722398675389698 0.19084758834561324 0.14497036619752451
Ni 9.019402033766744 8.147782536289712 5.878647567267452 -0.3048963252636168 -0.6544537408800342 -1.1751576668687116
Ni 6.518492967658589 4.871870925688934 3.7998973051208136 0.11508823392611148 -0.4723301626709801 0.43705925528382794
Ni 0.3240709079189155 0.980387719203048 9.200694143666377 0.5404340574277532 1.450567038416805 0.23817028469097692
Ni 4.460535185426562 3.27193533730547 13.460928964475306 -0.14182025060431702 0.7253791642460024 0.7433666019623585
Ni 1.5550472630473666 7.398825045316485 0.49494128892986367 -0.6433247208464082 0.7396680700648488 0.8274504170871557
Ni 2.5763933778028028 4.766513586416702 1.6534799548162744 0.7704326049412151 -1.1080585592273693 0.29335901404797865
Ni 5.37441996548311 6.836159202274336 3.2894476234690093 1.0671919029199943 1.620705419239525 0.3710461816178126
Ni 7.578888125288478 6.095580618198451 5.843878811124407 -0.04356939995051851 -0.29437100025226076 -0.31316396458904777
Ni 8.55733868570663 8.24445510148804 1.3640971653302196 0.5377680805598158 -0.48962777340916314 -0.6586531236733625
Ni 4.282233158895382 8.22990323884553 8.091278673206103 0.8993646867289543 0.18602702702851834 -0.30722625894837413
Ni 1.7611924713480358 4.647169775343485 4.069962265231379 0.11834942117588651 1.2442511792322637 0.7407592462464984
Ni 3.929132675310009 5.8898895763114645 8.243878588203732 -0.47511646716686556 -0.6256265322356968 -0.7975903963029296
Ni 4.004014521353851 0.10856338340474389 2.5582980902633303 1.4456189503829102 1.1294115709818484 -0.8530637467798856
Ni 3.730624877721077 0.6612486877886415 10.86421302996552 0.9049730340546673 -0.0801310011246362 -0.8185505434943644
Ni 7.358691564270583 2.031996147033511 8.09095334175467 0.6587199723555559 -0.8357975035002702 -0.12777868490958638
Ni 1.1140887501700527 2.7355740714476786 0.5490871941432466 0.5541218393274908 -1.072671695087643 0.6545879524650533
Ni 5.6350929495327495 1.144471556375241 6.713344262182252 -0.9591297226027288 0.06316480558394283 -0.30487704198990717
P 4.312171067389207 5.047781627021536 11.919609576434196 -0.07185924803414721 0.08854467910962815 -1.0446543839391105
P 9.198510437399769 2.6519054956044097 6.6779109400828585 -0.40402520764699446 0.1375131385885309 -0.1756243436379556
P 3.072769461851813 4.901085875401793 6.18160993252264 -1.3785095583289229 -1.0427453398418558 -0.42468350732729443
P 7.172427722446463 6.935983126261486 13.456004502932654 1.0639589978049935 0.49173427822920474 -1.6671631964814322
P 0.6846669910705294 8.466978106788272 12.257937602261842 0.9328587047213417 0.42616497696882727 0.8857306408852874
P 6.683021702542145 3.575096052790308 1.1007408919589203 -0.15487348424384942 0.2002038327495326 -0.22104648052649675
P 3.0872101000664816 1.793938796644842 1.4690689265859365 -0.8646553082722269 0.18548118182737736 -1.3184727568510002
P 6.3903809641905855 7.79609089545699 5.246799203238072 -0.8879507884650578 0.604116940298695 -1.7360376508556425
Ni 8.64228634247007 6.981872471448151 11.542334463457616 -0.5893384964379399 -1.0962641376956024 0.32604647697867073
Ni 6.05559543638967 0.28614615863588644 9.39328572856441 -0.994952388728293 0.7964804510682024 -1.1716380837512272
Ni 2.726852222564493 3.6748550958612176 11.944950208577266 -1.3415517501576508 0.17756012720808775 0.7275815712139598
Ni 0.4306294710118283 4.84342527826864 6.273368231750866 0.7226208847745748 -0.6019973228525309 -0.29333176035446906
Ni 5.781788701152492 4.40695281731424 8.934765805401259 0.7706174672585115 -0.5676435279630095 1.5214767780534892
Ni 2.1149603015004548 8.673670168525826 8.778679004590822 -0.43412151281174266 -0.9282458885396787 0.47012929836491935
Ni 2.9039585864963837 7.943796935629621 12.161078736146882 0.5153112942181963 1.2268149860336872 -0.6756465729075655
Ni 6.638170452015329 1.0791179363164298 1.305351203155386 0.8795923891980335 -0.18213309129075086 0.23646178664030243
Ni 6.693439723949903 3.831811300949277 6.759250291033094 0.041759600435289375 -0.22310696259995125 -1.6532792394104883
Ni 5.2484768383580045 5.327084702734514 1.4398345125982048 -1.1126127542569548 -1.1126099260434776 1.3807165932825705
Ni 7.876191020907032 1.0741684492775128 5.520405734505136 -0.40438104832451643 0.5444413788149334 0.9472743659260396
Ni 1.8347118181508286 2.56274057928534 3.0875901168616045 0.46415765416251675 -0.9317922111300404 -0.4700495941669195
Ni 0.740746347587879 4.992271368826638 10.509429350038822 -2.0546258717840553 -1.0730812718212357 -0.8270778642390854
Ni 8.839978494254835 4.024776414550807 2.2805002518071307 0.4366237104083061 -1.3932196108455877 -1.3479381132999688
Ni 2.582612677059569 6.258098044678551 10.534986869816182 2.7055631148703982 0.5089920368683879 -2.5426706169768147
Ni 0.41712589860171884 6.130060190829109 2.3450456410236318 2.013732990224435 2.263615678256334 0.11977946875419371
Ni 6.249515226330167 8.163669092066312 1.3811358208052036 -1.4785007887125956 -1.0901719087549353 0.7965521848464024
Ni 3.5228761839190357 3.695264778370011 9.583002162002755 -0.5409850448352167 0.9415536613921783 0.8968241796952878
Ni 1.6143576891934923 5.8626303227881404 12.431619180686468 -0.6992413295083699 0.21144778109446813 -0.09182746362595798
Ni 3.6805646164903805 6.230264131611382 0.06036057011898963 -0.600121960206689 -0.6698358797630592 0.36113329337947486
Ni 7.004812509690323 2.1013445777922724 12.836866310394784 -0.022783830663734957 0.5676119033941257 -0.14214935180896163
Ni 5.001623489467589 2.5403381257777315 2.0576018640629354 -1.4553081526462162 0.27465115322583017 1.2820705640728822
Ni 3.051460715217973 1.6512934679389701 8.435046500425399 -0.542171351833834 -0.9517843379812512 0.7440872821784669
Ni 4.7746885818630025 0.9882105039611867 13.100854709264311 -0.15484648766065587 -1.3981005930869728 0.381664066342975
P 4.313413073500096 8.233165822062194 0.44492180998937575 -1.1783432636855449 0.96443467975541 0.222202705618127
P 3.6256938987555682 5.75493727053125 3.2280359825069236 -0.20383448752358443 -0.6590192487635296 0.14109288551998928
P 8.657626044809785 5.376264437244805 4.026728403259414 -0.10328892729833823 -1.0891591512197047 1.3127970466224617
P 7.284847812886588 1.3440174486240206 10.790686268200872 0.8685484726790461 0.1835777941570774 0.6886257587760527
P 5.868312037310343 2.6347954711215613 4.88517892848009 1.367469241354361 -0.9289300590908971 1.1839868351245675
P 3.4417008889998657 0.4593782049979883 6.646072020743187 -0.23141316847280147 -0.6539405486890415 -0.9350356577680026
P 5.152416007512802 2.3168048319246113 8.99430516849469 0.542317390493395 -0.46762581521677526 -0.4228341128233814
P 2.2035320208710405 2.1376593534823054 10.639239379771862 -1.6166165938821317 -0.5161044795434531 -1.4250354698046037
Ni 7.126121285655395 -0.31782194881472453 12.509200999716146 -0.35531334426358807 -0.2512312316399931 -0.6167868224568797
Ni 1.94002281391146 0.32010668393662167 4.374091560108665 -0.7140220873619703 -0.2332286244149854 0.14105329053130547
Ni 1.104152701282938 3.271712888449788 8.574963123168244 0.03213107620658982 0.6265904388108628 -0.6604840062345141
Ni 9.040979572767867 2.8457418672240267 4.3078231191308625 0.8227273005798734 0.287595372091324 1.694460084524172
Ni 8.315286524618012 5.065290205704148 8.247880813865537 -0.09466647573664987 -0.12951392243313822 0.3998119408965953
Ni 6.884903307775582 6.57995373274297 9.668953619227457 -0.43924752118439836 0.38494659374898865 0.15188072016411264
Ni 8.934278271659224 0.8623721131722969 13.386073070797961 1.1158731701757816 0.35138572707440774 0.28700993190149926
Ni 4.119771344629202 3.5716759016342023 4.3217549055881594 -1.253627478240841 2.3046774812936506 -0.35678504371310815
Ni 3.9915388480310376 8.018650975566503 4.839218214285561 -0.048525458404213205 0.6372664304674702 1.0071340183961495
Ni 8.378387850013047 4.007694196174919 13.224194257907712 0.3184041299420646 0.3783774251719032 0.3368739066114779
Ni 4.146863761510765 3.1946436286584086 7.168689654800779 0.6278847321422542 1.1343308626603368 -1.39496410434052
Ni 6.268117511886547 0.07337197443590342 3.7472075130419134 -0.8080691843470664 0.4812868576436356 0.1466786071378829
Ni 0.31284002131768707 2.9071840949037684 11.591767233541244 1.5118914483578993 -1.825956584604978 1.2381422381210483
Ni 1.3919829831303814 0.13470853890919637 1.8991821308785368 -0.9154741906963072 2.6033003148437297 -0.8263237596818801
Ni 8.258979158023589 3.1106413795316175 9.91289196123821 -1.0788284587176582 0.7244764499260749 -0.792338660985687
Ni 2.602948209949802 7.750433267828327 2.5908822132695355 -0.015324289061896186 -3.4239488785177037 1.6480421593812649
Ni 1.2398094284394774 0.645741221936933 6.829371731565349 -0.26953234394202613 0.3564137764166184 -0.09423324485397319
Ni 6.265466663023007 4.858227395873791 12.88701833177845 -0.2426524888320466 0.4464746350604569 -1.2509735855577617
Ni 2.245982677496959 0.9407269419754699 12.638821021051625 -1.0224626783334196 0.8335788985823966 0.7807607263401005
Ni 0.2792493172395227 7.028475506713462 9.249069354815287 0.1041816143159367 0.39327593955029044 -0.5691692205789165
Ni 7.06287166102324 2.699565162934208 3.078433565839607 0.5220301009992687 -1.7476243272519774 0.5735899753544315
Ni 5.3787113746573025 7.1850702324110385 12.174006722142916 0.019803407879172345 -0.4292870675375768 -0.32234537397799967
Ni 5.334017692069927 2.5618785899695733 11.319219188079131 -0.47063297747421523 0.7387237038737083 -1.6791375952344887
Ni 6.8006971471977495 8.0821045116497 7.293372238410356 -0.7941073228503357 0.42450301588537215 0.7532861750689155
P 8.683142782296937 1.4576610077703946 1.9949018734783603 1.257222137570635 0.08759105694710721 0.24228662085219563
P -0.5584420953948929 8.804090078871525 7.767940919640706 1.6763757162186357 0.8243283265184062 2.7650538140368637
P 6.190436517742043 5.971129752146876 7.576637684365165 -0.18294915943414297 -0.3898448023815544 0.36217484727011173
P 1.6390680495787981 5.587757686784154 8.528826303629632 0.4091676710798824 -0.6659391158118144 -0.44485741117200805
P 4.803681082720181 8.14613270727674 10.331515682134853 -0.9824506567168565 -1.4373777934200407 -0.4995602020315267
P 7.457875947797648 4.845900021788098 10.934889665766747 0.6258638450574834 0.4294248786670217 -0.2745475377684304
P 1.0703868187309242 7.5544558259727745 4.3405842743513805 0.80291000874363 -0.02900795719657585 -1.0347471521277276
P 0.8855531376747912 4.819984730101184 0.4240143981659946 -0.8438923646932628 0.7999375563788675 1.4187599212085371
