# total energy = -340874.56539287465 ev
CRYSTAL
PRIMVEC
9.20251315178677 0.00000000000000 0.00000000000000
0.00000000000000 9.20251315178677 0.00000000000000
0.00000000000000 0.00000000000000 13.46880820192026
PRIMCOORD
 96 1
Ni 2.9964303764605074 9.094301009378423 13.567265452583538 0.09468421634846275 -1.7576680846412245 -0.5438816496567214
Ni 0.2676882302408068 5.720309914618656 5.1668772026654874 1.5770396029204583 0.039199553017597005 0.32592537801977417
Ni 4.732401699963736 5.104192442383751 8.76053045092188 -0.32918913637271047 1.2754193773049516 -1.6404129249707815
Ni 6.197736307944326 7.728454773376319 2.5985376251347687 -0.1501557670532059 -0.5032931867113977 0.2590232168805862
Ni 2.660483423593374 3.9375714181994463 8.708676128618267 -0.9884755227546976 -0.23067809007898982 -0.21430350537570833
Ni 4.890491677044339 5.552860981446839 3.3877552939983397 -0.41458987053671825 0.9551990200897551 0.5384028859303372
Ni 8.321317494340331 6.817976506166314 11.875017110575468 -0.9123472150315514 -0.5239491723988525 -0.24014746302200574
Ni 3.514541081368535 2.066801678939964 10.581984841314885 0.9758154107885261 -0.7420514826953607 -0.3381036652535209
Ni 4.88155603656787 1.0743382201698517 12.575840037320887 -0.8634983118496484 -0.02992866923863233 -1.6418064628841982
Ni 8.2991210321063 -0.1396131707483113 3.3831494360596444 -0.8407787587649456 -0.40008242094916263 -2.061299684259805
Ni 2.858208625732836 3.1537841524719874 2.703850267821346 -0.5310045365837371 0.4083433754063741 0.3272158146964236
Ni 1.6627653296924025 8.456668060898425 6.989261046908257 -0.258069080497433 1.8094624436046964 -0.8143200503527847
Ni 5.7341504947181505 5.546364007011837 13.081364464700936 2.290515587970971 -0.32502394925142736 -0.28455401416183895
Ni 8.309952390335757 6.597088577889598 3.2346420361450026 -0.20113020121854394 1.2350849393519634 -0.5971551642688813
Ni 1.367741953755093 3.4233625789577653 6.460462542979249 -1.0410952058329426 1.4526738003471626 -0.346165616326049
Ni 1.2063206668367128 8.09914121419265 2.6020658687585367 -1.4643972594316779 -0.9474918812534843 -0.758673407522758
Ni 0.8576576810031683 1.5032857730938318 7.594643787304026 -0.9841139033518923 -0.40729307976498885 0.6668004353708452
Ni 7.936624828183951 6.477050993569242 8.544234576813814 -2.2213284874523485 -0.42957580242258925 1.5989127488444657
Ni 7.231988379900479 8.284820326338602 10.095101025005006 0.16925109312176012 0.6050235112733645 -0.5294857859463655
Ni 2.521764737144046 6.941345400324446 5.346605049418924 -0.28698010710482835 1.0446171029432718 0.5011648275144853
Ni 0.7743859780747698 6.3807558937280735 7.483983564101613 2.1358776167766953 -1.385724073799491 -0.9174714236319942
Ni 2.8255673108306363 6.5389010858888605 9.888664723715156 1.2321795927797103 -0.13428203324574292 -0.7247610710460293
Ni 8.220614390597794 7.772838495331016 0.9699927616378338 0.19751960104915015 -1.371025591247052 -0.2600704271981779
Ni 0.8079880353721743 4.890896587632357 3.054308664012212 -0.44289925900437277 -0.7020050082964361 -0.2877969465791689
P 1.6167343578455444 2.1256885619563666 9.581360593693553 -0.27476890975061713 -0.18219274088409268 -0.4773507558140231
P 8.498861584672484 4.8086721307247835 6.942160743008499 -0.5655735328078582 -1.0073895860503814 0.10887747712970927
P 1.5451940189536064 5.906762037887186 11.90013721130525 0.4696554440522943 -1.6870938739670882 0.6280662520254409
P 3.932510035849232 8.799470886221757 11.172538651675861 -0.4913977208253924 0.058450173717092886 -0.08435069563293861
P 2.996550009134239 5.75805862443789 7.385392437176121 -0.3047929669165331 0.9938604412156947 -0.3635172202306191
P 2.782333903046442 5.537051063487443 2.674958977114987 -0.27117527886208787 1.2661040134412969 -0.6597795239683218
P 4.381739928227526 3.480602212082007 12.841148497605756 -0.6096047028861438 0.5765089487734394 -0.6996645330887176
P 3.626268796121175 9.471410804522844 5.813676774707391 0.5841034732912457 -0.05089755818081557 0.7414907250958843
Ni 4.60813095949593 7.980088298802246 4.539567633677254 -0.4113317686107367 -1.246453586200221 0.8232176099527307
Ni 1.5368933518992547 3.5855108644319036 11.286403190031628 0.10700777091082217 0.989145809348845 0.3069454944831617
Ni 5.919415493762723 6.130383112633019 10.500713764791824 0.19656109379062278 0.0905830496958956 0.21507792164788764
Ni 6.138812614874467 0.24418040985240239 0.8428121864443215 1.0733103571129063 1.0920637264610096 0.8731065243633737
Ni 8.487588505801552 8.787811301789535 7.527393660142396 -1.6384573439063073 1.2297514429541918 -1.209631275165549
Ni 7.54495665689764 2.452617051726754 4.297223125240974 -0.04672748596352598 -2.6711067329647413 -0.3691191397984288
Ni 8.373118442066433 2.9204084135602884 11.291858439953824 0.46816754665285826 -1.5860775447530104 -0.5562067468809776
Ni 2.785840060638136 2.34490163280083 5.025535799907412 0.7708138995400338 -0.5811315351471154 0.13882542964205125
Ni 8.344590650637953 9.302636709426606 12.235024954884183 -0.4645937132586709 0.32380498924266166 -0.3325804214424466
Ni 0.12044525566238155 3.6097778921728403 8.6504094950026 -0.2760639744129568 0.2766499288234139 0.6116081064694175
Ni 1.6417928017357872 1.0773566445532523 11.627756619500127 -0.7280903925295783 -1.1615231068044125 0.5306150144548023
Ni 2.437957447937861 8.940011670317162 9.432960863185269 0.1273390262690065 1.3907534086932822 0.4109237345390407
Ni 6.86411790817354 4.200496427523033 8.406543811107248 1.6747070702669609 0.49439871243524536 1.08536266029175
Ni 3.882209097801466 4.366822654064439 10.68735177883031 -0.06686513725366548 0.5807322428261675 2.7117890411754524
Ni 3.7200424073005998 7.940158593315736 7.8425907858763235 1.8836940485257625 -0.9537270635299188 -0.8289280300739466
Ni 6.673920361965851 9.022503000112291 5.000240851423713 0.588473063113851 -1.2177762728701866 0.22548369036224394
Ni 2.58493078887472 4.786052352876008 4.6918995981459855 0.3992028465576867 -0.9945854923071774 -0.21151231578381635
Ni 5.9043877894392685 3.0564031560538645 10.429827724600068 0.5856384218785333 0.4249390749815263 0.4700735054263195
Ni 6.306629648580845 3.647664639692535 6.239681363857556 1.8355748244210324 1.2346653353160415 0.34761134763364004
Ni 1.845904548149884 6.4351059376560125 0.7804044218148428 -0.02500269269192468 0.5469404910877032 -0.8227607249209702
Ni 6.408777546921534 2.845334309536564 12.776053599073983 0.9276650763355442 0.18825128837334676 1.1949664740645225
Ni 7.83072230439074 6.863317289510871 6.305679028950341 -1.0439804978005376 0.8580264901017998 -1.2716887066179259
Ni 8.495033339113048 0.8286752854145047 1.0133660476251611 0.02105656355998309 1.7025875987273127 0.4375022563585175
Ni 4.856543605244448 0.5302764275752704 3.115322247867041 -0.5778919451638951 0.8794736042319822 -0.19283068021391309
P 7.837449341659842 5.498602962652542 1.3652526738901238 -0.491005113372664 -0.09288752945935615 0.46087589808745144
P 2.8647976253014793 0.9928775718714936 2.0133175915195816 -0.18758871508868338 -0.3164902007488033 -0.15531519976695832
P 4.799368389713754 3.817009290617342 4.618158018057372 -0.15627113592232442 -0.8027652556356497 -0.7159678982344314
P 5.129214076220538 2.929500496763946 8.443407239140862 -1.393789881526761 -0.8801716587402713 -1.1194804279110655
P 0.1258084804509359 2.541780203710802 13.370391482930248 0.6877415563988866 -0.22812678441204584 -0.36364191873394147
P 0.3641140057717441 7.987376689386553 4.897042946308189 0.8739770998937852 -1.4151053551750854 -0.1525975437254791
P 5.027793176435607 7.67732560912579 0.572669645889329 -1.058283801797087 -1.6370337240859032 0.9474042066356844
P 7.542416763209169 4.8235709998611425 10.940120894405357 0.25960042954029483 0.738966930232766 -0.3195032765435143
Ni 8.661193920413902 4.72849983429739 12.976011330955558 0.06897215629433928 -0.7262016601472977 0.17847106905813134
Ni 4.50797080404187 2.2931282926148198 1.2979841417017666 1.0823261874582715 -0.15618526107673747 -0.4833473397170901
Ni 6.027075697608463 4.038237711888527 2.033157290081085 1.15414815449658 0.5565445898363706 -0.7712108778681364
Ni 0.002603391030682956 0.8603181276167082 5.2135201416510535 1.4197796207223032 0.6079939067555981 1.2167835699396141
Ni 3.94736289241877 3.955479509205841 6.5024039178871345 -0.3449731386798446 -0.31346786898271173 2.225831774639341
Ni 0.06703662885158382 0.6202540019920347 9.975484915796724 -0.8023556789020568 0.05859698370760231 -0.38938457491568423
Ni 7.675890017041001 1.7475296802884461 8.627405052095208 -1.0977018985833935 0.21740425578821915 -0.6197456479748875
Ni 2.36894780022103 0.2379567500643116 4.016937574456152 0.69324294583309 -0.9096496135947302 1.1970992041368091
Ni 8.413066552579668 3.3916415153919677 2.0654010564059595 0.027438555826926937 -0.7114993209401166 -0.816860043165819
Ni 5.589661832389579 9.613037485195203 7.186269373256661 0.523780250921156 -1.6089361945187386 -2.9393270429635634
Ni 1.0934426379135698 7.800620883177011 11.064989798241825 0.04519485136908345 0.9274182504320608 0.4376194986626722
Ni 0.7232669365889417 5.705420247995662 9.755215396418068 -1.0214411790474407 -0.9194894825032874 1.4203987423635407
Ni 3.946074540547807 6.511772076491712 11.978242623231084 -0.8868449569953888 1.293219124490534 0.44094342082958254
Ni 6.111794035637685 7.946075809408805 12.312740180243383 0.30370744716183823 0.5268748306860797 -1.2255636301250892
Ni 5.226236174617465 6.209717980344287 6.437430492531765 -0.4618976544837464 0.12554105382831926 0.7243892895289072
Ni 0.7630714878936998 1.4094569468342226 2.7600822257322273 0.8551285997287142 0.48909966881983513 -0.5608321614681309
Ni 2.5908480049677887 2.157998586377462 -0.11596363165410087 0.143133827209418 1.6855645818067553 0.7043606530128063
Ni 7.688212182435433 4.593811848701505 4.176919588284399 -0.9063876550140068 1.165491090313225 0.17517337214346607
Ni 3.172999000376074 1.5734457349811661 7.566157407185683 1.2400456257913481 0.18881230308313934 0.11530857746703367
Ni 4.064823772997198 5.022170440770187 1.0351603600251837 -1.2384818808486542 -0.47674294702669506 -0.016139842984656073
Ni 5.319954570716705 0.6471593903144375 9.191424335422353 -1.0367898935893693 0.5013746295324463 4.376327655549844
Ni 1.4397792283686885 4.070925039357547 0.8766387850678083 -0.02055545555384847 -0.21797118403528265 -0.3281650659835703
Ni 3.5113294042044902 7.810237509642417 2.19039235367017 1.0332517985291239 -0.6798084175947389 0.5102073973327278
Ni 5.50301096655391 1.793560652135304 5.352154164977432 -2.5848971297461936 -0.24430673660601795 -1.8188261442077838
P 7.490367347622238 1.4061992571033575 6.356954513163357 -0.7487913725223555 0.4651007348020765 1.149844899135536
P 6.467692037478028 6.47683933576187 4.685731153438079 -0.17381094457830068 0.9999141036089425 -1.2873027590060993
P 0.9130255229091672 8.329673376474865 -0.22115112015892732 -0.7010912382329152 0.28133756410707034 0.535197234508846
P 5.847571471929772 7.444851716523765 8.560532227981504 -0.2044356114426931 -0.08554471594103978 -0.47784440762098995
P 6.889903350619541 1.1390042815788626 10.793014117024718 0.5754401411892929 -0.383957490362842 0.5016949889863423
P 6.329387464130081 1.959491170602057 2.5188420188996314 1.24978290768377 -0.484316645608895 -0.793258344586479
P 0.49984371588043647 2.8628466924683056 4.266177526156096 1.1394453010687668 1.9555152442331225 0.595954973313193
P 0.35400688534403435 7.886250270029272 8.984476374389462 1.4817740601472287 -0.2867983301113254 1.6417689247780434
