# total energy = -340852.794215268 ev
CRYSTAL
PRIMVEC
9.55972463244950 0.00000000000000 0.00000000000000

0.00000000000000 9.55972463244950 0.00000000000000

0.00000000000000 0.00000000000000 13.99162331135800

PRIMCOORD
 96 1
Ni 9.350490696562035 0.5833076146930518 4.703227617525887 -1.356566221288612 0.11577986067649737 -0.22540681437772148
Ni 7.319613288667104 9.014992169300006 13.266674809292132 0.09084375955645 0.4812884003055323 0.0548377737754862
Ni 5.4455822787430535 4.234996141079576 12.444400852223403 -0.8235950478968074 -0.5090689128529103 -0.5324073304685346
Ni 5.992570588555812 7.016923735491506 8.186540718334236 -0.5825183881923129 2.714312064707622 0.8487052127008738
Ni 8.152236603354122 6.487209847640921 7.437975104184679 0.8829710758622794 0.2616287728242333 -0.6107280178573095
Ni 3.7891783944243635 6.595301651252597 3.7407440508320264 0.05718390541015959 -0.6364591040748265 1.3303445685879216
Ni 7.0120291566068165 8.983186966273912 9.91892720400309 0.6027627402636458 -1.8138011801893668 -0.21932692673222873
Ni 7.024036170433319 3.61218965717606 10.542590239211426 1.243384203246278 -0.9210473139087105 3.128965184382108
Ni 1.2750664786346237 7.323723970152291 4.753388447342003 -0.9384174297560418 -0.6707586486876449 -1.545515821280564
Ni 2.363441099771024 5.691238516242764 1.9031547102603872 0.5638508936897967 -0.9316487435736407 0.7484491586915883
Ni 8.986408593391374 8.546001650737594 11.600301088413202 0.6425492761329643 -1.6258656232842257 2.3938826768054127
Ni 4.3102120525341325 3.187279027749001 7.298156487286861 0.6870738409079006 -1.0547937863659576 -0.3266121196741536
Ni 3.211340854023927 7.300857109425385 8.32006234478021 -0.6149641674258441 -0.6187987106805859 -2.412337541076491
Ni 2.3162543002108196 1.787161794445205 13.029922499083826 1.593572310468159 -0.4663109530600937 0.41701802036223656
Ni 5.20336754202164 2.857745768502687 0.6943332977182257 -0.46038713137649095 -0.3172779867574213 0.5940641840483833
Ni 3.33172646319363 7.905270683613781 1.8309720993529248 0.4356803726584303 1.038117097041225 -0.9094138434348401
Ni 5.334354885533375 9.468687128847767 11.303230741230612 0.585909930372365 -1.4439893851992873 0.4962290807757647
Ni 5.990591725608292 5.437571229709129 9.988857543845645 -1.0769052735530162 2.101523050556226 -0.28604191156127506
Ni 8.742090717305446 5.5762350319013425 1.4637754379779047 1.2156322299439903 1.6127977343566742 0.21037588818652803
Ni 2.1759079865269944 3.3594592236320726 0.9521800957526149 -0.18840889699713356 -0.41179688117261337 0.8159185051881561
Ni 6.741077888386623 1.6709059862094582 6.803160650482223 -1.9452205471753334 -0.11133596597253083 -0.6791622993703078
Ni 5.098793716983335 0.45149909085671835 0.17660252438318313 0.09401958618127033 0.0012197313397140283 -3.760101076471808
Ni 8.653022765218244 3.335626830742366 1.8713657587657464 1.320681334466545 -2.2026990452766197 0.45153250919933846
Ni 9.257809168657623 2.892103417939351 11.726085073942638 -0.2784620423314882 -0.4651477859899279 -1.1660433632722693
P 8.612508653278182 0.7827301571536588 10.858856512957408 -0.5873824011528336 2.4846374761924825 -0.9352441742343828
P 3.8326942598210514 4.441992853169752 0.01199936604699525 -0.8124724556210846 0.5340471800648028 0.27815171017992096
P 0.9175557300056325 1.9883461941098124 3.368399477876137 0.6473197009384143 -0.6099258336709883 -1.3806944817953835
P 3.713207264743459 5.421214541287834 9.991151877697844 0.37711501351971183 1.8145442290029783 0.7242561063851526
P 0.41903522282055583 4.987193494522673 7.3463996363915145 -0.07123241308342572 -0.07446300420558144 0.474127620891035
P 4.412252550610636 1.662847138553613 11.583776148842746 -2.0396090866602488 2.145530052264795 0.2995736274991228
P 0.5787160790713407 5.437676386677355 3.2178357307705237 0.24133711245473274 1.0626258808158668 -0.3741027090559493
P 4.141769708885267 4.327247481386702 3.660977710570611 -0.2630480217692631 1.0523288697652329 0.3119483470143918
Ni 0.6946984791897005 0.2589031475788387 9.16107144969701 -0.7759777031291604 -0.55871100136007 -2.7100543178725323
Ni 6.538124939710947 1.7775064728172052 11.945837326278596 1.3109767055842714 0.36663802524778794 1.163595158842093
Ni 6.57420333953676 6.9833021848324215 2.7237213005541054 0.39954711727098285 1.0667206197105306 -1.816103860180614
Ni 6.1251830852128535 5.261700980213773 6.917920361851849 -0.5840204266591361 -2.3458968929547535 0.5630451099590497
Ni 8.570388507641582 3.125953395824627 7.232088276095506 0.5444840591274107 0.07002785125236329 -1.32346301097674
Ni 4.395284039828756 3.4654192087060807 9.687310377733954 1.45376446230818 0.9634108664765859 0.4368584521269315
Ni 3.4148387069895003 1.2625336799669924 1.641721103637062 -1.0923473191396993 -3.3120773517566766 -3.938723069285507
Ni 3.476479809818552 8.59555926194507 12.2496941218015 -1.8996803966516895 0.7564527457223553 1.5115646611461
Ni 4.154646657630728 7.660340985167267 10.237600616349 1.3407156274096006 -1.099232476295307 0.9845227087545367
Ni 1.2235586836527799 0.9870415426643242 11.17229693217543 0.8121574954838271 0.0020363137037384287 0.5348851025850659
Ni 7.257054452297173 4.7039388610200685 2.97659226204654 -0.5727535954960652 -0.0381464291627343 1.8150129411092806
Ni 7.670608129155853 2.315728515369691 4.7337298301184205 1.0602576376940063 0.36497992081907465 -0.7812554065883319
Ni 5.65711030019132 1.4414152426433589 9.539880308281468 -1.0430957812027388 0.07104292278043894 -0.6812958007735428
Ni 7.562927393692696 1.6708199486900008 0.2572168121974732 -1.2576196301193696 0.42903252832460953 0.4454564782085877
Ni 8.868537191734704 7.272034540407149 3.6245016262104177 -1.1346221686485103 0.4058810299088107 -0.8553188613626496
Ni 7.143121657086777 6.793914485057865 0.09309641994268528 -0.04209872894226298 -0.7676226462962458 0.4947764074896382
Ni 4.94929874706387 8.33070709788197 5.458566296401617 -1.359675199231239 0.5003153350299964 0.4617865828271789
Ni 5.8254857257694965 0.9462893935870965 4.711903067404511 -0.9296437973284698 -0.3856608462071939 -1.2740227540677416
Ni 3.0489498159102335 1.7377380193791077 9.631972957163816 -1.0921089778766482 -0.4370338013625312 -0.08760879755892009
Ni 8.965004370495244 5.5679371911358935 13.075563491211112 0.2705713267295018 -0.5607452581812794 -1.263988509760191
Ni 7.902660878856906 9.37921766833643 1.8337138283063013 -1.0751402112327935 0.6314783630307833 1.751576627031506
Ni 8.378190248898083 4.744548570203972 8.948090350142353 -1.8189014775304093 0.0929428081773238 -1.612031802724927
Ni 1.617505365799551 4.200686290264833 12.78214495874327 -0.7362449033159126 1.6042922679888243 1.983696848873661
Ni 1.0091149462673452 7.252494463765929 7.443487241264585 -0.8292409333286751 -0.20977116472299356 -0.33835049115700433
P 2.245302025831598 9.019112410509578 0.16998241524715366 0.7506099137883331 0.34382025602232397 -0.5853615140680629
P 6.858194071816944 8.521041210370557 4.135713623487903 0.23647104261168309 0.4071025610207376 0.627412420491526
P 9.316677951415269 3.3110296599019273 13.781370370135203 0.15596723152866043 0.19832358500768427 0.9454123730166363
P 7.027745343494373 5.665465499303075 11.980284837124472 0.5704611999174627 -0.39792552250715985 0.3615181875227193
P 6.73612595115563 3.1666491425279877 8.638623908350825 -0.7638184420588071 0.07171398070553456 -3.058616973675848
P 5.678256410529078 9.389781163780924 7.866496441511637 1.9057376585893633 -0.9270454404736743 0.053616499773875406
P 2.67739200827116 9.203385657738611 9.734056474000049 -0.20312074928601145 -1.146814339839328 0.566906649796985
P 2.792567567651497 6.731824075182758 5.916106177096685 2.1692405085078574 1.3660602768219763 1.4564780045846013
Ni 9.381454643842323 7.581205586715206 9.684959641507891 0.207294678158043 -1.5400403999882897 -1.4288281040778168
Ni 1.2513583621619115 6.650872329097707 0.16706000750291652 -0.3767748565714737 1.5404396923092374 -0.8544608842377284
Ni 1.9399931081747406 9.06388059980059 6.105916416689021 0.4497270805594835 1.2184311328453663 0.1489838582322918
Ni 3.5027594921506027 6.180227978216836 12.490279881487854 -0.8786235975268609 -1.0158508294438569 -0.2842477957753298
Ni 5.67448987912172 7.351619245905265 12.160315478671816 0.11687386507162453 -0.32607630177534164 -0.25148242841885077
Ni 2.148987802661205 4.832402437294384 8.652195849059014 0.09875452976309444 0.03860202864291416 -0.24528478424857109
Ni 0.6412338086264194 2.8980973651282183 9.198121117520255 -1.342991567927971 -0.45597100458666634 1.0815975368223631
Ni 3.5698878767761606 2.28252759258351 3.3194288337458486 -0.3363946529822142 2.0525149960886395 4.634949266116636
Ni 3.6260225783599367 0.2083876519880704 7.825038784774857 -0.41067150931891855 0.6301899832366631 -1.0037131656400584
Ni 5.218366749580384 5.324489249968923 2.0378378432190374 -1.461028342959445 -0.6748685570909603 -1.4925346410978424
Ni 6.1382990270679185 6.421783093955742 4.92514897132461 0.7697921431437387 -0.7955401986421202 -0.08627310946663207
Ni 5.437532990811593 9.338932989781588 2.1257892194981687 0.8264224900432735 -0.5614289145118653 2.71157666805433
Ni 1.869633536707337 2.7381822956300215 7.375460242546916 0.7891602632577054 -0.5248511153878317 -1.410731394477106
Ni 5.931483949741041 3.7650400903543644 4.788703025189521 -1.4677990860243755 -0.11868083637337624 0.6566435494425014
Ni 7.46750222489003 8.54060996618493 6.382810965558845 -1.0334580010026588 0.503393459734688 -0.42403841754412774
Ni 0.11093677758840112 3.647245166492768 4.314036898260234 -0.8802907008166387 0.8031694330526038 1.018622478651723
Ni 7.1008389961356455 4.016384363862649 0.1501297356185725 1.128816617710327 1.5804535136980136 -0.3145855275269227
Ni 0.9514420850301579 0.44009433966641776 1.5671179705155305 -1.1408727775439125 1.0419148735207604 -1.2711906839355849
Ni 2.879656656791177 4.6970271802903225 6.212797959193663 -0.25805211121656846 -0.4533608206573289 -0.4706422334455959
Ni 0.19010945896556014 4.946669822858227 10.477374755435138 1.8893471330464817 1.4700899389410813 2.5890270927541668
Ni 7.777734400604729 1.1366703487251668 8.667320289007192 3.0554686578548536 0.1448335835093441 0.6728402138070219
Ni 2.2197584422771275 3.6866407906798835 10.816867335544869 1.1697724912973984 -0.5469304637853742 -1.3446458157019423
Ni 9.519764736232323 1.033167212817887 13.320486497850556 0.4762513521022572 -0.9220186766830444 -0.33186411210171235
Ni 1.5715804498580555 9.417695558982667 3.570493963302116 2.29859810786879 -0.8733001284314186 0.7909767476411539
P 9.207372062806805 8.300947675874086 0.7562554564441714 0.7406648867604793 -1.3725029471235264 -1.8377934293389058
P 6.650795851302635 1.9645807192907951 2.266782726522801 0.25510794098657996 -0.023443061514288658 0.23243363931751582
P 5.111708904626332 7.53277602298506 0.26584924331636794 -0.45884266970750653 1.0293617194460982 0.9271290013264162
P 1.273336168521091 6.594489074679943 11.77222986354497 -0.9548120690639815 -0.7500951789354438 0.3660875520609566
P 9.366312040417817 9.491926818825654 6.650246167150545 0.6729728827301442 -0.6438037173653557 2.742260470291432
P 3.8019406264772146 9.427322201437514 3.596406552217815 0.12753057345452232 -0.588430897022006 0.3143132477021426
P 3.0011989926113634 1.6169317823365017 5.764492772253692 0.41523547454051707 0.4722103492636642 1.053510805888476
P 7.7264464792837195 4.762081104724518 5.589918821384827 0.49927043870524984 -0.3991897339315641 -0.9358026178410142
