# total energy = -340871.3123840444 ev
CRYSTAL
PRIMVEC
9.26792540933079 0.00000000000000 0.00000000000000
0.00000000000000 9.26792540933079 0.00000000000000
0.00000000000000 0.00000000000000 13.56454565281100
PRIMCOORD
 96 1
Ni 6.930146891150936 0.41483697880239206 2.485336945640352 0.2094646892261683 -1.937282780385496 -0.6354309199206283
Ni 1.538966831046874 1.156349795203263 4.339135205512133 -1.7636456423808982 -1.4204745899067988 -0.2535760777230859
Ni 6.049415932033158 4.45616686140349 7.791367013531528 -0.507220803900578 1.0935454532128586 -0.936629998838316
Ni 8.886049886123217 6.219584311916999 12.530629146511615 -0.02005434754771385 0.4548381765338038 -0.05737879502978505
Ni 1.7286071223808523 3.572609185011894 2.7741801846045613 1.4516785263134289 -0.2955457372866523 0.4387222448085476
Ni 5.81047954502889 0.7966940447559929 10.88077344058678 -0.7565784726669421 0.05504603313155036 1.4824474320651695
Ni 9.08403131039633 8.81761552432036 2.2562319739936796 -1.723134312530413 -1.2202496741113436 1.0756680587118055
Ni 5.975791531957059 0.4652035198665356 0.3082539821061248 -0.5021248774349094 -0.16767397844262735 -0.7639210290749424
Ni 9.122344914363424 2.206442824687434 6.637118257036379 -1.3340590413250315 0.041626674401850895 -0.5015206681920072
Ni 4.782240283845254 8.210130812363156 1.8065123772398248 0.6587945343472331 -0.09502154508322344 0.4894115436332991
Ni 2.6409787791144166 2.106645803033427 9.480111861596255 1.4896357222834926 -0.5116819249957252 -2.115895003007182
Ni 5.360623709770364 7.010731503268468 5.432315747382229 1.741945531699645 1.0552943801514598 2.4450861962624213
Ni 7.279519878269349 3.3710225377239764 5.179567371023304 1.4925832349475907 -0.23628952272849632 0.37214687088115905
Ni 4.946412315938407 4.420661438859239 12.899612137169935 -0.01215411886403068 -0.6912817083416611 -0.03282861649424669
Ni 7.767003491008864 7.839840117418488 4.943056400119228 0.13557684079776652 -0.6884900045291369 0.08713031526060477
Ni 7.764491883201635 9.184467818909004 12.030720952862984 0.6329228087867939 0.8438779665155596 1.1991702277332252
Ni 3.9929930172188106 2.762601765292493 7.462521554576326 -0.847337642929386 -0.06632520558979545 -2.2702660936933157
Ni 8.298509749816034 0.9051491624008215 4.464078889392534 0.3315105854170355 0.13492069527100634 0.0025536196597891504
Ni 0.603920267814546 6.607289438853483 6.535208148371125 -1.3822170890874967 1.1762149044886323 -0.8996115126324377
Ni 2.989758619001603 6.921592595925578 7.010346884360718 -0.35782942581722244 0.2892298223709535 0.9870138506075067
Ni 0.9665704849869655 4.3938215266461995 0.43123286578308506 -0.08408047269068744 0.9640096764028495 0.10708438978502847
Ni 1.0062372060752964 9.20644207024088 6.721666760885098 0.4108342601490279 0.029578484988065194 -0.627070720881391
Ni 5.413877209623997 2.6402280771498945 9.186588320260642 -0.3978257637045019 0.16188333990277928 2.123589543437962
Ni 8.049703022167124 2.3701236567297266 10.740204034333734 0.5621902181579223 -0.9702744263656387 -0.30497397257908765
P 7.477983234667835 3.313376041189066 8.9123948911152 0.9996850183172719 0.2529343303740289 -0.35718099359994615
P 0.3080769647293054 4.325646666757003 11.78478264815259 -1.0037134227503748 -1.0405336769025175 -0.44705364749237847
P 7.170797844370469 7.779821031958669 10.576276675473462 -0.22571740363960482 0.15792178415186994 -0.7263117033626008
P 0.7447260061675355 8.348093151176448 4.273822281013608 -0.5145175946723074 -0.8022654331810958 1.5515026349916183
P 7.755066402980412 0.32111415551317346 6.581721086017388 0.2747380565126817 -0.23051611057982882 -0.08411903923810674
P 5.258778476583525 2.7827409673777597 5.015666889146947 -1.8279746434762711 0.47202805804952896 2.7146329383821506
P 9.154828993198612 6.148517859275569 1.2613248068273746 0.14650120101975414 -0.3505120662202028 0.5231019939072088
P 3.657438507002897 0.2918173162532849 0.8019118868056964 -1.0050699367782692 2.1044024289865497 -1.9759375166432165
Ni 4.997283958941642 7.848765129663363 9.692831140980271 0.512013340193215 1.0016277438659393 -0.839208071843716
Ni 8.729699983141876 4.094930929660529 2.5035678818676548 -1.8794303881534018 2.2908662864421707 -0.8864819172290153
Ni 3.450921323355402 1.4431179456507246 2.8450816681723063 -1.2870173665551963 0.8562480580451381 -0.3317620393062093
Ni 1.774613104502926 4.495462865472304 6.538517724562864 0.7456314867371353 0.15891114464833278 -1.4593139313714996
Ni 0.9729838894246114 7.923881665743018 0.44499573513265783 0.6079509693328046 -1.18795481863338 -0.8615761551262711
Ni 6.251308420862177 5.966023138492782 9.931539537017535 -0.025132790511885748 -1.496540419823126 -1.5280251206949684
Ni 7.329761302339406 7.260085038521166 0.577671649247637 0.880947103453715 2.471855236826149 -0.04541210958621211
Ni 1.7885335285857937 0.5745798693048643 12.48672049592746 -0.1744022983053964 -2.15714063992053 -0.3601174505204508
Ni 5.675677568806981 6.06756253013852 1.5473617179538388 -0.0967200158315689 -1.901074448785739 -0.1774914787536814
Ni 5.879979718262861 0.47204417566917517 4.988999360347983 -0.42132410393675823 0.024524210393609375 0.20707433461712077
Ni 1.5347591928753548 5.869265996398816 11.10873938419099 1.4240142276289411 -0.0806177109530676 -0.45931498135823473
Ni 1.2331530937217206 3.7731763604961395 8.70168304439187 -0.5772196016872188 -1.235961942640278 1.1258860743270933
Ni 2.892871725950806 2.6713961105657957 4.91646950227201 2.8593202261216177 2.6912343569525525 0.683579711711713
Ni 4.161761940353976 5.065431015054376 5.634983961574588 0.412839977725147 -1.8820110043963847 1.1419467273343817
Ni 8.624332938269625 8.538595359580803 8.26759102359576 0.481977455952757 -0.16907085879015396 0.8217145430446429
Ni 4.102400877603799 6.121575999882163 11.279679782267975 -0.5644795284127311 -0.9133784845095431 -0.10695454907538356
Ni 1.9088590051955603 2.3085012201604944 0.21700198775198773 1.862199626097412 0.6232024961752364 2.71927455091922
Ni 8.698476342173047 4.52634359319808 7.365630027562784 -1.3358585564276153 -0.08073135371279644 0.12492296062834617
Ni 4.3724589583965265 4.086886370337007 3.015900656425401 -1.1615632160137286 0.27689752605784573 0.5133497996164513
Ni 7.182484698410746 0.9171780028916031 9.140984566104745 0.7461760463866955 -0.4461712448874251 -1.6010997291934557
Ni 7.372569850168145 6.630422180871351 7.81761377851334 -0.9098463029865685 0.028295761620899654 -0.7351794381658757
Ni 4.441189893814999 2.438502410979658 1.0958033647831795 0.9664789638789484 0.7391492214469012 -1.0658364173333645
Ni 2.023994443532087 8.678086906099605 2.5639298805705284 2.6183741784577164 -0.41052701332125424 -0.19862106164344503
Ni 3.4229229204563723 4.868571009765301 8.445340566528726 0.5964715079382953 -0.42275517995632994 0.8170523616822831
P 3.861008490345231 3.6647509002128724 10.71132517851335 -0.09467033239139179 0.8664093148488562 0.21484215148799773
P 6.331012580058355 3.94943376742555 2.0832294624956287 0.9232800598939711 0.8119271246405758 -0.20094611023219586
P 7.627113423694081 5.683601645099159 5.817453658958557 0.3989431651383968 0.2707621025840692 -0.11034557703480352
P -0.054496328661564224 2.861397850993803 4.128600376165621 0.7338136681666008 -0.29472324138535694 1.0853958275225306
P 1.9668113432715726 8.992417866948164 8.827371869481501 -1.3151282658587995 -0.26485859261544065 -0.7392507800217721
P 2.7839643335421664 5.432654026662538 4.1679918398669615 -1.692886569389465 -0.42632027159976904 0.16079139239018117
P 7.138295229684306 7.475378947605728 2.7504153700684166 -1.1517043209417779 -0.011364275972883654 0.597200672794836
P 1.0980174721822453 5.874001906323148 8.436998506797043 0.8181404525401393 0.26319200354629513 0.48203324889135685
Ni 6.994077041166662 2.439911135653823 0.7040435204457276 1.8624230549621281 -0.027981572814590523 3.2924503215543686
Ni 4.009174815120733 1.7434728748634887 12.387726076620707 0.48216874602795673 0.23135788975483382 -0.37015555148274315
Ni 0.7258064630764797 0.7861990459334636 10.314616261965346 -0.2967850090103921 -0.0037008458903549173 -0.2796786883474086
Ni 1.9053557293611234 2.772073585141155 11.396741095520895 -0.7453448087346518 1.0576471966543526 1.0699483826192089
Ni 2.160344163310481 6.040342632980476 2.2218729938322848 -0.5249765852221023 0.21090476410680448 -0.8346237949071432
Ni 2.763519289915797 6.979850775542692 9.464403654686766 -0.5650629117200269 1.0429024342450104 -0.2661986515831028
Ni 6.495017789492726 2.0770440490249857 7.0186889440924025 -0.24549458626653203 0.057600167011971765 -0.032311053427879835
Ni 4.970091865560062 8.218453409451314 12.371706467414825 -1.091154841493495 0.6349244125978548 0.015060493877548254
Ni 5.800433113799977 2.0890182087553884 3.1872071375591604 0.0977865094228703 1.1388796583732836 -1.0536936113232434
Ni 8.696446666491191 5.451801560720598 9.815929580896025 -0.036309118843679405 -0.6234948306046746 0.07697857153858356
Ni 0.03840628322197278 7.718828814322615 10.625122349965038 0.46485802266365106 0.47212704552123846 -0.2611356352378987
Ni 7.161279684894367 4.336582818832758 11.4627602359416 0.14373083736346856 0.4904140167558844 0.4850918332120226
Ni 4.543442915723306 6.564369675918889 3.4322501606674227 -1.496188950020978 0.11503321231845995 -0.10248134379537834
Ni 3.366916846732825 0.43846184766366875 6.648092407606634 0.44631831198825067 -0.1993545973753599 0.016537335533390873
Ni 9.228434857423734 1.915680198354675 2.1328758857493604 0.39601802107180184 -0.9790961384223267 -0.9876951929452473
Ni 6.335303629559266 6.404915017899092 12.143686769842787 0.3022432039114859 0.3919939875140733 1.1192922231596596
Ni 3.3675099939640516 0.10281836536307094 10.526684006187562 -0.6874996155914095 -0.5607519430494988 0.9049354959485125
Ni 7.386360523294182 4.880637848750583 0.31011127437390557 0.3066860701741879 -1.0489136734360966 0.2727382524738335
Ni 5.744093394758865 8.894956362517116 7.271003581538493 -0.11951207402542 -1.0290891825110018 0.7938445561072521
Ni 9.123058544625994 2.478234007546404 12.804605706200638 -1.166868687387042 -0.803925594492338 0.6044015614186494
Ni 3.6508860836829324 6.545667002284251 0.11428834994693038 -0.29254834522122525 -0.4612651631060701 0.17633448233110277
Ni 6.638781849661462 5.171474618487245 3.941151949209538 -0.29054879829269314 1.856736288989996 -0.9750430513988756
Ni 0.05973826731753619 5.961917447501631 4.141106514819031 0.16547851345320533 0.39189448582173153 -0.1853228018726421
Ni 2.9940589364280017 7.746567715307983 4.9742003369288605 -1.640928431154619 0.12270718392394996 -0.9415390061041591
P 4.0943007107273495 9.07611650202964 3.8183380346062625 1.481111229752249 -1.4202485899389217 0.8021181089699541
P 2.276489805525192 7.658772657160844 12.187066221881583 0.8104718802512881 -0.40630217660662926 -0.551194895488683
P 3.282532385165242 4.278676820384185 1.0324589476582906 -1.0827095389396193 0.7595139011461822 -0.8799070922249749
P 6.401495153394046 2.536659009822301 12.41596822596007 -1.7161715080593347 -0.7880150939096687 -3.072792236734966
P 4.8496551738444404 6.40067030802562 7.837649179833143 1.9456303810192426 0.5601407918280611 0.3071187868362324
P 4.465045534020925 0.7208981697380731 8.717133602972794 0.7589150912199188 0.004146932288838019 -0.3083125500340174
P 9.107293803371029 0.5158073198231702 0.355035689591538 -0.12070866543668243 0.6457150754554556 -1.2703260219424446
P 1.8975614040257762 2.2761746960586025 6.791049231465371 1.280978359449968 -0.38933443840403914 0.8378770117371183
