# total energy = -340863.2694848385 ev
CRYSTAL
PRIMVEC
9.34661447783697 0.00000000000000 0.00000000000000
0.00000000000000 9.34661447783697 0.00000000000000
0.00000000000000 0.00000000000000 13.67971505858731
PRIMCOORD
 96 1
Ni 1.3036003875881752 0.7586749938766536 12.4743545845448 0.7215289372619766 1.0083079840995925 -0.2017567790589493
Ni 6.397869899613236 8.53001963767447 7.92941926437015 -1.5840414881595881 0.14872983323995673 0.12910511703049377
Ni 8.578771579782691 4.4776172626899395 3.6495427202420143 -0.2251507325028574 0.5456161158493248 -2.0216509595199312
Ni 4.844883139453827 0.2843445807524394 4.0706320122329736 1.7974605340478138 0.11962880210894238 1.2361653169003355
Ni 1.5029636784563416 4.690121893781296 4.1400156715593095 -0.17073693363866724 0.6072408306396574 2.6087271422862552
Ni 8.769021921349571 6.867845724963635 2.6954645961320205 1.170621212450939 -1.0317777850867587 -0.3941660554647276
Ni 2.317866971514139 7.998197263066 12.224932694837827 0.4868664086139421 -1.4332830545253765 -1.5593283016836244
Ni 1.6411533763225319 1.7770064205217253 9.14925342198089 -0.17103338183316352 -1.9832335360839974 0.23651680824795399
Ni 7.283872890450413 6.557706357050486 11.440387206221653 -0.057152280841275764 0.48369289598196696 0.05746389854442362
Ni 4.0470561113944425 7.120540799127337 3.0100024809079255 0.39043769877054696 0.02859915179393139 1.3240237685762164
Ni 6.119920272616634 2.2520387644075055 2.791715099321485 -0.26288347116694083 -0.9270482686871518 -0.7723424203694182
Ni 6.1913657951387275 3.1400325841689627 4.876148500179711 -0.0792884506186828 1.0116910416392124 0.8801888851314518
Ni 5.696827066440859 3.2123379952405116 12.54245214969282 0.1629873716002354 -1.1215244549242878 1.2007571126043708
Ni 5.435121855737218 0.5623175742857119 0.7655167158136204 0.1634116036218476 0.5246112314628836 -0.05905489718062733
Ni 5.666441222155232 9.424752366611546 10.613120211281041 -0.8875044449562587 -2.2925709278381032 0.30295565659747825
Ni 5.774787179386539 7.522753668134829 5.660966909944192 -1.2585987062031874 -0.4410269816823243 -0.06006585494364495
Ni 1.3683070009346503 3.2225631916872897 11.167504379036565 0.6424893694293063 -0.06047414612565714 0.7516643231947764
Ni 5.303437401679946 5.188436654805032 6.479260220142068 -0.33373356121028325 -0.09901395407206819 -1.343723560997989
Ni 9.146550381018908 1.9069804440947549 7.0511001254515255 0.3947278415054686 1.1441542765086616 0.40960938660299134
Ni 4.074890329875708 0.4997120799166002 8.567865949788084 -0.39779542468719875 -0.41003079041112606 0.36395302221645703
Ni 2.7878334502498703 6.719103699137287 5.146828330287554 -0.508248473834144 0.6846947991527628 -1.041936213676999
Ni 7.045758535168771 8.273576571028906 13.395245683953172 1.0516922646224984 0.8405239624416622 -1.3757636201526693
Ni 1.246165440453394 4.486833024752575 8.901897134115544 -0.3366394220031686 0.3363067212540982 1.0059821641798932
Ni 3.5469187605104486 4.30515352883624 12.074934484000103 -0.5230870815088734 1.7606677906994967 0.2991640507655299
P 0.5306605904052394 6.541443247528187 4.717504670774098 -0.5035143015832683 1.4888813606159712 -0.4001788373177108
P 6.715505252490113 1.0978627055164414 12.517664927593318 -1.5079746298019965 -0.4813850737843968 -0.11066516515775135
P 6.245987411258445 3.7225416501219275 1.1141473122524754 -0.3252021267005044 0.06754647959140625 0.08495361932426014
P 4.588870017082991 7.21543697785141 7.860227210644507 -1.0728789260024427 0.0651296426197975 -1.0250638634016926
P 3.291765526689067 2.2411499583193004 12.47804836666159 -0.6976852978751598 -0.10452922746334256 1.5484980438373397
P 5.618820220421837 5.690957392429362 4.407782161875139 0.20211313395710354 0.24279569927813024 -1.7380983900394131
P 7.528305557247613 0.4980502518286321 2.426740077812721 -0.07887527434066416 1.132419761680553 -0.5383013273554665
P 8.43696474203999 6.5688007886613855 -0.039565154551056504 0.8780448422052556 -0.16315320775413839 0.8575582922161297
Ni 0.23987993079242403 6.2532871173141436 10.19067659482469 -2.1057414595129478 0.9970344680683022 -3.9866954833997275
Ni 0.7227727776139813 8.392512242679043 0.5059331866396125 -0.46267901273446127 0.39701920864280654 0.7160344898063087
Ni 6.775445092355914 5.676171048024607 2.49753320663099 0.6085461797146423 -1.0023893046223125 0.3505832857777704
Ni 8.587557397570599 1.5752877827572263 11.476118379435901 -0.0504229325372422 1.3128908918878484 -2.2002004472244816
Ni 8.170034773736944 2.8779815487226066 1.609349650591772 -1.2683791826287187 -1.0934094418556266 -0.10145521652370915
Ni 0.012622603109116677 4.716899944805079 1.2536118883593794 -1.0476957418685957 1.6185973717575863 -0.38684535343359827
Ni 1.398337673862893 3.8961737108091254 6.6491349417327354 -1.4081502640134909 0.053699032185352685 -2.368525428987547
Ni 6.17036395197976 2.121260931973029 10.51057663243562 1.6561244221687672 1.997523213233792 -0.567270718004623
Ni 3.862768909985739 2.24157055597936 10.323752759806027 -0.6189722601439727 -0.22757553989426613 0.3681310648535467
Ni 6.911167283949756 7.935490825258474 3.2093162347183517 -0.5430013039342971 1.2478360683700445 2.515351103226255
Ni 8.12904986841782 7.836827960823201 6.064272398206371 -0.4481952172959894 -1.5684631741053567 0.20319196884357912
Ni 7.640530359566135 4.204939126366082 10.813377038511467 -0.9617687028874727 -1.0052787103549654 -1.3584230719916928
Ni 0.2682973780289722 8.981834990724971 10.5227104075976 0.8147802778186548 1.9948621214618614 -1.5651829606921883
Ni 8.577649986022532 0.9613647449051568 -0.008575518957878232 -0.15279526155858203 -0.22720915769378286 2.233185129680619
Ni 0.9443632528240881 2.345757269683413 2.2622966740056216 -0.12795660524834737 -0.7636387219478332 -0.15783128132059268
Ni 4.635023600313511 4.930797221481966 2.2398348896355147 -0.5610607325391693 -0.7300847972517878 0.5567045124530025
Ni 0.26453162697924015 9.324023900334648 5.881894710174339 1.7988985520459213 0.3649819777016037 -1.5746261083829591
Ni 6.408926944765466 5.721623635155028 0.07216708117446256 0.17328669664371446 -0.060105707042644875 0.712710053418766
Ni 9.299442303757843 5.069089732109504 12.013101954664034 0.5535248291734403 -0.49293961139121556 2.738663239858477
Ni 2.9492962186393488 3.2262364112518087 8.08910337198831 2.630317723972838 -0.8949377613058522 -1.1382906186390331
Ni 1.4888876767663528 7.743894571179405 2.8162976305597587 1.6129697411581643 -0.9703333046280321 0.047121636078151105
Ni 3.9389718593738388 4.654417825749585 9.682612380040778 0.30058252837961136 0.709856386020055 0.08325514857591469
Ni 3.1263771801390337 7.819676922907446 0.7955071982987908 -0.1321541882694627 1.9416994213959529 0.1546174023689853
Ni 5.33104730140918 2.5735623089862645 8.210386913243045 1.130662412669814 0.3526831057295926 0.14100829622598296
P 5.821679145175831 4.7847096342213264 8.41303834315141 1.079083769261574 -0.24977907257449888 2.2573481000800673
P 1.705916069357015 0.757967455146287 7.159908740108899 1.3182300447125748 -0.2101012943689027 0.16572225403289523
P 1.9604243867663056 5.9401381394779005 11.12437162166674 2.867220969025933 -0.8903496277145376 1.5265536783557645
P 2.4015752524806326 3.661816694624015 2.6993228786669654 2.334283477085541 -0.8285300233045796 -2.620678144000545
P 7.375208008985982 8.355593114740493 10.04300382171636 0.8461968444567233 -0.9214208951980454 0.542351329055124
P 3.601465603712822 9.169038335910086 2.544973818701292 -0.9291172354010386 0.47425874715226063 -2.0298895453796395
P 7.233102079573905 1.2745043761267312 7.7408718759957775 -1.2733411546196847 0.3819908535547744 0.1858935867744476
P 9.225332996055373 2.8435953533590816 9.595348646854582 -1.5457644469562604 0.7384735355361153 -0.16324602457826076
Ni 5.813444777653334 7.630183657128674 1.4014454232399989 -2.3179384600686146 -0.3392933146862479 -0.5073228766960811
Ni 0.29189664540417304 0.3117301617296418 2.9715486388408925 -0.7117386906444323 -0.5856458780777011 -0.41480172943720817
Ni 3.3617155908642826 8.79479988460388 6.537248486865195 0.6533126852970554 -1.0544520867558227 -0.31580937263169484
Ni 3.9698063411635283 0.16588371712743635 12.27686061661023 -0.03643973088427272 2.4318488716365407 0.24568921877584135
Ni 2.3539542507472375 9.254475740590156 4.306032110615031 0.5124146893966917 -0.11622903239877402 0.8663216402310563
Ni 7.8247988677455025 5.490117336443654 5.835862632934501 -0.6196644011149909 0.29603630376982565 -0.05194656827062021
Ni 4.113435768766488 3.0417622775497457 0.8800753678147387 0.37821904521716804 -0.3323325670976986 -0.14398691923833265
Ni 3.7131576489952685 2.6367454241418575 3.9675958667945497 1.4911030508576384 -0.8531956443720597 -0.681120194427627
Ni 8.67526602961499 8.821512509324986 8.400111040404116 1.0845044260565129 0.29623453582356074 -1.401274362829264
Ni 4.418182140016209 1.3836821820634893 6.207198025724831 0.6814361830061489 1.7941402114253293 -0.41003079041112606
Ni 2.865915069186235 7.179461857994328 9.422341874688671 -0.20801612970509983 0.4521184636097956 0.30461016148176573
Ni 8.425431019539694 1.4791858907409823 4.588778420259245 -1.5711561475564877 0.407457373256995 -0.49475172489928987
Ni 4.85016397674124 7.4903863415395895 12.417337431085679 0.8022754604834248 -1.9261547887931345 0.6989407675488156
Ni 8.159015115043388 4.0125203701962295 7.8165757161606075 -0.4062404701307584 0.1968595988676481 0.7582113802846747
Ni 2.7884316335886212 1.0564291626932543 0.8586127365526397 -0.5486147934663326 -0.6417352648721012 0.061162430441933376
Ni 1.4252278842626922 6.177392606210087 -0.046890096466358056 0.30775693464086357 0.29715910452035915 -1.9226781430984434
Ni 3.003628089704358 5.584060160471593 7.121454898041866 0.4261037847135887 0.07324173020397062 1.1748283085537508
Ni 1.6403402208464168 2.0087276913704635 4.852236121213132 -1.1681274994948077 0.5700775913257988 0.7622451840344163
Ni 5.355049407876572 6.879968284188014 9.857725879152852 -0.02145945542535659 -0.3536063888748104 0.6622619240705433
Ni 9.482327512966348 7.530745023675958 11.96999723713821 -1.4363143851525328 -0.6221925668534832 3.0784455783660016
Ni 2.2285413751321856 5.59503308609181 1.9083889789252206 0.33451029147530775 0.3387227868947586 1.6751328449504699
Ni 1.5526222421873574 7.626323505270795 7.2039023206896475 -0.7644290790596124 0.23058758724771253 -0.05616343456544521
Ni 1.772258340270388 3.6242619968880425 0.2623519964386656 0.6844364032850535 -0.8971602228784678 -0.8023034855078828
Ni 7.51875331705693 6.461828783786273 8.76265126879187 0.3659327716506472 -1.1262928228472087 -0.5768807302905613
P 0.2778785927251259 6.199235644689172 7.95829749970983 -1.3123453037970239 -1.0014997029285075 -0.14326469636032746
P 8.452339923168829 3.4925495029867673 5.3767167299999 0.4845156489935784 -1.6266667790292824 2.8257398190630107
P 6.635965561665541 0.15478835085506878 5.827982502107921 -0.07339779616586069 1.056124075141607 -0.8237714255736717
P 5.636046031254938 5.18148277349205 11.874334636011362 -0.8253742512844172 0.9533979623252742 -2.5521484745602625
P 9.17914202636618 3.0842706810597513 12.959136382190756 0.4297547512026147 -0.1125803799025932 1.238327871769293
P 3.8040721698707793 5.934165652705057 0.4714684797128766 0.9497891619280934 -1.2572090249445123 -1.281893929285702
P 2.77608475561221 9.497375562581807 10.39235691146905 -0.32108990430434375 -0.8092809452669805 0.028388321334705948
P 3.635057336829568 3.627449192489826 5.786396609465646 -0.41159042158876213 0.12247347064658906 2.2653866541138274
