# total energy = -340861.2773269085 ev
CRYSTAL
PRIMVEC
9.33459643377105 0.00000000000000 0.00000000000000
0.00000000000000 9.33459643377105 0.00000000000000
0.00000000000000 0.00000000000000 13.66212543629175
PRIMCOORD
 96 1
Ni 0.16571149133990515 0.35411071953238454 2.962454623316125 0.9563094795451144 0.8727861649094776 0.5046299032449502
Ni 2.986454804440031 8.900687139567664 7.243043888005331 -0.40615279551295863 -1.638308734143585 -0.2475015893942318
Ni 6.914135645629196 3.9737750788266926 10.940643727141575 -0.02020938506833939 -0.0551146815859567 -2.086313432695323
Ni 1.7188352656184387 6.81643975840474 4.604396150064751 -1.7025143222872163 -1.0929001063193757 0.04264020326802979
Ni 8.614721775042415 1.9204532159491328 9.857647572218339 1.1267702767042593 0.09293586619878832 0.8275776866936392
Ni 3.561689980660166 1.0083044473735312 11.330000949690474 -0.4382478762752904 -0.08038065524159706 0.316545479466771
Ni 0.6924991781387082 8.968316291387001 8.503224686856623 -0.2951418169800143 -0.7073870985439559 1.3262994519842706
Ni 0.24645295089707925 1.029979380503207 6.949431622007288 -1.6938993269246956 -0.509358161958555 -3.4875080913265877
Ni 1.6251999278820997 4.484676215800605 9.191454220545067 -1.1458118667167427 0.10139222449625764 0.9187585178745338
Ni 1.8937376006962763 6.324805228657205 1.9906260453213718 0.6229492425138498 -0.20540903109955594 0.6335020783290316
Ni 2.4571645123130343 5.85857947064911 11.03830040906063 1.1594109455574162 -0.5605462547965959 0.16444827241647805
Ni 5.448874694596308 8.976754766645065 10.3295777021625 0.946415360359854 -0.2255986186735534 0.4762554658673153
Ni 6.459447448925269 1.2525161616451 3.607921436866602 0.5576218820609493 0.07456713388361351 -2.1885973157679146
Ni 4.60748216767572 6.3540785233577495 1.6322279456053266 -0.8486471057694288 0.08497444525986655 1.0633936122198266
Ni 7.508572086900038 1.2018666409036607 7.945181970515143 -1.5286234164005996 -0.5696718712469478 -0.6191620075572756
Ni 6.687986375632357 9.019544557112955 5.3682181798675055 0.5297470100275522 -0.143069806740702 0.40707787843038923
Ni 7.541999277053944 4.86721731596738 13.016918429413002 0.34683641714082847 1.355108148685847 0.7524335972606332
Ni 5.891754626696857 3.012955723972826 12.740833735308842 0.9931235630496702 -1.3226014343073933 1.0465166339588299
Ni 4.921348641212424 8.941516664765425 2.3517573148997637 0.9988303836264605 1.0524412269733812 -1.00161643101203
Ni 8.819690845525372 3.0099406492954426 12.43562229966957 0.12235211457737638 -1.0646238850825018 -0.5780672943994948
Ni 8.838117339064555 8.387088304198198 11.04498117979315 -0.9358818078183816 0.3723944681155909 -0.9144130964216446
Ni 3.226428611889519 2.4585927055812684 9.432823550174952 -2.9210336439710143 0.8331744640551264 -0.3387394990653069
Ni 3.5190682129297173 8.205399717447115 0.3909581058528337 -0.7259854303714336 -0.550995120773051 0.9905447465789005
Ni 7.7122809868522 0.3912810828925782 12.743347542152865 0.06816611545327615 0.6489850044559791 -0.24609056797931814
P 9.001752816137431 0.7016769534415065 0.8293172928566125 0.8842874806808578 0.8024968324656114 0.20998688027822543
P 2.626904815512874 9.148567350273325 2.156443951061655 -0.2669872089226692 0.4657764207128624 0.5673416804518745
P 6.854394227872983 9.373521791915039 1.2099765383640666 -1.8097450078421218 -0.2512577140025544 -0.29412597412099023
P 6.849530903083766 3.5018738861317575 1.9376587442629218 0.9986786885399447 2.1498029686085363 -0.11303597938277307
P 1.045344126382383 2.3759535225506823 8.087063170387886 3.81000798860458 1.6054801176493383 2.7867873490592134
P 4.48642178535067 4.513930841308101 9.267989510908341 0.005649484976293496 -0.01713254591522856 -1.5842780296504262
P 9.217643364553945 6.843090031481925 2.8068431654156294 -0.33664250732696216 0.7886871802760288 0.9590196793874257
P 1.3300493203768349 3.406166267967 0.05309331811152928 0.3388829666217067 1.0560708533061682 -0.05880344329145356
Ni 5.249235678728788 3.677775023037707 3.471724072817571 -0.4781094883569186 0.4700539650422937 0.17584982938520038
Ni 4.890339111558339 1.2341923486676865 5.197468806783378 -0.47720008916877177 -0.15084919357580473 1.0696653041611512
Ni 0.8601419974995134 5.253016190321174 6.665614148142308 0.06764341018058674 2.971901377355159 1.7938195948611169
Ni 6.466121685440221 3.7206954978569358 7.966235219516293 -1.9440288408600774 -0.7557081542468469 -0.09660637307184007
Ni 2.2662346750027877 8.924387680143136 5.081845826933795 1.6395791162155764 0.2709251105244947 -1.0288932644501116
Ni 5.08600158930646 5.250309157329094 5.79962682629921 -0.11745004929006869 0.23118125496765346 -1.3369242786879685
Ni 5.805530958600897 7.095824232380278 3.923119957327339 -0.7675388283331878 -0.2945476350394411 0.9795003158392807
Ni 0.7041571557380417 6.6842058640399715 9.4287107269463 -0.8594220848977457 -0.5906055360758216 -0.023392410782011326
Ni 6.564284302490899 6.8040247450272755 0.6057975787006995 0.5728106739862457 1.6572369385066557 -2.0201514921562693
Ni 9.356626172205859 5.081698340308709 4.100427817929516 0.46732859569133056 0.5622696652456058 -0.8546192641924637
Ni 1.6467721804500068 1.1391941598387836 13.148866685124123 0.40918978256706945 0.3752265382477473 1.1397366070569404
Ni 4.318679085807053 4.002730997245407 11.264286323618292 -2.1689252912602837 -1.211000901819566 -0.07833791377995541
Ni 9.212873385729972 8.562233338785669 5.25784124326464 1.1091461358645929 1.1116182515541695 -0.5738992790647343
Ni 4.344965309619787 1.5223980163587914 7.637196292788817 3.4852257230503136 0.025501229594898017 1.3052441739758682
Ni 1.0779125336560433 2.8692122720934634 3.113885115433338 0.28201504979006914 -0.12072589182786306 0.7947884080777603
Ni 8.880356388337502 2.8335634479667484 1.2550140996750316 -0.08228044336747119 0.09520717873146828 -0.048411815644484366
Ni 8.789801467454216 3.5515806126242317 7.849738521432026 -1.63328762677991 1.6376042518773928 0.9839691502439118
Ni 8.060526779388299 7.754137317667646 7.179884141001879 -0.4413653388583495 -0.29579564851392925 1.6914801759602416
Ni 5.477802609225448 9.026060105486991 12.846291339543344 0.08750466788088801 1.203759132655488 1.411775262360588
Ni 8.99721620222657 5.3054019460161514 1.3365602014526095 0.4422171453356836 -0.26951820287463907 -0.8046611871067819
Ni 7.535511732469479 8.354529231521061 3.022363130350125 0.43633009042728726 -0.423187125287426 -0.3266967089681599
Ni 7.434511398075383 5.626586743227993 9.05617258041508 -0.2824847903376361 1.5152534228515968 1.3584590674359507
Ni 3.1813425106766267 7.102769172194438 9.305438045244964 0.2984235730550796 -0.02510913636280192 -1.8899459429727448
Ni 1.6762788400636615 8.531606527589085 10.62547227701076 3.6095141354184546 -0.10447446296600717 -1.5081191257996607
P 1.3530404316164524 7.284196390242837 7.373681566364424 -0.9372447496041795 0.3534549508986106 0.30327190228631634
P 3.3047365421327792 4.863959541780361 2.751182833259888 0.5410773474387068 -1.1802782759247286 0.22787713029508494
P 6.846385144055041 1.6786218237912878 11.11040923375203 0.6919877332697502 -0.25225221670533976 1.201533585759079
P 3.8025599093759963 8.132897906242036 11.956955391413743 -0.825187846305224 -1.1996021730643212 -1.6843998720746927
P 0.9113123887270147 0.9645998664462516 11.21249238134296 -1.261347729703234 1.987267596944055 -0.9238539301195701
P 7.199008862361087 5.584553055078581 7.078866070874385 1.5417833508213252 -0.14654362422191533 -4.816120250604435
P 8.61231344913912 5.25921436241338 10.610662939624786 2.2248403572603492 -0.7567329959669354 1.834400601607273
P 7.261214613599743 8.486903144833693 9.211114747744775 0.9093858184103822 -0.019659940322772594 -0.5159558697807307
Ni 2.5949431570133004 5.800368926722901 13.432738299648944 1.4133526341500369 -1.939694475150782 1.402253953133714
Ni 3.0095952692240395 2.3985619153327993 1.7003200934122749 -0.43973500234377816 -0.7042488100252904 -0.5872813567985951
Ni 8.149317461528469 3.0921597754824304 3.6039318303120704 0.059053868739362816 -0.9573942279688609 -0.3515590194274784
Ni 0.6084346022188448 5.439222721790069 12.291254363282725 -1.5826703188436744 -0.9902657818859011 0.3530420317309081
Ni 0.7459276082654638 8.186683851415676 1.0760614831652533 0.18539710675400328 0.014741677085548804 -0.07490189151521294
Ni 6.928809631365566 5.759455390156419 2.5019584406547124 0.7337995270992137 -1.9736284088940657 1.1483032656800287
Ni 5.331809519583704 2.1731967514440105 9.769635395428304 1.7086050085659865 0.12695773167018778 0.023333789629934005
Ni 4.39357055372238 4.128449343236137 0.7745428139110373 0.3312899847657972 0.19767155324598215 -0.5370515141087654
Ni 7.174720242204576 4.460331588064948 5.081149466033073 0.11077366571115761 0.2582385161957617 1.5727152645134914
Ni 3.1810904765704677 2.399887428039265 4.1287079115598635 -0.06530216364191979 0.1575014087849997 -0.11987125713705162
Ni 2.7000133754920395 1.7389326519354897 6.407783257541627 -3.309479509122513 0.3915332458275709 -1.9035537635641668
Ni 3.101653060147753 6.346209458487673 6.6715985579741055 0.7444261535751244 0.46998454525693895 -0.4247313298460943
Ni 2.30721355374494 4.569322337083939 4.975350215565777 1.321093482303299 -0.49465762252358675 -0.9989023745149764
Ni 1.597569522169851 7.5738862587813225 12.593391916286508 -0.7355923573335783 0.990591797766752 0.8841373282562387
Ni 6.78086561105022 7.37193226297575 11.75191444453755 0.5974459560364226 -0.2686501984473889 0.3497739025025976
Ni 3.6250065488852266 7.570945860876134 3.538954637365317 -1.8819644674291651 -0.4891878576582672 -0.3981607784464175
Ni 5.42353126503254 6.182340616501686 7.873606151285285 -2.27126728126432 0.6738771397119685 1.75929816404548
Ni 2.7913617370798987 3.85565509440683 7.444355663570024 1.2186522477172366 0.556959308776286 -1.0223711470608778
Ni 5.605434547503682 1.9973516221172078 1.439550671825711 -1.3538696482930554 -1.9697738110346654 -0.7975842256553426
Ni 0.2614079079888337 3.4807403596004973 5.753899438305091 -0.3562921632370896 -3.995730597018802 -2.422888062898827
Ni 1.636597470238402 3.1851603606551095 11.168336939403552 0.18739768212379984 -0.5349288113388079 0.8670441202193777
Ni 7.862147934051574 6.857147933847683 4.984065928340618 -0.1630393078840934 -1.9336845215112763 -0.23686519272630818
Ni 5.213456170250732 6.278589641264859 10.56742228814477 -1.3800707321684555 -0.34903419612309566 -0.584969935056599
Ni 5.503995487072938 8.633736348162635 7.507871058701055 0.049387035073560105 -0.04944077112963098 0.5404579686871531
P 7.370270704794405 1.9577169252745705 5.387003121913224 0.034369992839437584 -0.0052864452099199285 1.294650714730738
P 1.0916623943364967 1.2635683239299993 4.968791728047728 -0.9661413780338716 1.969864570976259 -2.092589752622338
P 8.618530290424376 7.267702158184207 12.921720480218477 0.519415546194557 -0.6451825999907533 0.8952516930018452
P 5.427461130169315 5.210161057677615 12.506760326322432 0.9561922372409597 1.5389047437219499 1.9471501600978791
P 3.793841396222199 9.175180284964412 9.10498691947982 -0.4046114191677677 1.551759745307747 0.7806098025845332
P 4.521930590529519 8.109132023490892 5.429861988395393 0.16349310759206037 0.35517810423730445 1.232834966975522
P 4.151225758755693 1.9667341455171488 13.354755213364735 -0.9540744195670086 -0.5323155420856768 0.29675492710340506
P 4.404062640215815 3.311700151139988 6.024997590945913 -0.40068097376510997 -1.4552472175012938 -0.7702194604891445
