# total energy = -340866.7061479244 ev
CRYSTAL
PRIMVEC
9.36966456652983 0.00000000000000 0.00000000000000

0.00000000000000 9.36966456652983 0.00000000000000

0.00000000000000 0.00000000000000 13.71345119332851

PRIMCOORD
 96 1
Ni 7.6700636340305355 7.5014565201144645 10.227944582662479 -0.15431221242374069 1.139713724238805 -1.0789179331076708
Ni 6.67896862493355 1.1532745331188416 1.2959913898983257 -0.4611823735842767 0.03828346896123084 -0.367226036540774
Ni 0.9560056152867236 1.9473161266687933 12.782047682540268 0.22304962699945458 -1.0424902864082564 0.63609426453624
Ni 3.6223029526445827 9.629016884093813 9.935135069154928 0.38257886484776044 -0.8480346689964104 -0.3931712956516261
Ni 7.539056984029174 5.216223440770866 9.732724079407438 -0.9516007612155355 -0.4473351832885393 1.4005552252750524
Ni 2.533013858866272 8.279288593960343 3.83651597188297 0.7869527140834254 0.04325315426168035 -0.4620524348940559
Ni 4.400228723136149 0.7392215600906491 1.3594062166666148 -0.7712260473767879 0.4408156370024667 0.20820716266998335
Ni 1.6729817177580597 4.600289801009778 10.581367393232238 2.043043309152778 0.21881322032060382 -2.1213665676447144
Ni 5.404347565983807 1.4572451910607804 7.10821638299301 -0.5444334083951333 -1.8162460421854332 -0.0006106370008054
Ni 4.890693184656053 4.3526495664556375 9.591160628336375 -0.3519323436064971 0.3010923781364943 -0.00807660636054738
Ni 7.885116175214291 6.240440214118663 7.549008504767726 -0.4410807177383952 0.0033362634620845767 0.23918895576347843
Ni 2.2928787256317626 0.42791726569068833 0.3057452724112748 -0.3328226193602397 -0.6337257643040635 -0.5336034076591649
Ni 0.37122985808281816 2.7939871261018556 6.350150553521534 0.8457535862717177 -2.543277654433194 0.08782502733478423
Ni 8.943204285978403 8.465969790829684 13.733198874613883 -0.7659848535825066 1.0360586718502995 -1.125483953792668
Ni 1.072611090845796 9.134026874587166 6.380718147210881 0.7031332083636084 -0.3404441404612395 1.848448852170223
Ni 9.306447441982751 3.250364747920361 11.309811965135822 -2.356614022261941 0.32752511840672627 -0.4332254833600345
Ni 3.73950808673606 0.04816101285023608 5.837789185904278 -0.2601840699579067 -0.9936912626276823 -0.4278940438447921
Ni 0.7840928837107695 6.764925927687982 6.497296450742703 1.0216990606945178 -1.9025541186550585 0.38811753527780257
Ni 7.741919591608882 1.8812693611231204 12.897459462833273 0.165803758003108 -0.8015344685523421 -0.5818846112630559
Ni 5.172710718513225 7.921376777095658 -0.11893571113734008 0.4826711395856719 0.16331930101835745 0.7510066350061195
Ni 1.4796012107220056 7.60003476104311 0.9149393124480045 1.8158817168674792 -0.8184186459021905 0.9403336729421483
Ni 1.6120788980606737 4.79984491699669 1.4148989920419592 1.0082221092540056 0.3866702613083147 1.125987632901964
Ni 9.391589583919696 5.908838415363247 13.893920478828829 -1.555693018923882 0.06467224336740475 -0.8540343382232711
Ni 5.959921826592502 4.924302171464441 6.57106100899372 0.057707639124113516 0.3705088210571038 0.7736837648886611
P 6.966870308139947 8.864480364271104 12.529939054953255 0.5973235715259454 0.5967576717201464 -0.4233431912493161
P 1.1925240579976648 9.004528740581387 12.028274096407772 0.39133989886984216 0.8378883245910279 0.8255400874383202
P 5.928964454857092 3.6123992171953305 11.326583664714024 0.36522289006781616 -0.5205082650381035 1.085664507802885
P 1.7211886419646831 3.8166860137895013 4.522956337524494 0.5788008301314097 -0.20027479519678412 -0.35303431842142424
P 5.66973394523131 8.472847124623204 2.0261075099609873 1.6780258502275487 -0.09194033505473843 0.5076936297719385
P 9.035636026949897 1.8497591791781498 8.838456120931182 -0.21044890751630854 -0.02381330036951383 0.22897473423463793
P 5.669509073281658 0.5813220988438352 9.210859061018018 0.27257678719530476 -0.025532854163781833 -0.8689572780816904
P 4.165490516693286 7.597589278590647 11.824203739065142 -0.87788183426483 0.6512277777435688 -1.7858370908762728
Ni 7.654050877282407 1.5173328499406784 6.827776700649229 0.9307619700933131 0.1341704473685431 -0.8826944251621248
Ni 3.097882826727244 7.036702418171426 10.004731063639275 -0.059611283904729605 -0.18115838608230733 0.3721530415287462
Ni 1.1406629646091984 6.824788714618229 11.709668959375781 2.7272591117865934 2.6889987827538144 1.2742017028477668
Ni 3.6062808262318855 4.557264301309717 3.2775555144991015 -1.5414853599649323 0.5557704306745074 -0.7915753004571012
Ni 3.5536514203487752 4.938141166032602 5.704205878146488 -0.5261880890317003 -0.6867902482292108 -0.25531285790853453
Ni 2.747775940448393 2.6945281367037395 1.8946914056179673 0.4615402711443277 -0.8119456365833372 -0.46633126477506787
Ni 6.014340838408258 9.312828183554123 4.9038200847169815 -0.5947226435679887 -0.4073604426678146 1.0531277115174444
Ni 8.68382386171952 3.5198456705844414 0.5011749250885319 1.0652070112794816 0.24647803322572392 0.6261212124839282
Ni 5.489873864168075 1.2159388497551675 12.427294379601737 -0.09576690788968022 -0.2819836823315015 0.4504490463271726
Ni 8.10677432991907 8.942510930800308 2.343299701576 -0.4525059288562013 -0.9679180103183201 0.2655268223270588
Ni 8.735675585443417 4.8181813505578885 2.6461750457298425 -0.5513746155996568 1.2378789571573325 -0.351254343702866
Ni 4.749689102559751 5.4690076211732945 1.0951573146977682 0.6622243859643886 -0.05949969802752979 -0.7839797474980305
Ni 6.759707024523146 7.302285560374874 3.6920038873720986 0.5384766765910662 0.35362078705251354 -3.6687644364393397
Ni 8.147954005699072 8.367494616211296 6.1940369503415385 -1.3601539386398704 0.5781873649171269 0.8143267352210041
Ni 1.5958693783566 1.2578774683652447 4.82850578394628 0.7422905952893603 0.8984228916409754 -1.9021149742351116
Ni -0.14620424593200207 3.978818689488512 8.933490754719898 0.5729759959195164 -0.5479522201816692 -1.1020907716797084
Ni 5.661057635840574 4.799835547332122 4.261715097882242 1.8078303073179125 -0.2698133655175547 -0.5614643957354911
Ni 7.458309214775008 6.697529930444398 12.269520471860146 0.8534093030447626 0.5401833748695278 1.177875837130823
Ni 3.7891673089508515 6.051707060708747 7.766544944028678 0.5749981685558678 0.2790171435040098 0.28307331585125445
Ni 5.525441110871349 8.240657466943063 7.424970074306203 0.3724430619653392 -0.22708188808729926 0.6187925400329988
Ni 7.089266236402556 6.7300426664982345 1.033934989438585 0.2753787754204741 0.17063846038759 1.1135398940569143
Ni 4.2603677401172435 3.241604111548506 7.639475427079137 -0.1654044656821603 2.318011736508711 -0.14591704638150998
Ni 6.76502899399824 3.3338671985577615 8.391905403312466 0.197537341660963 -0.3690188667751387 -0.6499229428892161
Ni 5.525956442422635 6.152534021133912 10.988053935976417 -0.3866100974943406 -0.11320027287477924 1.0527459026979933
P 3.1704134001545463 0.9015978470684494 3.238047386878179 -0.12690502405538143 -0.35826805601653783 -0.6396765825708596
P 3.2086603709245045 6.487921164375133 1.9725430115539078 -1.8064493678099856 0.3137231795266275 1.010980645835749
P 6.37476372537739 7.215803556404586 5.6216094740728915 -0.7767225517149849 -1.3188802767020642 2.487640010464232
P 5.857558241178049 2.847038166890563 5.431678877531081 1.4398149421066235 0.6904371009531787 -0.16395050684445311
P 2.986580581314128 3.234895431717225 9.419687334028701 -0.31835990696769045 0.5506991867991871 -1.696920887359839
P 3.1659347004906464 2.3070925067826753 13.345080196145751 0.3898789980535995 0.5392408084506003 0.4095157984479206
P 5.824342780281551 6.352707534982367 8.870354206989303 -0.3040560887505086 0.4907672863302451 -1.012401694552992
P 3.0624186463342276 7.226990935899766 5.923045637748962 -0.9043845085410489 -0.5286542911840056 0.6384910469031907
Ni 1.7826442718716302 4.443525943108706 7.542398206414418 0.8891864606443718 0.26852961370912465 0.3210626506108341
Ni 0.46346483609836725 2.5497574494507687 3.090367418776586 -0.2767437740888008 0.718602250533485 -0.5084341074823889
Ni 8.007465255154056 9.305145058607684 8.72482645083917 -1.1291251500896813 0.4621907602441331 -0.527153281158447
Ni 5.383031579089723 3.119451794564687 0.5517879791564304 -0.3619583603839315 -0.7260617921353237 -1.6730844470618735
Ni 8.30570167837987 6.024750535744227 4.983824839570839 -0.2104129120720505 -0.11509054791895663 0.12747066675086435
Ni 7.167240584944347 1.8258852738567741 10.229178567486194 -1.1097531733209727 1.1444111297144743 0.6083430625649007
Ni 3.909117754760996 2.243032110125594 4.7884354764512285 0.03030533585176071 0.9085628082884547 -0.4433286332323074
Ni 1.5904349729066796 4.384019203432075 12.78978140367538 -0.46109881273153497 -0.7703066208863121 1.4201688857409218
Ni 7.1178343436729135 1.426924956516051 3.6643024740743573 1.537071547167953 1.1832196179412398 0.4785545463141371
Ni 2.5881449651892594 2.0077223541440317 6.820974324172259 -0.3886407547711242 -0.7072307754717497 0.9950729734665573
Ni 8.259724734340628 3.684789245654101 4.656992200080958 -1.3765300660050488 -0.8741071977137461 0.20793154041109352
Ni 3.7103403209332964 2.255774853939201 11.207510219507522 0.8409803332527902 1.0806678259192422 0.48758631749910214
Ni 4.471559979498641 6.81910132822495 4.362043592152345 -0.0908671565952177 0.5491889208022477 -0.6755606980619785
Ni 8.879574893891487 0.5021278199751817 10.980936738769934 -0.3205026643423061 -0.30778444544468925 1.1964322599767718
Ni 1.2875793050484312 8.987194861129053 9.713045909879982 0.146392957576664 -1.9680102913763395 -0.6462388091694097
Ni 4.006468569631125 4.308996299229465 12.638714301832156 1.2499469440654603 -1.6890535687966202 -1.085246703539176
Ni 3.1157320377308624 6.231932558690166 13.064393154657353 -0.7245504976971199 1.626442578833618 1.4530522667325039
Ni 0.5141444147847045 6.46178916989267 9.484085975576717 0.23208499772884547 -0.4262094570535176 -0.628714170022085
Ni 1.591437527015544 6.214504982592144 4.503524590175201 1.0040404670724903 -2.59086851683828 -1.712537253740857
Ni 5.471734193562822 2.9573003795365387 2.7408114687743823 -0.3928961876133685 -0.9152674740021399 1.6503448393725126
Ni 1.0590719255438386 0.22872662965550342 2.4305443962421913 0.32777785784748065 0.7038490034837104 -0.5614548826537944
Ni 0.2035587736571728 8.038478844876877 4.392597131344838 -0.6004335779098369 0.6429159154437637 -1.8545279684847675
Ni 1.5876053342068932 1.8110530948443184 10.205934303623843 -0.7435617486923001 0.8296893337200033 0.00250811113383439
Ni 6.8640850878198965 4.781143066517309 13.284782656779512 -0.6158547975609134 -1.1556746184434354 -0.3524650761815156
P 9.396930292723928 7.860249085448619 8.015484751058516 -0.34175977394886947 1.6723465404545845 1.185985867832467
P 8.906775030134797 0.7476945477602408 5.005614931492107 -1.291157613975815 0.8551085451240563 -0.35165286469286533
P 8.795454045392544 1.4269811745034637 1.2429628363045833 0.9055381625295179 0.09832464131452745 0.17719117390444322
P 9.073058467237798 4.637890264924487 6.579206058403402 -0.7524845051032266 2.5858870044632885 0.8366104863198689
P 9.179600923049948 5.447101345411372 11.443504897969065 -3.5604376896067778 -2.5088019892538274 0.050041123717791236
P 2.8235109391582345 9.353492527782839 7.743177000594019 -0.03540871851659708 0.8604914067025243 1.7526755165226395
P 9.294201290391293 7.048854873117198 2.361552745122535 -0.48773981235783104 -0.19836575109952934 -0.02558016246194949
P 6.5856280264988785 4.615084501363959 1.874080017499458 1.0828784604173158 -0.264429475497822 0.29215625198912903
