# total energy = -340862.8278839431 ev
CRYSTAL
PRIMVEC
9.23421495004502 0.00000000000000 0.00000000000000

0.00000000000000 9.23421495004502 0.00000000000000

0.00000000000000 0.00000000000000 13.51520698814278

PRIMCOORD
 96 1
Ni 4.962725582423298 5.353305165101831 8.252669463211747 0.34602831941723633 0.3026543233069755 -1.189066820750636
Ni 1.9889575221204592 6.712350725796749 8.736485989133225 -0.9588091060385163 0.11902613552793695 -0.48922616709537026
Ni 1.13510661799125 4.075243668054232 12.544328035764421 -2.0445733726440594 -1.4304926362644332 1.285914877519637
Ni 4.028296920097222 6.896748760799412 9.789928905269122 1.1510754291085272 -1.579366194171106 1.356224264568161
Ni 3.44053914915629 3.3517798766616442 11.91295152787429 0.37897186422279244 -0.48010312174817954 0.10848692655950994
Ni 1.9183434816745 4.499814395349159 10.562404215044209 1.1932592615654287 1.0885387440268866 -2.0371963634536985
Ni 5.233842128453553 7.664481377861926 7.727589848532224 -0.9656040174731629 0.5320563748870192 -1.007309110521433
Ni 7.288224062311899 6.704418535298112 5.524516741394301 0.3586987157960532 0.805149182486794 1.0014912182880753
Ni 8.548269606317772 5.534277306419982 7.112431392065559 -0.9680360239534231 -0.5940384730167705 -0.35339247309179134
Ni 2.196071725489417 6.805754808327268 1.2511714635993656 2.127708707812658 -1.5550463864788189 0.21296601751120742
Ni 3.073414472026697 6.833891460771212 6.4183850387073225 1.8629215918651014 0.013184617011074066 1.021076082398538
Ni 9.176482472223233 6.4533771722062 9.9695463872786 -0.453724888864967 0.027128223675359733 1.3382643376556307
Ni 9.148308882920157 8.769863058466548 11.811980006329064 -0.25290579112893863 -0.4080402423436586 -1.8904267392639058
Ni 4.325047646365215 8.29222329881345 4.527324044609335 -1.8644771092776793 1.8774722359857667 -1.439814170775675
Ni 0.9745328571288484 1.7518875259952975 7.8697561256461 0.46276360202846756 -0.7491793519893937 1.046215043558011
Ni 5.426412443539212 5.733551661438133 0.6658228992953311 -0.5259230082957717 0.5141892647986113 0.3965188719676203
Ni 4.156061515835458 1.3243526157550118 13.26605394793484 -1.5473482465036126 0.7722555170825668 0.48221682565707275
Ni 7.117732754772506 4.556272384532708 8.815780191475248 1.1126163538013807 -0.9631840951777605 -0.1597989465699248
Ni 8.12559189305337 0.48986586002585186 8.489969391285006 -0.80291000874363 -2.271056193694779 0.4674044432345886
Ni 7.843108028625184 2.446309711895203 7.522253231509003 -2.431233349539729 -0.4021809553494041 1.4536027399193354
Ni 6.49120051595756 1.89449150488989 9.559779029702375 0.07878502861970303 -0.36238207818491136 -0.2671021372339787
Ni 0.329251468618405 4.187337801305637 8.913819849826856 0.4512962248188163 -0.8562002355263383 -2.4161078067522
Ni 8.373789117992104 0.18652559808867636 0.45531142830769056 0.4705072505296284 -2.0018478087510747 2.108121786819666
Ni 5.736321925873047 7.101960715923061 12.007058334149798 -0.696497962435278 2.8400973733362638 -0.034152477511992796
P 3.1204258594871885 8.563801555582858 8.88878958723593 0.00819359155438589 1.3774194105885373 -0.7485815705043946
P 2.4319320394779993 4.484559472527566 4.531026964737336 0.44345744550068783 -0.3704609985383039 1.0625652027812604
P 2.338823451820538 2.209673723864845 0.7148464221570485 0.29307979224466296 0.741372197240149 -0.3867178267167985
P 4.959641354685759 1.6219436555682625 11.369518911313461 1.1529348509147692 0.6896976516839929 -1.2869518034245835
P 0.8031098173178451 1.5152330695353733 5.552600758813981 0.5168202746635551 -0.17013760949177148 0.9257640026580896
P 9.515396623190618 3.639148640710062 4.285429171260031 -0.2780691777684437 0.20920732179972357 -1.6474338363733048
P 1.3254791899585436 6.970982613440325 11.702263683384293 -0.19510199274659304 0.8130165010500127 0.07542074013316044
P 9.031763858143321 1.9154993435213217 13.102668368671 0.27757886839558643 1.3870947288947726 -1.3345472938153597
Ni 8.114002953500647 2.210532505839668 3.087697955453114 -0.850107492365039 2.2476396145430515 -0.46985573298855854
Ni 7.123928912891929 3.133575381338247 11.434175959802877 2.3832208262161925 -0.6483900511844575 -0.8850744953585272
Ni 6.930222789387956 5.363998385820599 11.747944420494548 1.395165678828365 -1.350057987856449 -1.5414491074103582
Ni 5.269107594710008 2.3933330216848634 2.878076662770559 1.649797965730107 0.05906029649726603 0.7454062581002066
Ni 2.718949903364661 2.748259301086052 2.8415045551223024 -0.3223073216512127 0.25560107857291464 0.7927742058612088
Ni 5.294815648666011 3.918751430125937 9.953517637258189 -0.8766878139567288 -1.6396585633032599 0.9007880494390422
Ni 7.211875574485668 0.898863084089171 12.005801557517826 -0.8689117695557358 -0.31404893829716235 -1.1722260950442134
Ni 3.570603064375505 5.189231636836654 2.8678322248902473 -0.022556030923645023 -0.9124554584746414 -0.5281464983096518
Ni 6.2039056256274066 7.226068562607211 3.4980867756842384 0.5726427809498137 -1.237163676257863 0.16062709889817497
Ni 6.56223933028354 0.46772775350497536 4.719645035895851 -1.651255009891608 0.7762011319938762 0.9655914190676724
Ni 1.4294379799860848 5.147151320070309 6.576918961524148 2.3189558455895347 0.15887412076281027 -0.06722894835098744
Ni 7.205928740165386 3.078548695446071 5.106477374215423 1.8881369147884646 -1.0463554257906171 -2.303071056038479
Ni 1.5636203549985386 1.1163334593373158 11.643052974773918 1.223012067347829 1.187603091720916 0.6752904751197274
Ni 2.69094252992768 2.3592033638467225 6.137187500398415 -0.129487440070577 0.2356279778850974 -0.10469634916882613
Ni 0.11894869088486128 3.3249544827168926 6.409316116368892 0.9823167022421533 1.2884368726105422 -1.4420883115218326
Ni 4.938568876550847 2.3912091522847625 5.449817484328323 0.610315355799923 -1.2254805834929798 -0.20160842640654314
Ni -0.01676471693862154 7.626445647170556 7.911275002153636 -0.3042404368471728 0.48004244371357324 -1.8716720843642216
Ni 3.119170006276694 9.252775554760767 2.1129130042606885 1.0812242126433445 0.24850174852397205 0.025306854195904803
Ni 0.32744248594240605 3.685910704371411 1.6153513496346454 0.14562496906238792 -2.7030380344557 0.09344263063187778
Ni 9.062292172216075 1.9902780148344348 10.214104408171336 -0.25623768371564903 -0.0024032101248539256 -0.2070635359838434
Ni 0.9415113050646728 8.807852618084002 9.520922377316793 0.9870470178382871 1.4768228867895405 1.0713187806041744
Ni 4.174502242757202 4.470329547546891 6.1569468731911785 -1.3207430409424157 1.0249569055101833 -0.12871713756345574
Ni 1.0157728603499356 5.535237664757419 2.8429100026122818 -0.5759345643272081 -0.7632725968576661 -0.7014213678788243
Ni 4.066129498063365 0.22938620600418827 6.898485716600103 0.8316094335608516 1.6047087867009524 0.0029331144863949487
P 6.4028198462690185 3.883799927172105 6.678525797046449 -1.9264324679345535 1.9881574557481758 3.052812965399562
P 6.495660641697771 3.9725222628076193 2.288192252165092 0.8596010336777713 1.6027773740061944 -0.6230299751531141
P 4.319848783442359 7.0556326603565145 2.417857249305679 0.2723939817605373 2.012775511407172 -0.9453612080637267
P 0.46281053413300294 7.234951877228502 5.850598104077687 0.013666698853815173 -0.38804503016865427 -0.41024162087035154
P 2.88100113859235 4.887799163673655 8.372251621230724 0.07737580697700223 -1.17816097247141 -0.40557969661830795
P 0.40843670722598824 5.478077875250359 0.6553162097151805 0.7819372631467049 1.3882666377156865 -0.8610287672632333
P 6.829874577340586 7.6887488943117726 0.46100247487848234 -1.0975730863150128 0.3811634725574726 0.0722539123694046
P 5.159562104738725 6.87704294645239 5.667966574363021 0.6638904608129018 -2.261901009558072 1.0075065712442197
Ni 8.441956091520554 6.8046282341237365 12.811875557781029 0.624659283226421 -0.26818534299582847 0.39060636313792724
Ni 1.9736841308692998 8.864855425939751 6.613057984499082 -2.4925225353675136 0.16971800545584964 0.5870106196357117
Ni 0.852341110012181 1.2987276697320569 2.2264273597457267 0.060086423768935235 -0.6824281146057731 -0.9945831783143323
Ni 6.342372676299194 1.2448367922581955 0.6281417624516301 -0.5771003025005351 1.088805367424712 0.44453396639431825
Ni 7.1092465113868855 6.838139199571413 8.409986316520168 0.2616786522255622 -0.03120085108283659 0.9116270490360752
Ni 5.858287434727529 9.309565975676502 2.5547387852992176 -1.4910228324390062 -0.33836951732039794 -1.048092463086382
Ni 4.149634502346458 1.3238909050158596 9.256687168142864 -1.9490905716537013 -2.107403934817035 2.415677404083001
Ni 7.927961228266602 6.319564165785068 1.8544621072268603 -0.5931910374148106 0.4591085217743835 -0.8578454844392451
Ni 7.536790655841954 4.54018638238064 0.37739035370390644 0.27920046315940944 -0.9553298892406645 0.28894005904467657
Ni 8.578530128161818 9.248527815960564 5.542234429298533 0.7076169551665749 -1.0963520694237183 0.9956280746390788
Ni 1.656950563810793 9.340962305938863 4.264007639806319 1.0493882990796701 -0.42319046772153573 -0.9535599418244352
Ni 8.203325513097058 5.320145099815909 3.92092331744291 -1.570119221651541 -1.8696064600844444 0.5996290797306706
Ni 8.907600606170474 7.534906876026212 3.6464972288344106 0.5533278826712857 1.4245305051437271 0.2706829126067015
Ni 4.359897572956434 3.4273526904460994 1.1328442353694035 0.16177252535652786 -0.7540302523237917 0.7061213444576548
Ni 2.720141117071674 4.677563795708028 0.5703743616118458 -1.0760251849409082 0.23807026877800294 -0.40503256586558634
Ni 3.986872232580474 8.84570366447971 11.137976516157432 -2.19240306266725 0.962581428596755 2.063343711273027
Ni 5.677666193571134 8.68846345515399 9.832434919336965 1.4550965508560423 0.6850292996740461 -1.0288485272551056
Ni 1.5703243949310306 8.566461009440376 13.606029110180797 0.14929804703860095 1.6260345447619222 -2.0780450220389435
Ni 2.0303452727780753 6.706062225529494 4.39172606447064 0.4969469327783958 1.0076626372061097 0.3329761142189685
Ni 5.606544271312107 4.696004522629773 4.273589061065208 0.5879110199627939 0.6680615614714559 -0.7058143547401973
Ni 3.3280571788839968 6.766860295661075 12.433949619619705 -0.09582321504891238 -0.7157082168151415 -0.020698151779299838
Ni 4.546714972232254 2.7947443383039094 7.896030236968303 0.8255115481932298 2.36272142071126 -2.486483014041653
Ni 4.7106961583496005 8.521425743943455 0.2815890690157087 0.5982548250909633 -2.082884352409116 0.9617417063042792
Ni 5.633859078640358 3.4635969834695586 12.931296117041304 -0.37084255024743873 0.21713249018407121 -0.5966967365752239
P 7.930325187251061 0.1941050415826012 2.9813198011524147 0.28501732695150267 -1.861227749102446 -0.13441598772044594
P 2.0649828124292835 2.3452596995243216 9.772413446668638 0.00035455512594132486 0.008426276390482261 0.4370787956678537
P 7.525543382236203 7.951092936298133 10.211468963272253 1.664909110339933 0.2168391273133685 1.1881831325941021
P 1.2191472067317592 8.305834531403661 2.17732719290131 -1.8899382296632612 0.8909250406020334 2.0866296783841616
P 6.220388699015145 0.6348042484175984 7.066155971523275 0.9118070262573652 0.1712275001218406 -0.039773423243196014
P 4.7490089154844615 5.2133329374204065 11.422025579991343 -1.2780161914978505 0.7750536486529943 1.4828948040152332
P 3.972291407438043 1.1957107696123863 3.8824323399627354 -1.4920489597106756 -1.6571245812985074 1.380339926669442
P 8.824224880894345 4.448462926940636 10.832046056973612 -0.8416387927723956 -0.7915159079740756 1.4553246077064483
