# total energy = -340895.52898694924 ev
CRYSTAL
PRIMVEC
9.04482568957236 0.00000000000000 0.00000000000000
0.00000000000000 9.04482568957236 0.00000000000000
0.00000000000000 0.00000000000000 13.23801666168766
PRIMCOORD
 96 1
Ni 6.40469515964631 2.028211655598298 11.59802498909377 0.014648088930478 -0.3040524892060828 -0.06210371130928014
Ni 4.717527691909185 0.5400502460524185 6.161846119122824 -0.2769414919219037 -0.9957098357196078 -0.08973484276298739
Ni 2.7816998833064313 1.6648991075155635 4.820014608915893 -0.11022267830369405 -0.9740472631445095 -0.1851312546871263
Ni 3.441076702360889 4.240187029564375 4.8814922873992215 -0.13021583359616928 0.17369061695035248 -0.18620237626411804
Ni 5.009829315499847 4.365855834161604 2.8023817811466523 1.3337150277220513 1.2561265905136108 -0.7278906178139465
Ni 7.186710766777191 6.189482583240201 2.6564996006667476 0.14234244165637422 -1.2102123444799995 -0.8157392992978144
Ni 5.108092299028298 4.7016359336194675 11.382139477675278 0.11578551710345221 -0.3946913318405783 0.10993908562500421
Ni 5.618012422590843 7.919667240747328 12.529795770955925 0.26346556892265593 1.0872092265821856 -0.8372103246873969
Ni 1.9881611685710538 6.523236641800569 0.2622556179773377 -0.17354740650426886 -0.4824464251693756 -0.2437287526153609
Ni 2.7382304522646663 1.5249937476832656 0.43016104390950916 0.3459470725573397 0.0009258542483790508 0.07293062672145505
Ni 0.4279640558112893 -0.1272208966419168 4.432577702432285 0.9117491764362362 0.2771134987233937 0.7079396286133163
Ni 8.726664655730344 2.527675960957706 1.1936230006250819 -0.3880866820398671 -0.14296927660709569 1.0393692242807713
Ni 6.9086276087707255 0.6909604449917732 4.87795756961913 -0.719105929642781 -0.7406240062202147 -0.7697360930948228
Ni 0.9600901302998937 7.285453126053709 2.2830279046551505 -1.1827809877419242 0.4402098850976677 0.8395636554109219
Ni 7.421903362569746 3.8001200928381897 3.6470735061310315 0.6067091265059035 -0.13658934122268088 0.08684646547159881
Ni 7.79876505915447 3.860747557730606 12.525692133655957 0.42694273567511637 0.2907133488950155 -0.33352504474390304
Ni 7.766547390954145 8.832045916876329 7.086971667737708 -0.24607128470560846 -0.021509334826685537 -0.6677406877969275
Ni 6.981167108761354 0.6972339359136559 0.44283917572208553 -0.1549228494245461 0.15621637142498904 -0.47736052600603596
Ni 1.8423585825549793 6.511577861814545 9.128989344880358 1.2396080240332974 0.2707780434236691 0.34628645817462944
Ni 0.018731833476382784 5.139749188051639 1.3147802462952138 0.357742522530371 -0.8515951326541593 0.3338086374225928
Ni 6.434669711138697 2.143008580022369 7.050104054781125 -0.05016119423542329 -0.46840434525401264 0.7155675774722192
Ni 3.3177776420276923 4.384596712463422 0.4446825111457876 0.08765173498171355 0.10372832882860199 0.5225504922791129
Ni 5.862683995439531 5.61579644035921 4.878751705292344 -0.18584422159375089 0.18628953666128562 -0.03977985100109923
Ni 5.464811169368742 2.840509338286364 9.4688088633776 -0.2502853227869561 0.11001801849205567 -0.23436068113689962
P 0.22358989372422872 5.622770000769781 12.452340408341245 0.1252291790148553 0.5741052244279532 -0.917153121060627
P 3.977615747179347 6.217403959358787 12.61136833810873 0.7825005918493426 -0.2552856042150249 -0.0783764803273747
P 2.434649931356259 8.444122398784305 1.2866119464422445 0.5380961533231958 1.0671247971274846 0.8654484935974837
P 6.1743415454616075 7.6408695415314805 5.827586454820624 -0.6537911675953707 1.057701961151688 0.5987081105782979
P 4.839008742329898 1.0790024502969986 12.90661586134365 0.10624929547824283 0.16605804010575917 -0.5350609660412978
P 4.0553017528426265 6.03460803731258 8.245457330511968 -1.1972717251589315 -0.2800129317583758 0.41820715557433136
P 4.793278104929322 0.9716132379043898 3.9163343414079628 -0.4561075301645306 -0.28616686717491363 -0.2594962998622628
P 0.1431461207857445 5.694594959551024 3.551124188948915 0.016617553952022995 -0.7222442181614465 0.5964475966788954
Ni 1.4115625918999162 1.304082931252955 2.483955083768841 -0.11385179041584907 -1.7974358514574655 0.5580386578833938
Ni 1.761778232752423 6.373327705036896 4.905744177838732 0.7231037379482643 1.1065554923192813 -0.7661625168109514
Ni 6.054995073843612 5.640624486178945 9.141141067852603 -0.5640342133451963 0.18013945789948976 0.37642827186533234
Ni 8.542900937362566 2.322222751196221 10.271257635649233 0.3021241618351184 0.690193874594121 0.08314253425745036
Ni 2.326473819150784 5.164269709806576 6.880194295532504 -0.5785624888683585 -0.4699899445735776 1.5779533729839792
Ni 0.5210389274700866 8.977577158129346 9.206616559178308 0.6895960931091221 0.002330447905389535 0.13036470046920776
Ni 1.45630734332805 1.013988245068491 11.309700375246981 0.9053772114716213 0.5751969148302352 0.1762141547031546
Ni 4.168190219099861 6.742564613779713 1.719062235669413 0.012623602301281485 0.3255281425813555 -0.8086335414909687
Ni 5.46599604150076 7.713680386285165 7.998025276940447 0.444131331639261 1.2897787313504174 0.3444702309014971
Ni 5.365082924119783 2.830569075133035 4.862852711142279 -0.14570107371596197 0.12440256934850188 -0.007351812379380887
Ni 0.7160978238413932 7.582937434618765 7.072926862801867 -0.01793087344680783 -1.411535635545956 -0.2776901971624701
Ni 5.051453602152823 4.362834862466234 7.213514202471982 0.18944376601955118 -0.18811707678832765 -0.8754570268734213
Ni 8.16933155723627 7.05984804522251 9.148038651729518 0.4317869511412951 0.4089550408484441 -0.4973151147510919
Ni 4.535591028279325 0.4486414312387923 10.626367431544747 1.2558275712159532 0.1310846093543678 -0.15003261121178033
Ni 7.928757290309745 7.188320745704663 4.711132095843926 0.8086499965512007 0.08664900474881206 -0.14866169900618267
Ni 7.485931681825813 6.237157858109351 6.8891296785799785 -0.5255214019819788 -0.8913348744459424 0.8441795569163785
Ni 2.349429586105424 5.310361730236578 2.601323452064151 -0.5343675395186991 -1.1527998679988019 0.06744029303084514
Ni 2.654972834133279 5.04923761992119 11.252022427928999 -0.5182721766187333 0.8649880090212975 -0.07225802613446264
Ni 0.9730423203231577 3.3247240679619567 3.7815718693181424 -0.5963522087516117 0.7664592221157639 0.265109275173666
Ni 3.7121320310041717 2.585707560950208 2.6705444056025884 -0.9103363552491096 -0.8350765661738456 -0.32294212702173414
Ni 1.0601711237408282 3.2211879512047603 8.405518179344156 -0.14110496970484732 0.18075189467250805 -0.8052653963496841
Ni 3.30187683891254 2.475948604293566 7.196106531439319 0.4750141372610464 0.7517612537839569 -1.64134212165327
Ni 3.965233381158503 6.83067025834439 6.242638117840564 0.27965811952211833 0.49441902415021954 -1.8215008628264695
Ni 0.94358332388058 7.394325689817698 11.318120203244648 -0.3443974686820327 -0.25402293545251736 0.0015701727005972958
P 0.31873422144260904 5.459176243122588 8.074077787130122 -0.3220687232778453 0.05720910222114018 -0.9259506647475987
P 8.556884237485447 1.560503732342019 8.16021799112772 -0.3743940150441229 0.7800580438461211 -0.8540248251415744
P 1.9625462229384532 3.1324582136850525 10.471151895698219 -0.5335478718308811 -0.3264555394916313 -1.0619098285854485
P 3.974802806468987 6.118345031192035 3.799972662183596 -0.2963306950817929 0.06818282762382451 0.7888949254114607
P 7.003064631140071 4.047839771858553 10.49903076113726 -0.01237651928748191 0.061274787650081576 -0.6238900091605641
P 6.302787111467456 7.8483759266667645 10.197204031880744 -0.31137010591341857 0.5193096167443121 -0.00213632961671245
P 2.2155119007112556 8.493082038865262 5.738746370430606 0.701638883206269 -0.5197009386454597 -0.2337122489196233
P 7.087380493847381 4.0735180312692005 1.3434333487915118 -1.8999292794377018 0.4596463965557246 1.420839172335069
Ni 5.251724126939915 3.154708484255744 0.4402867259842608 1.0104949644485821 -0.5353576713461102 0.10467423768163908
Ni 1.3435093253251678 0.9244173387833057 6.994253162201059 -0.3990292970942999 1.5689920500256334 -0.057886845014455145
Ni 6.825795097434795 0.7105687220528307 9.169828540685554 -1.0373583644983295 -0.3002685966836184 0.5625553148068247
Ni 2.745430133311117 1.4256363402771501 9.180961816313793 -0.924583352086427 0.1416227898815303 1.4152647635710853
Ni 6.231106869893177 1.860565816156118 2.466599872723702 1.0183674252181236 0.49890817026982465 0.48133313750053874
Ni 4.13746494709635 6.89033897174067 10.392689844012594 0.6983548131383586 0.16552093665536655 -0.4813958724176742
Ni 8.124188833488983 7.395573875727761 0.10561823557238872 -0.8762265580495942 -1.2888677895003737 -0.04187401452596659
Ni 7.581716383185008 4.04771314430246 8.313487080540586 0.9095781369268464 -0.789205257563028 -0.3785098369847094
Ni 3.2435015355534986 8.331405784210341 12.398501084937976 -0.2609695419736796 0.4910979301967865 0.5909161253377049
Ni 0.31591404487190117 4.844625578925182 10.281874451745116 -0.5716629335350477 -0.3360269852301503 0.5175669230215925
Ni 8.531676308997433 2.1567386250330634 5.802143360871294 0.9571618002430805 1.1965718708784296 -0.1327180311927327
Ni 3.6214847904921927 2.6963167311977623 11.739565653364759 1.0979122148219866 -0.18711974587206484 -0.3186440138670125
Ni 1.3311450489551941 3.5342745836456055 12.584309838336662 -1.1729663156443477 -0.5067430929332112 0.4732886699295075
Ni 2.9838517317840534 8.409064655397314 7.931372149343073 0.6629113847290842 -0.4094198963000046 0.1585668739350366
Ni 5.588101184876504 7.825745773427793 3.528778947711153 -0.36974443208725355 0.33520140400506143 1.2434027151890392
Ni 2.9629039160760366 8.289727228604752 3.6271369019066744 0.16996637402122985 -0.020192930008107162 0.31106825840228364
Ni 3.466293675674339 4.0149799210523245 8.977506608490952 -0.6119143248559268 0.7492480004438 1.1818029400993713
Ni 7.288980607973453 6.244276135726887 11.16334153246664 0.5592046531670369 -1.0405573310516014 2.032048243593855
Ni 0.6106206875457942 8.975089831134655 0.2508699917194572 0.7863554468190586 1.1320844898283213 0.2391097657861108
Ni 4.439580206284248 0.19598056408315753 1.849933623856993 0.2903215127732355 0.47193061323971625 -1.3283262526063124
Ni 6.021502085256916 5.884011693815827 0.2614072133515122 0.4281069311865465 -1.8009742036280274 0.8136515635308504
Ni 8.119738779374845 8.974936069102256 11.248064412318536 -0.8275288357335748 -0.2561448668915266 0.2612919583101048
Ni 0.0900086758362509 4.895683618507114 5.764083639922346 -0.7244803065808167 -1.0369284760497626 -0.1741063643315324
Ni 8.075220148582593 8.707453446505893 2.4563140972387467 -0.053518797853746546 0.6237840797103192 0.11613801534686449
P 8.437420183136792 1.5982116095815362 3.478897639918346 -0.2802294186445561 0.5053454412547361 0.27572433168535093
P 1.760466733064313 3.2610665865487354 1.7077037438878382 1.012643635360469 0.7890805590597056 -1.0001642719465358
P 4.662281898150737 1.129707741686956 8.304591494725026 1.5108753483885593 -0.46792869116917474 -0.20871726953718248
P 8.824131694620494 1.6891301948565722 12.43334356147961 -1.6864726954433211 -0.15826271243105647 0.2437315808288383
P 6.366399368753502 7.816709992817987 1.465845111749511 -0.4631598090256217 -0.1425627851972964 -0.8911623534238201
P 1.6711129025895735 3.2479877689693777 5.899601354936008 -0.11086056899800907 -0.2882553742728261 0.4794094381152646
P 6.880869039509974 4.033946919990024 5.986693979051938 0.9947307596357899 -0.154126835885812 0.226159633383346
P 2.6148138092008115 8.463279339056145 10.28650811581559 -1.454449918410979 0.01970107797335317 -1.2458910288285316
