# total energy = -340859.96779892425 ev
CRYSTAL
PRIMVEC
9.41413040009913 0.00000000000000 0.00000000000000
0.00000000000000 9.41413040009913 0.00000000000000
0.00000000000000 0.00000000000000 13.77853143543198
PRIMCOORD
 96 1
Ni 5.332944758472402 4.098093290787008 5.743263391998779 0.659432167931232 -0.4655730464528047 1.0212969401600926
Ni 8.51933601726639 1.0513794828281808 12.322388582525049 -0.18999912430238894 -1.6101322717093691 0.2780162130433212
Ni 6.538198200584854 7.74895890890601 0.9421539191815677 -1.0062328467381187 1.4008696711916775 -1.1275932868261869
Ni 3.928469491558866 9.359189407028909 12.925763726937843 -0.19129701717820602 0.961649660811105 0.8359381428431926
Ni 7.659308146332495 7.4452873087449385 3.0335782719912934 2.6114869644195795 0.41406382282991916 0.651684148554697
Ni 6.331030849834797 0.1301202257837461 12.695456443980952 -0.47569985047416136 0.5748374746082875 0.5181785884636624
Ni 4.501404045739436 8.153192248625025 7.562609024424863 -1.0012960715581336 1.8413094129119645 0.4602984283174266
Ni 5.316705383754423 6.186298011043951 4.845592179762095 0.5673208545162681 1.9810504123897494 -1.742825106091121
Ni 8.869974713350938 2.497587589234355 7.985375020995943 -0.960129881732469 0.16487507554125153 0.9595801798765862
Ni 4.046051978647305 1.7498138076553469 3.3205435565729298 -0.0002666233978253473 -0.12105345037061087 -1.3109016293719618
Ni 0.809225458337895 1.5610134250645822 6.373521526814275 0.6161479033213002 -0.5000353418957324 -0.7715451212791035
Ni 6.90718503656815 -0.0027413947350002797 8.64917005348989 -0.5357567065567419 -0.2397232310003936 0.7145918438225113
Ni 3.777024377884589 7.475356040831446 1.0966783948675844 0.35557868210983273 0.5850028451770635 -2.1339135510717893
Ni 2.236882079631461 0.4454681717203013 4.396068400720921 1.288176162749988 1.179197384155724 1.5681770103235055
Ni 1.3742464946124169 0.6899569005178674 11.916128380558623 0.882072732417726 0.9847754481952912 0.37030853212083964
Ni 2.394964155146999 1.4890894697919104 9.396930655286518 -3.011298648205859 -0.1718669334780524 -0.11040522662814532
Ni 8.896804984624122 8.365292603637236 5.212281026546169 -2.6874026419112877 0.4708751753920084 -0.9020720583577885
Ni 5.674856555795461 6.278933052913467 7.259287629909884 1.3470258858983446 -0.8575544355613876 0.0453822847895412
Ni 3.5642556196231148 6.174492691683751 2.927125169709576 0.011229293056916145 -2.7064498883507264 0.41679073484277895
Ni 1.3916626356143074 8.455847122716797 6.199828940482881 0.3695739679476603 1.7592176885165314 -0.1467616537699924
Ni 0.21413568997686594 6.767131020522136 9.61915120034037 -3.263337463348812 -1.1087139334231808 -2.449178364053924
Ni 8.669717334220012 8.529663318173998 1.0011494493526742 1.8757161725266083 1.0402212878684216 0.06845485033828856
Ni 5.328670743329235 7.6061936233418646 11.168656792561325 0.6915362475546284 1.7902046238163491 0.19126025040299965
Ni 7.030783152899945 4.574429454253849 12.864436316698535 -0.6003993822377918 0.18537705214934525 0.7507752357216038
P 1.3364864180942642 2.504149238033446 4.330743750768424 1.4731035289564243 -1.2699372711444579 -0.39885497629996475
P 7.4219873363234905 4.700324618371839 10.813873996331354 -0.04011975083902122 -0.007648517684193278 -2.237434906095908
P 6.893986425927798 2.3746484620215504 12.755282300441984 -0.2665658051145345 0.07149363716461236 1.128538424348276
P 3.279788845215479 8.304957442728526 3.245243694184972 -0.4289034589459129 0.8296978183604355 -0.29058659350916405
P 3.2626457139914558 4.382465923891931 9.095869593449677 -0.25346449184588604 1.3076476412110383 0.9323208299400007
P 7.498326518693399 8.624708377392965 11.101307163187474 -1.4721360228368323 0.642212718729152 -1.960308551856708
P 0.26757217622277457 2.010566387909597 9.99006887444231 0.7799508288442955 3.0128821906428946 1.8771338788097416
P 5.500469206650045 6.541559045091704 13.321676858323087 -1.393176159202162 -0.8347194399447432 -1.2471318432141683
Ni 0.9581984214029309 4.914034789660444 7.350184823331318 -0.8727146882415938 -1.4185604036032216 0.4312663027511347
Ni 4.353169150487669 8.834313987883284 5.202470561390455 0.1346666702786713 -0.2735319520197224 -0.7235128004612249
Ni 6.890004248823041 2.274576257237715 9.638689286305409 0.45797980748657907 0.7928387405505571 0.6892371671078066
Ni 5.74696879367356 4.980376165682238 9.311710182418674 -0.016223918058030123 -1.7629509303067186 0.6641411433711272
Ni 7.993321488357941 6.050687464485988 1.0167373662558798 0.9840987338432405 -1.6817966301238905 -0.16146039343274776
Ni 1.4901720947731087 4.39186122590268 3.1170345368462984 -0.19115817760749657 0.46518146744134076 -3.701093487589348
Ni 8.050088693893832 5.23966955574444 8.531997081068251 0.6947776373100616 -2.9576718640193387 -0.5908335929262276
Ni 6.790732245112266 0.8059531066555939 1.4350476549695574 4.435690827999509 1.9965189403389938 -0.26037536003310646
Ni 3.1472190627351426 9.099387653932057 10.705394973215254 0.669169449823654 -0.7556076241132407 -0.06059550219486983
Ni 0.9524181454163574 8.301238861271365 3.31255190138563 -0.010283641314195192 -1.3109823620112262 -0.4770242257125398
Ni -0.024488977074712318 4.013676784644331 0.8861511410237047 -0.3222708119863224 -0.5068119984979337 0.626379094131005
Ni 3.0438048417049983 3.8341116638497046 11.297706631733226 -1.0932906568895753 1.7036916304247691 -1.2548405247123355
Ni 8.957422569440972 6.9228878058606655 7.139607674597001 0.3478823419068396 0.7160895114139603 0.6396760683502274
Ni -0.032294232482640656 8.093544319226117 11.79380305463951 2.3826132745391804 -0.3460866834589975 0.4961102958097133
Ni 7.7230323941388725 6.005866790264366 5.103623134954915 0.3803607741505191 -0.19494644100533523 1.411655963173904
Ni 4.6580081028023805 5.459489497579112 11.599773122683041 0.817414115897076 -0.5772255152244898 -0.229928613507475
Ni 6.9661363203269815 6.97691549948761 9.215247355180852 -0.3747606543549223 2.1892958844968358 1.2496569236288673
Ni 4.037466291839887 6.550540125370517 9.285930528083767 -0.9792025820932039 0.0418012523065022 0.49079608268565156
Ni 2.1941984129814225 6.768995018315852 7.283634453617499 1.5047370967013054 -1.24030916386538 1.1910437419713489
Ni 2.9900407437256487 7.018337672681297 12.270457415709519 -0.6169248906966408 0.5841394687355036 0.1531439031472524
Ni 9.278943360596413 5.287841660342641 11.927330254168437 -1.0004036416508513 2.3713654695395032 -0.5487392348593388
Ni 2.474466485288062 6.919781142871138 4.791704756676191 -0.16103950384524524 -0.41535323106530403 1.0418336266608639
Ni 9.379128534943504 3.14392411714019 12.286013324569803 0.3796776320405655 -1.059009367109202 -0.4480761752196219
Ni 4.409804558199763 3.924656768798992 13.53954242671344 -0.8351015058745102 1.069578657984616 -2.6609776149505397
P 8.209601717210608 4.079199131332525 6.558153332520911 -0.24539894122893216 0.8831214853972145 0.44758843694992595
P 4.7085431540986775 0.11103401807172836 9.315830747238417 0.9739179366554969 0.11341958797443692 -0.5752532219894674
P 3.8749030903152133 5.8198059195825484 6.213345748726402 -2.1808012167622635 -1.0551761094060408 1.5469854638475549
P 5.785999777778338 2.7537837304373003 4.136797604571371 0.23160548698926564 0.2342976891094481 -0.3591347748922073
P 1.6944493075298777 7.531492499639161 10.494045865798691 3.614069101778989 1.6092074459022545 1.5274975303262726
P 5.089231754009191 9.401590649770808 1.3323234896882987 -4.424854399505637 -1.8554304256943788 -0.8983930668443044
P 8.717644671431161 9.282803154007643 7.315008925572634 0.3425401037583198 0.03724602883565198 -0.1792143749820591
P 0.6463450006230794 1.2985380589706854 0.41036193852562564 0.09675446861393014 -0.26316192163930807 -1.796926515921215
Ni 1.189390632605324 6.516291519443556 1.7646024648985197 0.13715575524911217 -0.7817727125443825 -0.547075988224303
Ni 7.785278623492656 2.528287068049039 3.2433006176969776 0.9904318751501201 0.07180088399238602 -0.5402741348111212
Ni 2.302451496971011 2.5673839510657155 1.2482091771273305 0.5568937456456732 1.1497263712798005 -0.4325731944880163
Ni 7.635678679351551 2.1430232008266783 5.712331384166395 0.4936389514510854 0.514258684583966 0.04058563473184623
Ni 9.146787799848013 9.531995182288748 9.623904394714346 -1.1042648965128918 -1.6404478919737748 -0.04368355693087961
Ni 3.194572137999742 3.8961413682072483 4.3555866991413374 1.690616799518682 -0.35340635704886236 1.6356808096024347
Ni 6.483417376536204 0.6919734072219783 3.829081694045753 -0.6511298187131238 -1.2973943389141462 0.6609750869383196
Ni 3.4239756644505897 3.299040741620271 7.295139462222045 -0.709938661321216 0.7948750542542956 0.18842046696135936
Ni 1.7260807852414193 4.577545531373647 13.175803026943361 1.1910157169468907 0.8707562789636424 0.6853892541166261
Ni 4.265504769401397 2.437497195712697 9.442262516781872 3.0726873357259854 0.7121276985527348 0.7486949561538073
Ni 1.9116803635399444 8.649241600879952 0.47515563153082113 -1.830259068635074 0.6485761990533346 -0.778416137367324
Ni 5.412409432092379 7.584710578062776 2.7402330313248022 -1.8692056251016003 2.4429794343320634 3.1926298124206047
Ni 4.214113032250413 1.9904013208684894 5.692159727234097 0.8450537319912155 -1.5898195282939458 -0.821820472494888
Ni 6.774756466041882 3.4106264277258975 1.1838711280272654 0.6048597320019905 -0.05254254998340629 -0.42805473779237246
Ni 0.27557889401850855 4.119030316510362 4.918040502090878 -2.4486250626536155 0.659620115572322 2.962899173856549
Ni 4.70987054646693 2.025280673523627 0.8770843921594232 -0.016830184183461338 -2.23370834917394 -0.79680338162526
Ni 8.216276335572953 4.875352128375703 3.0924533012949276 0.21411992860999254 -0.20123535933784054 -1.048358315153259
Ni 6.240391603582797 0.397556838530614 6.453574583576208 0.14409207735762924 -1.598039859321209 -1.371720303321231
Ni 1.6467949800965966 8.81373469911024 8.445895445607013 0.880573007943748 -0.5354867407248068 0.56644873632396
Ni 7.491793112285123 7.23999336991887 12.758712809512843 -0.004383216669360194 -1.2132290198191364 -0.9592955587566317
Ni 5.953175903135944 2.320432485789179 7.480654313348129 -0.5169403451811871 1.250120493528847 0.8672621497674547
Ni 4.622554488200695 3.956853094326812 1.9160146291168472 0.4011995652727413 1.1919181741565021 4.162202584733528
Ni 1.0273263799850292 1.2215493016120582 2.599140636709865 -1.1576978195210514 0.23425835123108044 -1.0361964829797443
Ni 0.7235860566729774 4.483790208001849 9.916215963877049 0.803887542165551 -1.8535558343794851 -0.8713342629542993
P 8.613223138461988 0.18861021715928433 3.2405178007887834 -0.9733610357107622 0.5284447462763608 -0.5596309420711781
P 3.448442989025678 2.0081281281693326 11.870810640258679 0.5181279377313852 -3.3178319948522668 0.884427862913464
P 2.8522555330750166 4.950928766193638 1.3106493375647028 -0.8794250103822339 -0.5534746926617952 -1.1602121013024729
P 0.3940453679394221 6.619395074174749 13.516270696682806 -0.09336421198545856 0.6592707026527033 0.3808598252741247
P 6.547273422166379 8.127331632769785 4.815982857232826 -0.21011080745059943 -0.2904726936391191 1.4560375746130731
P 2.9500306900726567 0.6186392152346666 6.73071622321975 -0.3703753808030331 -0.6416928416699401 0.481115622173094
P 0.5402270413790197 6.1426917596273265 4.050378712919991 -1.1523895199342604 0.5937175993422419 -0.2679230904733773
P 6.163939451649632 5.677774936179563 2.884246630562921 0.5695515436189997 -2.605574455589887 -0.8901033160316864
