# total energy = -340890.34150859487 ev
CRYSTAL
PRIMVEC
9.10439911639988 0.00000000000000 0.00000000000000
0.00000000000000 9.10439911639988 0.00000000000000
0.00000000000000 0.00000000000000 13.32520839361682
PRIMCOORD
 96 1
Ni 6.526051517369602 1.9313617130493503 11.712551848122706 -0.9315641542796343 0.6535710811647647 -1.5212487212030834
Ni 4.798974312380691 0.39873080240262815 6.229055091915408 -0.24834671100334646 -0.8464871220036324 -1.9374905255209274
Ni 2.639775010677606 1.3662334491966186 5.054717794859903 0.8422638279509043 0.9046434186293904 -0.8110493500213128
Ni 3.409014799006984 4.283191891904712 5.39436377811823 0.5474390279906766 0.08552723243954302 -1.9617738235483244
Ni 4.970601340700833 4.765861612683044 2.4818737745114845 0.01619152215819792 -1.2433788039296392 0.29463710942945387
Ni 7.215254532797682 6.1238919982482125 2.6652145227741597 -0.7046391034851736 0.7889242359874994 -1.3967350801980138
Ni 5.013774401455918 4.464633462505322 11.734405137395255 0.6148615804097088 0.4278775887845599 -0.8457808399652272
Ni 5.776304247613956 7.9328450647661155 12.463507271645158 -0.07789825513937552 -0.038531066195662676 -0.1590291582834358
Ni 2.028232519973456 6.616021189740279 0.41369479284064126 0.030638807931779494 0.8689158833207938 -0.1577952858763347
Ni 2.907471658796917 1.5375964499414974 0.3989656959006208 -0.7928891341725184 0.2137941698394576 0.4090895095437793
Ni 0.47336957704966837 -0.004070576858624765 4.5678017823194095 -0.9341308865655461 -0.5153449756696092 -0.6052993906425705
Ni 8.59801246644611 2.4994398022257114 1.307183226769076 0.5446470670678363 -0.27934701603960277 0.011960257685669724
Ni 6.814096497582463 0.663402969125305 4.752062074895932 0.7581329616382556 -0.3379172602743277 0.5662091095093281
Ni 0.8755181708920812 7.353604982235531 2.465922867205937 -1.335681921640435 0.9322454966173751 0.6213011653874654
Ni 7.59151203634585 3.9062788716179604 3.555792280295298 0.14733321000274627 -0.46774588573440734 0.3797395956267524
Ni 7.749182020773637 3.9996353804713225 12.704760192442 -0.6140984769914393 -0.6605223156716173 -0.035422859583984154
Ni 7.961004971327794 8.665567108116868 6.7416491518101065 -0.1261113245094925 1.3677852299328832 -0.01818566977009126
Ni 6.921337215135004 0.800047254163005 0.3756493296851477 -0.15861881021889457 -0.15303000327720742 -0.05511365314469218
Ni 1.6229501919446447 6.660996921526472 9.57253642586227 1.1888960995007267 0.5347586043095307 -1.1953277140586833
Ni -6.737255368781763e-05 4.855002784731344 1.3105145264169638 -0.34981735414602333 0.16980182341890757 0.14078949534695753
Ni 6.605851575893078 1.849331076734859 6.797095853055265 -0.3360593811299825 1.270908891029108 1.325448673948201
Ni 3.267113633901805 4.4473624173234585 0.37512491629428035 0.6993079210802473 -0.9713830860487852 1.2916281258543303
Ni 5.926362954354849 5.429681563289281 4.692991822790266 -0.5055585857068067 0.6297840060474961 0.4935700458863629
Ni 5.108532987777918 2.968361880292069 9.547538477124345 0.6359412838981435 -0.5817077193655594 -0.4364812712931708
P 0.38089801579339455 5.623068105570758 12.590416222674968 -0.4889626290213385 0.19710668188144762 -0.481075512963778
P 4.146125162746591 6.316896155765517 12.607325823210697 -0.4908143375180967 0.3436924721952081 0.7888679288282672
P 2.4838530708860427 8.533052578532248 1.558569343816532 -0.1403053566216874 0.8505427801302449 -2.217227063689465
P 6.327439049977745 7.4688302578399925 5.727227894451954 -0.9212694572218455 1.2939655157382555 -0.42169537123324796
P 4.78637382396124 0.9525568651542713 12.619106005267001 0.11537105527385291 -0.3506557908869187 0.3226585343430443
P 3.9916963444151365 6.252701037380002 8.193937381744192 -0.003106406839465618 0.3331645760806908 0.33665639128403313
P 4.683931124759169 0.9907042975802113 3.8755706437350357 0.0071795484675747315 -1.1292166813622229 -0.3619239076015702
P -0.02679151536988391 5.520051829222426 3.4885399046762204 1.7692727587596886 0.03349298955112296 0.5322787753104704
Ni 1.4853645120351446 1.3316185236397156 2.7969342383132463 0.0867698465973925 0.21643392145514984 -0.933874804690682
Ni 1.838861017715806 6.379807553871302 4.970862636956352 -0.7967640437468924 0.6013599463788482 -1.591261402946795
Ni 6.031300258923199 5.768137601579094 9.140280494480635 0.15605850569088608 0.11350186327559808 1.0441085387379694
Ni 8.356682158256518 2.487640500931196 10.372382472804125 1.3048302263669014 0.4571606540193933 -0.6132132461730084
Ni 2.3059986335493514 5.451222571671089 7.012670726497903 -0.7732039970387652 -0.6785735167463732 2.4551615782205523
Ni 0.7201297488905327 0.0347788047415491 9.267069267441704 0.20478579569326025 -0.518637787488268 -0.45186958082378303
Ni 1.5767089486770196 1.188897962611306 11.596315984212925 -0.24148263689366153 -0.2997777730901289 -0.9069124171692251
Ni 4.4089236441248145 6.85750627271537 1.6373752019531551 -1.3723623077806042 1.505012718960195 0.5771265277527802
Ni 5.949105743424061 8.024863226944868 7.963397607423627 -1.5263469616615972 -0.3994920956633313 -0.15630044649836308
Ni 5.279641065346682 2.811538604984953 4.756752661336467 0.4745991612108149 0.9413230334386111 0.6939625976079339
Ni 0.6252518949397062 7.3203557165506785 7.199636846500915 1.174436472431971 -0.4663217516933711 -0.39390020339785065
Ni 5.229912837205755 4.682037409736592 7.201942080364935 -0.5637426502467066 0.15416360266101836 -0.3249714987469371
Ni 8.038601765257695 7.263252925100678 8.900479725347738 1.6186397949597477 0.14919468869151725 1.199571576936702
Ni 4.756238262784661 0.2391279540359323 10.519678904843817 -0.43938584653447554 -0.254398059403749 -0.004506372510785787
Ni 8.25596019049323 6.999334602627373 4.812958669470487 0.24408279352066994 0.5265182186776094 0.09179301084359676
Ni 7.3612799907164534 6.072807214634382 7.010485670702622 0.4479111103966673 -0.9512091822040714 -0.10812722922724605
Ni 2.055582135011051 5.369583424519918 2.4446823039959797 1.4316012959475797 -1.200066000074617 1.0553293471544534
Ni 2.46153818857674 5.337763549501145 11.732353005827521 -1.4185244081589636 0.10925208686030861 -1.1214668622134751
Ni 1.1370302006708335 3.6201276064276753 4.029076275992984 0.2280995307185362 -0.9450778724953529 -0.5208165403071418
Ni 3.905140821724585 2.503554990640156 2.5387453142231498 -0.5215799008357275 0.49356773189351766 -0.04223731140265629
Ni 1.0106975581070285 3.191556225380832 8.58874965075395 0.06912462271180352 -0.09544886242862916 -0.9677819989610881
Ni 3.745303990299811 2.9660311541104365 7.30892969562119 -1.3329272417134332 -0.6622189866477498 0.32607501622376106
Ni 4.095723209068786 6.93932750784948 5.909583546726923 0.302769251618285 0.27024093997327653 0.10540083143501848
Ni 0.7684595413224802 7.610840675734936 11.62217976130973 0.32815246757808 -0.11055460772181605 0.119810064881813
P 0.36215843102911954 5.3164592554971595 8.183409965010512 -0.6412038178486634 1.1001873840094083 -0.47784852138604805
P 8.434360891778743 1.4775347287687226 8.095903943049015 0.17776555835067448 -0.06815865925410843 0.42955703336951184
P 1.811611551068828 3.2313060320566445 10.663391845379252 -0.3911213551011329 -0.30780038628428924 -0.8436362828183985
P 3.768010361772435 5.948650523466711 3.8543428266838853 -0.06887034060915236 0.39150007859679026 0.06391813881019959
P 6.794986363772906 4.122617604149031 10.472334208399575 0.3468410451265188 -0.30123044637625546 0.8247715847034117
P 6.546536415450357 7.762756679901818 10.282130564059889 -0.9188500491470756 0.7443366791851117 0.6714268783992631
P 2.027285662462168 8.486756708869741 5.796785503935052 1.6286616979721242 -1.7081836047578514 0.3196590853950882
P 6.620864730086485 3.743801764440556 1.413178462518307 2.0193379951160386 0.8439813248626432 0.8361353464556632
Ni 5.178573130415809 2.880868604489376 0.23655687171681883 -0.7638467241935814 -0.37407699802433636 0.43356538319795657
Ni 1.4729552159977806 0.9135900368051011 7.121338103396779 -1.142115648812078 1.7223100168569048 0.7857913467854725
Ni 6.581661187359493 0.8977547553687198 9.254730075277772 0.9597275040877278 0.35127748363131756 -0.5007411097135054
Ni 2.761937838432084 1.4742935626723896 9.354375903061882 0.4138745896372485 0.6000170591977085 -0.3121555779291914
Ni 6.6091564727834395 1.8906104224673679 2.7210873098993984 -2.016821913562404 -0.03347242072583267 -1.277595301910348
Ni 4.213443090039527 6.789368949499205 10.401990889270092 -0.22185020737471473 0.7460132955565861 -0.0416698689349605
Ni 8.35959556598356 7.196262756177036 0.45194692585677176 0.8652749441340969 -0.1823385224333376 -0.5273947077452917
Ni 7.503454287796043 3.789879128523535 8.453578457498235 0.5530789998852733 0.04340536356882847 -1.220064811794047
Ni 3.1609472354486106 8.412027800671146 12.364953971758688 0.3478329767261429 -0.10517817390125112 0.9214928860865614
Ni 0.19180966034921682 4.9312976495832235 10.334724857052294 -0.1659783359077593 -1.1893193030810743 0.4986906549423799
Ni 8.800694600256676 2.025237172654092 5.865317047634283 0.5586364393683928 1.0002953982077611 -0.05160281177795629
Ni 3.6650122942223975 2.572539022976993 11.530555819614042 0.18990939280206004 -0.23581618263650359 0.25020793258180135
Ni 1.0655151453711298 3.4098432993293613 12.688356796498848 -0.11703173080572747 -0.04061134576345909 0.5921672241359865
Ni 3.1621217029385735 8.56773123488318 7.814635367121267 0.32338384254484304 -1.5772797439557222 0.9799733988209575
Ni 5.959348192464439 8.116772136333859 3.37824648208969 -0.79360030130693 -0.3252103542306206 0.03834568965773396
Ni 3.0521769788393724 8.421177721813883 3.5100062569850228 0.8768184259973222 -0.5545087903532644 2.14591957439373
Ni 3.3603335767679625 4.439942332018652 9.783247729280577 -0.09343234621923263 0.7478598618470218 -1.9527567076513785
Ni 7.500868638438294 6.032629501198661 11.474710345686244 -0.752295529020872 1.1773896415230238 -0.16502574218650287
Ni 0.7443256000636063 0.15846297759349118 0.28366030158366506 0.2513980962351606 -0.7064512169932479 0.6263135310003923
Ni 4.6722228674561235 0.2697342126484102 1.4747542452692282 0.206480924007496 -0.43241121498885526 0.4367319538513962
Ni 5.853582387573711 5.646402680584525 0.3607162942042344 2.153929074961768 -0.24173306234157077 -0.12881715347642977
Ni 8.300098317557898 9.255259040868212 10.945619114537179 -1.561637409432775 -1.1539488940015805 0.49330290826790524
Ni -0.11096896900323854 4.670547658013075 5.727641234173228 0.17685358805936638 0.3150573249570187 1.097715525430148
Ni 8.300781147493923 9.271009651392527 2.1649469088845876 0.1693166562523729 -1.0680218550204572 1.3398679346973246
P 8.503117314136905 1.804546537330754 3.6978118025893876 0.8567689635456148 -0.13018472324791772 -0.26037073204741606
P 1.7800283904278769 3.2084357813993747 1.6558034162666027 0.3359025438371441 0.19162920370664419 -0.15968324692766692
P 4.612042789094438 1.2277464337715653 8.112906408456041 1.2152306236301975 -0.4888965516700935 1.7060593593259974
P 8.65140976744328 1.6297511781074554 12.460109509883496 -0.3421531527325462 0.6324844356977946 0.8324422138747921
P 6.613162408408121 7.931934624851416 1.2583699907424224 -1.4108964593000604 -0.45702412844152895 1.1703944411521134
P 1.7340056527397796 3.1426473931631356 6.275333663219536 -0.1451320885863694 -0.23911130844800754 -0.394068867765231
P 6.918478433802846 4.043727985540255 6.133793032320577 0.5919165415777612 -1.592819234352218 -1.033402208064059
P 2.6720136880571417 8.590264622772011 10.288393480233113 -1.515247766424642 -0.37514554849816684 -0.5748950673191002
