# total energy = -381169.43734663114 ev
CRYSTAL
PRIMVEC
9.21538046926067 0.00000000000000 0.00000000000000
0.00000000000000 9.21538046926067 0.00000000000000
0.00000000000000 0.00000000000000 13.48764082169135
PRIMCOORD
 96 1
Ni 3.2245352927581705 7.886623836638953 10.341001229391386 -0.32417214277409334 -1.3191862379782573 -0.9958093374119495
Ni 3.6381492071152732 3.0556358024759485 10.444977443866794 -1.273513932752123 1.3058882353177703 0.4771003303661138
Ni 9.064386301503047 0.7112384444694869 6.715307530300199 0.8671603340822678 -0.6619626476625695 0.3889976238899107
Ni 4.474371247009937 5.548571267974444 7.298984837472403 -0.6364092246734976 0.3241199493799192 0.20184856744180724
Ni 2.6496153614925126 3.72668136573276 7.684677992572791 0.5036145746065585 -0.8010187052581882 0.9377201465787011
Ni 1.9018241110319498 4.703124632391626 1.3767639949218982 1.4818499076904867 0.5194849659799118 0.2877488669500528
Ni 6.695388485764787 7.455168946005859 13.428052263336784 -0.9556075683820833 -0.9761763936723705 0.41997221789455413
Ni 5.794898383603197 7.3437918596052185 6.699270925488483 0.9957471167154465 0.8233289387196143 -1.300258804946135
Ni 1.4719081889102659 1.6105535856418258 11.956038097552979 -1.3896501483267745 1.2359398311530907 -0.699723411351111
Ni 6.405435759758685 4.662650682079561 1.0114313010736684 0.3902155554574118 0.6597144750583414 0.9635425069584439
Ni 8.138904087946576 1.3137722628276092 12.178907462608107 0.13680377122633217 -0.27733255671273527 0.4409490772565373
Ni 0.7432499110448554 6.687868735433583 10.615109952034206 1.0844853998931192 -1.024708536944803 1.082793356902677
Ni 1.5130548619848032 0.4450236165983685 4.923190678757107 -0.23643350450552833 -0.44679345185245634 -0.17231327698685164
Ni 3.7776700649760784 1.8122137529184443 12.692220733439747 0.6591197788971358 0.3112839739575155 1.657697937303474
Ni 1.0187510776521913 4.964859863895099 12.443305939020549 1.2360239062264649 -1.8991191248315809 -0.6614777376063511
Ni 3.163999459515923 5.930134089620854 11.422413206984814 0.5200364676080076 -2.1494175602446597 -0.7890381358575442
Ni 5.241422642313899 2.815925329908229 3.67921294176704 0.9093737342255241 -0.13011658901414366 0.18354591247787744
Ni 8.665461703356652 3.20899816155914 11.08395440519033 0.857373429898833 0.36570317213834436 -1.036679336153434
Ni 1.8487250896981346 1.7692424345429532 9.09350229558569 0.13561463601423743 -0.13709070633913165 0.1420562778745231
Ni 8.407255962511083 3.6515760162238062 13.430304502284022 0.07878194329590948 -0.851475062136527 -0.19065552693946522
Ni 7.957259726698601 3.352979263488944 4.208818083444921 0.07724750892925407 1.6901622284797666 -1.2012525641835503
Ni 3.237547409752851 2.976125501179844 4.931094710447147 -0.07956021622283072 0.02786664450328104 1.1767286109002573
Ni 3.286849694399833 7.2515827642449 2.329315466594639 -0.16474909148634853 -0.5966543133730627 0.11922616735388498
Ni 9.104685159589263 5.842680130499384 1.4891160685591087 -4.011102708599498 -2.7655718913238627 -0.8093642490094062
P 2.3992519092889215 4.614666196816601 3.852259353187793 1.265070687080776 0.3935016824078513 -0.5991166588706263
Ni 0.06128780827536806 8.35629490940869 12.959774556069595 0.5372510317140812 0.07044591262638836 0.7578830504109787
P 2.5028051378082 9.097082470835288 12.57780441461358 -1.057355633555863 -0.8955103459798707 -0.6968162650066451
Ni 7.6037669534698935 8.588439554743667 5.127892843073346 -0.8213530459401661 0.07985794996890763 1.0383610947312312
P 5.5353103357114515 3.81460530924993 7.523851175440243 0.9899119980909081 -0.8692172166112965 1.433943570927511
P 5.272082212598107 8.452098003089068 1.24576552076979 -0.7694617563875136 -1.0275123249421851 0.684417634231976
P 8.973522651667674 1.4194911057192314 1.41637722871321 0.32430095504247375 -1.1345946578446848 -1.1314833659092127
Ni 6.4726527437241215 0.01623197087424192 2.9884833261726667 -2.189378931128946 0.8253655095336689 0.9847677348858072
Ni 6.2905015365592165 4.535238833943267 5.763565169018486 -1.6852503930004459 -1.4918108755579405 -2.1311028210958716
Ni 4.8020793861372875 2.1515793481352223 8.487138565171627 -0.18735320203910957 0.039166385786816416 3.123960532078665
Ni 6.0637663194649445 6.677565940249411 11.239412341755523 -0.5975238604622096 -1.326165754619884 0.37441612653130996
Ni 4.293445685425974 5.816913927158644 4.940415146090504 0.1451104913198146 -0.478160396199512 2.2621182677752008
Ni 4.312309568916137 7.858811818869871 12.601192128296862 -0.04621480799316557 0.2347995684465311 -0.2695786237989293
Ni 8.228164261608383 5.947532727642069 12.758525394754706 -0.24415555574013434 0.9970285545310312 -0.8812893172844822
Ni 7.471406446108285 4.989722959965672 7.608998524870659 0.4943879138019679 0.8315862936324001 1.6148800708069995
Ni 4.0630611777297965 3.7380807911735676 1.1233797410533954 1.335627414253416 -0.5828742288698349 -0.7236123021535666
Ni 6.067498548489624 2.5374273216247816 13.360573562570604 0.8567885039296407 0.8449336614735835 -0.010960098555929512
Ni 0.8757873537083743 8.912231157240182 10.562049635297683 0.3225742021593541 1.2964070353002126 0.9671399945017148
Ni 2.6690137370405305 7.34185662974057 4.7904320669662 -0.2667285559446439 1.5992760457211552 -0.8206794169119092
Ni 5.671412287478046 7.535987831305678 9.073634857180002 -0.8633903255168743 -0.010868567283387734 0.31999255747510696
Ni 0.6764273453565944 7.391094406725397 6.140477909761557 -0.7613332137431081 -0.15937805698242227 0.11632493454668999
Ni 2.0717557239086504 6.841774801954939 13.17416116355135 -0.5452990988295383 1.5564520085770936 1.5558287731707978
Ni 3.4069537459520043 0.7687884944919922 10.745077225129865 0.6473436121978142 0.7228240019243165 -0.707975109836942
Ni 6.759767132595408 0.2145699935498816 8.116753999838634 -0.5627661452660501 1.2089820716173243 -0.009441090808241804
Ni 7.544078935215968 8.388060325329839 11.388599212021232 0.26840028722011194 0.45968187777935027 -0.20502002319125337
Ni 4.4659668201691805 5.257263881063088 2.920060970462963 -0.14220771585072284 -1.2569272320380351 -2.1065904377768043
Ni 3.035288242756222 2.3904696518555437 2.5748445302887335 0.12321883345304585 0.007458513160574253 1.5114854711687324
Ni 3.7634507331610703 0.21597810366092066 3.1111667626730046 0.7780628677929633 -0.34974742014003635 5.467325916860817
Ni 2.3196218080488147 5.527449616308858 6.311150439215009 -0.7384457676219733 0.4326050761672163 -1.0563655017284517
Ni 1.3540987670547482 4.171848742263932 9.995514778574135 0.6799395438559644 0.5802987548331748 0.34818701763145193
Ni 3.040200040460305 1.0849267236428417 6.526385783223117 -1.257588776881434 0.2370009469732241 0.14554269376122678
Ni 1.1322292707630208 0.015429311249428437 2.5808870551565883 2.9158533853216557 0.13473968960845184 -1.885614662587243
P 8.071871411587296 7.949804484029553 7.325447723564419 0.393083106813194 -0.725162420249506 -1.5698140317062965
Ni 1.1341368544867452 8.392280969510832 8.293684694059145 0.48322392676534837 0.7009552268756831 0.2965813776400183
P 7.373161276646328 5.309045103012882 3.132450605032008 -0.4474215723547585 0.22071249422584568 -0.7949275047587858
Ni 8.078110224055708 8.013750007985704 2.051011902835687 0.36395893575372806 -1.0202435591949137 -1.6122642304507073
P 2.9699327656129704 3.714940971220563 12.750257355542505 -1.9658729333183627 1.8903724889872024 -0.4563435574347367
P 4.590927377143587 8.963450240991197 5.608174504729537 -0.6129841608813379 -1.264094696320752 -0.35132530615011753
P 6.587974012896521 0.8690979091429082 10.24468576056589 0.7755277600759353 -1.168580013651194 -0.34745193923764034
Ni 0.19773533680350647 3.4103265751446763 8.10554625430823 0.6999522395324655 -0.20110808973135688 0.8877929227309549
Ni 3.377639621192743 7.69606820263329 7.22039238805496 -0.754270650469372 -0.909945290458278 -1.4416849054358267
Ni 7.9394095350423015 2.649191453998351 6.4232997744854465 -1.006585859202163 0.5932463161327783 1.3015991210241131
Ni 3.5962560882358 0.2037621955248385 8.491481773910714 0.4067999421786542 0.08691768502916644 1.5880989460584134
Ni 3.228073998796384 0.09345777939203158 1.1235502255890903 -1.8819469839276688 -0.49772880524974283 -3.688580956944634
Ni 0.04578108783135371 7.51953837745617 3.8004661512436 1.348850340701593 -0.175185199218008 1.3556187697736783
Ni 0.06993736423231338 3.4456675586252703 2.007742927676252 -0.7356849170473846 0.6659501715554079 1.1794560371337492
Ni 4.323635271314481 6.017118064346624 0.48575191140692964 0.06634757418729864 0.3621619917543053 0.6069091583318516
Ni 7.083954996445161 0.3183904680980873 0.6724776333566511 1.0422758564046049 1.7386756026991217 -0.92989216589385
Ni 1.6791067997519005 2.136291032204504 0.8213585529961369 -0.03850869759815948 -0.10488892479560644 -1.3469212419996803
Ni 9.28901119650682 4.614417381548289 6.110022920920184 0.622520125396231 0.055405216243181996 -0.08844877696171219
Ni 1.071214237744765 2.6092980726456814 3.862334528478362 0.014248796609530299 0.03500556954090746 1.554730912120929
Ni 8.249221405611815 7.654912314178445 9.391363660971985 -0.2470105086904262 0.20807655062939004 -0.8837624614153232
Ni 4.974499151697107 4.5616408985252495 12.29916356793536 0.0027407959699307636 -0.008496467506785366 -0.5363735142051343
Ni 4.976526535364833 1.4428613101799317 1.5959389140116111 0.704854047709457 0.8898359213029126 -0.24901622626654532
Ni 7.168589049192429 2.140640691709808 2.1497547028342687 -0.7077989892703939 2.1871405287167303 0.13468389666985192
Ni 5.205491874493603 1.7094714778662568 6.433051489927211 2.163509262451035 0.19314255502737704 -2.9557936731600187
Ni 8.677552282320548 1.3098465108164665 9.3994824110232 1.9599534825101343 -2.7917740036405276 0.5101557181591858
Ni 0.3612198696168376 5.220512944395394 3.9060882326419897 0.287873308343059 -0.03141219576269429 -0.45433244054197885
Ni 8.605183900763024 0.7332751833996417 3.5369449790364653 -1.0248381205441317 1.6798724165179844 1.7749577249596076
Ni 5.261604325188085 5.125668250267032 9.499453621216817 -0.10890215972005761 -0.838010194880873 0.5633413010432299
Ni 0.7623487867328687 6.009284991084954 8.299795412741279 0.32560887522061993 -0.7473302145957968 -0.1758863390500906
Ni 5.9041190710118014 2.7236517268857563 10.891310566006906 -0.49409120849715554 0.43072457131505176 0.6028334456005812
Ni 5.685926511462905 0.5346339747118739 12.259375241918198 0.17351732459728184 -0.5387355866794077 -1.1214732899713782
Ni 8.041156549021242 5.434134675311599 10.110969670760998 -0.6429089734652282 -1.0484490750948523 -0.13828318398533604
P 6.932288267338613 1.6748861555709065 4.861863244346416 -1.4673429723235634 -1.7722138436658832 -0.838848374511452
Ni 7.616511824435646 6.136503316234783 5.1860520297342 1.1692847530277024 1.2524635398397268 -0.35094221177908597
P 1.145011003250005 7.227291021753414 1.7908211690718079 2.7830841891760136 2.6072744690001293 0.16435648403362016
Ni 7.365908772344051 2.8572747413495394 9.064760445943545 -3.0607844136408127 2.6767929847162417 -1.656258119533154
P 7.036578726282519 4.368108696680151 11.880331905247953 -0.0051738308914556054 0.5882552906760901 -0.24856962564743001
P 3.105288271574629 6.22212341467499 8.928238272834912 -0.34573701342906266 -0.7238755831172824 0.2264547960262616
P 1.288586628446263 2.579790424899955 6.317111868736156 -0.25583402051932713 -0.3933857256552773 -0.5146456356097395
Ni 5.814232251489061 7.147264659160071 3.7945590924662698 0.20619861688038682 -0.2988740303289369 -0.09001586433851594
