# total energy = -381167.7636763162 ev
CRYSTAL
PRIMVEC
9.24554787552965 0.00000000000000 0.00000000000000
0.00000000000000 9.24554787552965 0.00000000000000
0.00000000000000 0.00000000000000 13.53179387013627
PRIMCOORD
 96 1
Ni 2.259084847523644 4.855086696674546 13.488370135529042 0.008110030701644098 0.9405185352594446 0.9309630303605257
Ni 4.897523760351972 4.53869481081284 3.783272547835487 0.7404620267210539 0.06513864148086201 -0.11047696040634523
Ni 5.103828910438706 8.289752172444052 7.039469368359219 -2.096728714491376 1.0087137041784435 0.605706396273002
Ni 7.1220487507892924 5.803365536138372 13.225663446606193 0.7564332053383295 -0.44679113785961116 0.20007167804704254
Ni 0.8205192393709031 3.5573538929807165 2.615912135998252 0.02696984372062452 -0.03091982950730804 -0.8323308851079084
Ni 9.172914619864281 8.347851193827264 7.894191586677458 1.1294074572167905 -0.3673769602963415 1.0834726423578889
Ni 3.081402345910943 4.899724200690802 2.2678200409359386 -0.5198282082519434 0.11015325851833932 0.29621628099111563
Ni 8.887624756270737 4.250390898687959 0.7036888011457533 0.30047531337778577 1.5852658474849926 0.3211348986096663
Ni 0.863405636663738 1.5019207233705114 12.477017245495764 1.0027477164029956 -0.8217603086809138 -0.005771098155822318
Ni 5.437731863534625 7.1524481114366525 12.345461423540977 -0.7083340358382575 0.5799100040351884 -0.5972829480959971
Ni 2.235767576370164 2.4190513128279663 8.05911643918226 -1.6228340355467534 1.067229183915833 -1.9921881741741236
Ni 6.301561870835138 0.6013359659734321 8.536058184404506 0.14306389320343105 0.4661924252043584 0.82129699589125
Ni 4.211143548947071 5.465505488651616 5.8227987527273894 0.04492822797125811 0.3156008561653145 0.3064348733953303
Ni 1.855821796016382 4.883230143697221 6.730578395299583 1.325108516999963 -1.5143242261691081 0.5175643519184312
Ni 5.039914439588585 8.117507619870965 2.7164944487971034 -0.42429861318404993 -0.8442482053707848 0.4951340479393731
Ni 4.732638663702031 3.575826497169714 7.632310525159052 0.4186550417450274 0.5605413697005894 0.24917897709665474
Ni 8.866933220647626 3.9730337149713733 11.799696746225399 -2.1632356970746742 -1.4508305764908367 1.2292284805711862
Ni 2.726752383906059 2.5114143337729544 3.376142083749518 0.19318574956048662 1.1386266618222132 0.700997135857212
Ni 0.8631624787607498 8.14210077659906 11.428627616162835 -0.8139277000103724 1.6814179066282333 1.1032729649132678
Ni 5.146219746377922 1.5730282302862175 6.479157746383494 0.48577960330766656 -2.369931308196138 0.9467033239139179
Ni 4.799807567322185 4.469565851092552 12.797666706046675 -0.8913397595419488 0.9668134644002316 0.238546437083473
Ni 3.5323816687992937 1.3362312640757035 11.63410806339989 0.3519786234634003 1.8133494373639285 -1.1270561833757946
Ni 6.789837732911884 3.444401037436681 13.436935304886285 0.3813398502343368 -1.3163839926427716 0.7283642150162553
Ni 4.5296064374806155 6.28598312305813 8.121336201149576 0.8962045438334179 1.0403439294892147 -0.2617293029578396
P 0.0871365128628857 3.66006268173726 8.54187733209047 0.04185935923794726 -0.5449260317608358 -0.16054508070732995
Ni 4.284386777368112 1.280046071054413 2.2493363420897703 -0.3479746445103298 -0.6551769921993039 -1.122570122579983
P 1.0635985552042515 8.35396250081872 5.937737551904957 1.0246920818845708 0.2168144447230201 -0.5737691812447732
Ni 4.007584326510054 1.6350381183220566 9.025069992073568 1.3613363889837458 -0.6377603393847532 0.8301670446873703
P 5.126841078519994 4.182602543375782 1.630554027715618 -0.5822250253216102 -1.144874442504138 -1.7667481925656219
P 4.2794126727366395 8.691471217495076 9.239724796235919 -0.6595998038573478 -0.5967715556772174 -0.7376181295143555
P 6.577837325477593 6.116484498134761 4.836425483313648 -0.07978544485975937 -0.82755506098582 -0.9343453165691972
Ni 0.5518565686569864 1.6071535466333597 3.591310940360772 -0.06916421770048735 -1.0179123399585759 0.22555182459601802
Ni 6.561999702366606 4.646895454868815 11.208601148820401 -0.7663034132641899 0.7208619931019391 -0.7838018271592696
Ni 2.023351119291976 0.10645970743496028 9.412999302816338 0.005621202841519351 0.5372610590164102 -0.42004575144496686
Ni 3.5153606155901125 3.586884172149715 10.626286972565909 1.4224358273982276 -0.3233205934070754 1.4528509493549753
Ni 7.471419505090514 5.057712118799706 8.825233027117278 -0.10038589471893035 -0.7981478114682964 0.8880703447620576
Ni 5.7127129415071805 2.326725274073547 11.502592921854726 -0.0640952878180122 0.4198331212135285 -0.6440785682932972
Ni 0.28217134037384883 5.909596878546572 7.965003236068615 -0.3092178354571061 -0.04207970277886946 0.8431565149685027
Ni 8.592007615960922 7.000331116080507 5.914340769041755 0.26026660236938404 -0.7505348375760236 -1.355532637817775
Ni 7.01126859894116 0.8582309036484318 12.714026859302047 0.1205474572684698 0.34830117461181304 0.7457880669196576
Ni 6.45354018297665 6.844710058167991 9.833784516214987 -1.8863417705612546 -0.20495420295032443 1.215365863656481
Ni 8.680820346611329 6.181425224773157 10.64838475598539 -0.28034511828681397 0.007606865812980449 -0.6308188750699136
Ni 3.240971252666654 7.777548833069443 5.471458696778391 0.01311853965982902 0.03517474812892007 -1.0544083780020808
Ni 7.399655564292217 2.481310830650143 7.3356800728276585 -0.055524772540181795 0.7781248313791502 0.37170129870330826
Ni 6.879759929279348 7.971418721577497 0.5841900978710816 -0.7043632241159675 0.9299016789755469 1.7636726389640918
Ni 6.822409797255148 5.2513693597119895 2.1903238605995132 0.579619212267647 -0.6021140509360533 -0.6831248835624815
Ni 3.4082694372511937 2.9159347797595467 5.764895736954189 0.8327952263388367 1.0985346788973338 -0.14860024964062796
Ni 8.888789695273648 4.206640967245348 6.238427724206014 0.4386019171805994 -0.4588017891672421 -0.05119580614752473
Ni 6.555352153611906 1.1915291979285556 1.659106127944078 0.7679712878849161 -0.7851246597357511 -0.4474208010238101
Ni 8.992903807271796 1.2736573976336936 8.757979989013581 0.30709101892209045 1.0002987406418709 -0.6866331538260562
Ni 7.286684217652897 2.86956835833421 3.1591731190123404 -0.7499596817988439 0.7673804483784525 -1.0929031916431693
Ni 8.351484694050628 9.04646326476272 4.359970978452142 -0.07873977720406439 0.30007602105683806 1.243879911935774
Ni 4.174540425831835 1.0559247506612746 4.363313243924776 0.8845574465127927 -1.4287674260432104 1.5774118986582122
Ni 6.0030323830180485 3.3646304523802884 5.546925479407366 0.7422412301086636 1.1569969367992847 -0.9844782286698466
Ni 4.449808115781297 6.435992133551867 0.872539313179409 0.41437184098864116 -0.03205959953870608 0.3325238571728983
Ni 5.775425491163823 8.180978304434262 4.814612462761545 0.4454099412413684 -0.254230166367317 0.9422961959851578
P 3.771906071564239 6.5645144913252675 3.6922852643796498 -0.24378326000238015 -0.3939670520800441 0.503073614501424
Ni 7.55470339825092 7.169783513265666 3.19168971006975 -1.954946773324162 1.0421627278655083 2.709383259947437
P 6.39766009302755 1.0144214872957038 4.541540590377091 0.10520337071223171 1.3252820664633498 0.024533209254673876
Ni 1.5446443990248446 6.998870319553049 9.740428523453232 0.718774257334975 -1.3557792066109426 -0.6309440877938682
P 2.868384928236016 6.854963370503126 12.848410894280565 0.3282126313920541 0.21286420182602048 -1.0196046400593344
P 4.750935602485828 4.67040688252278 9.43726239349361 3.2763927538708733 0.11470102579002181 0.4371142768914794
P 1.548804895463808 3.4317808649051584 5.117440205677465 -2.36271345029146 0.1682509339920199 -1.14339065886976
Ni 8.268136082056726 2.1839092996453955 5.016777456614127 -1.7474986003073902 0.9406437479833994 1.1293596346979906
Ni 7.64932233282059 3.0255407470571276 9.930415281951586 0.47180000119912296 -1.1076770075182343 -0.1297869735888668
Ni 6.880037295708611 5.325712808302446 6.75968522838657 -1.3147086618228776 -0.7363096951155771 -1.2198861201243378
Ni 0.18583828127132554 1.0887834269814436 6.511715942405294 2.0742529019863634 -0.2697848262724644 -0.11243228436050313
Ni 3.1343700883527683 8.435545213212972 11.298113767427317 0.9417716909402556 -1.8072872903302486 -0.4301679274806333
Ni 4.514443739347505 2.2640034788692627 0.2583899427287339 0.5047445744459436 0.5348280240948854 -1.0321557372514676
Ni 2.4250424277000735 7.401966951202752 7.702053389242778 -0.08440623146122239 0.47125981242493675 -0.8237876235235877
Ni 1.6646978351580446 2.5288699277213165 10.227207531366716 -2.732808323739597 -0.8935084850584933 0.2107672100876757
Ni 1.3281414098888302 8.14404234160391 3.5513516834514385 -0.8668497448203846 -1.3675900832029415 1.2114313044887652
Ni 3.854829388366601 6.107507071374241 10.756652892539153 -0.5074935979459906 0.431075012675935 0.5875832043097301
Ni 8.834851170329397 1.9539817753329927 0.6821827327753692 -1.0541312130812943 -0.853346311017311 1.5767956052304521
Ni 2.030165087904234 7.283207891739452 1.3225543254486845 1.439993376666017 -1.5822154906944428 0.8705462198353652
Ni 2.7675252490079 0.7713477187909408 6.258495185363281 -0.6552250718284199 -0.8949961253476134 0.9444011581433025
Ni 1.9632273229751336 0.5551563046104665 2.2257638938213677 0.858600874548031 -0.41427645306135746 -1.3026859263303887
Ni 8.783113085723977 6.869210759419665 1.5649245077778808 1.4238627896527412 -0.324327437405035 -2.6357795184183574
Ni 8.667118445005675 4.824188076454511 3.843516536271678 -1.0976944423842256 1.119307135557995 1.138130438912085
Ni 2.7553950905014117 4.925241912183111 8.728642941790303 -1.5581268251763551 -0.25109624872402564 1.2880730615132203
Ni 5.802746084446349 9.141035971594178 10.693134131128117 -0.1584411469904497 -0.08551746224753012 1.4004950614610785
Ni 7.066242625221331 7.439633312296834 7.60634255549657 -0.24232955827498912 -1.5114494757244745 1.9884207367118918
Ni 0.7207810450717792 8.658852925413603 0.2856985167993256 -3.333425221304833 1.462118233589514 -0.03461090520565007
Ni 8.750901597738757 1.0034285311491984 10.878682102203479 -1.6973289214315348 -1.2397144677041745 0.5243212110262905
Ni 2.081940154700223 2.4970190160941406 0.9313946203597498 0.45453478636077205 0.11420660265210654 -0.17440692629108673
Ni 1.422640152339153 4.848873688659027 11.184203073147556 2.2878095018937183 1.4071318500513057 -1.3490323748054123
Ni 0.3306494448806506 6.337915364164036 12.827368952401818 0.3520794107073226 -0.15471279029626905 0.6255522273543355
Ni 2.7979615918458283 0.22532046792232419 13.430805506799544 1.5541824958166266 -0.8101512636870758 1.473822666510636
P 2.157180421411966 3.1027688065119308 12.398465223618606 0.881986857572139 -0.23541997563934938 -0.9661727454924394
Ni 1.6401046784299498 5.83962657399085 4.8393073205137025 -0.16746006265960836 0.9806801950799948 -2.7416436626430394
P 7.849285037224814 8.374617054251264 9.811145868258441 1.1955645126598378 1.165992969650308 -0.18696290857922637
Ni 7.280591401756726 0.10923614539189522 6.604218571119678 0.21859261966936547 1.4258605368090604 -2.2055935932155952
P 0.9784193247772072 5.632766691045589 2.465343769872166 0.3432911229917313 0.7391039700312625 0.4241127224254889
P 4.85675089525013 8.892663579735704 0.8521981838119348 -0.08483406302726035 0.9481482838905606 -2.2333656211225406
P 8.669938337036529 -0.03236219041178593 2.2567919517083928 0.3001433839596637 0.10019126220962099 -1.4345385241990327
Ni 7.810509210413676 7.938467589780907 12.09083349414783 0.2395777065614648 0.1960147343688495 -1.2622165054614327
