# total energy = -340868.4830408144 ev
CRYSTAL
PRIMVEC
9.26616041412708 0.00000000000000 0.00000000000000
0.00000000000000 9.26616041412708 0.00000000000000
0.00000000000000 0.00000000000000 13.56196240391861
PRIMCOORD
 96 1
Ni 2.2507039703048166 7.794073087772088 3.352991556220988 -0.21034477783827646 -0.9230494319404039 1.2679055854264099
Ni 1.0568611623832773 2.940717852240297 10.203179286040303 0.5658782085324706 0.016985993035035264 -0.4901237392089753
Ni 7.724039449337522 8.12260479598822 1.9501968368546945 0.12222175964709917 -0.27572356035440254 -0.26033859325790004
Ni 7.195238221739773 1.9625078572336525 4.759868945750588 -2.0983176562450505 0.20076047658395105 -0.1611642023485676
Ni 1.8863029561373483 4.274090499742107 4.84768249228627 -0.09303588211176235 -0.7362009374518547 -1.516333029069021
Ni 0.11173135912198882 5.86038298861352 13.17874160691904 1.5534245346046798 0.9388668585886346 0.1401109812226942
Ni 6.864010060919188 6.668104902969521 0.34098542746144195 -1.50946869784902 -0.8668664569909329 -0.8925052406049597
Ni 9.357153845460836 7.8394402078800045 11.238703261439818 -0.14041437139572593 -1.246031411061138 -1.6429387767164287
Ni 5.284713522963108 9.170097870457056 5.109509893410723 0.9490096034495914 -0.38630362199751533 -0.07730844407417654
Ni 2.0366556707760437 3.846234820848533 13.461698633039834 1.4810096711773784 1.996338963117704 0.5544483694289741
Ni 4.163211627354173 0.6065007603266936 3.0053984299546124 0.5505557192427873 -0.7268608909978514 0.8190043432023314
Ni 6.668002975207841 3.2081762988895823 0.6805772244359087 -0.35019093543535823 0.7002556297054973 0.7127583901581982
Ni 0.7482239000151231 8.30304473264293 5.9511515136219195 0.527627392581388 1.2721399352227316 0.675369665097095
Ni 9.296367834858726 8.24823539533935 8.356406695730646 0.6488847314326889 0.5495249639854278 0.6075462776952182
Ni 9.170320258300722 0.7124213104168862 1.408301598345079 0.33012964590910887 1.1407383088485774 -0.14056812336477081
Ni 2.7810248481676183 6.424997925201691 5.782305396550344 0.403352349949686 1.480661286699024 -0.028662658042015152
Ni 1.944485175736533 8.76912332216664 12.921146061136355 0.11667177636314745 0.050375881349390667 -2.318812892253768
Ni 4.12920481959354 7.203077393229008 1.9719361751890867 2.6570620819462176 0.44743519920151337 0.34646335007212586
Ni 8.804019681301938 4.930431155682454 10.507415122335896 -1.3189769501809283 0.47767060104728704 0.2009409680258733
Ni 2.3122405398793004 0.1371373170288282 1.628384947981345 -0.3453919713848181 0.544602586983146 -0.1010286705092518
Ni 8.98953747372036 1.7505722422197092 3.4554521221101395 -0.29245989927247695 1.7290936154376415 -0.8138739639543016
Ni 8.522133823294803 8.440943728036313 13.239024465024857 0.27061837791735327 0.5501515418258331 1.290631052048384
Ni 4.524147097624508 3.848023189758016 8.902193721504423 -0.9478911735744321 -0.42891991400614515 1.1136283400056626
Ni 3.198752614014225 5.828618591609857 8.150020584032193 2.5119155951821446 1.6260785106259803 -1.2654221568829238
P 3.7882008598117927 5.16073230011917 0.7912059104997191 0.17135502683864037 0.2507856594621423 -1.1982297181968267
P 8.114126259448444 0.6511516062548017 9.199838538083357 -0.0030557561071882858 0.4621295679888945 0.6513805012713492
P 7.83929194931756 5.361529990629494 5.343819578729523 -1.0552964370339888 1.3919397156918996 -1.7032820536911764
P 5.47989592042086 2.760870949835364 11.104656208821936 -0.26018638395075183 0.6018358575740022 -0.7957505148807135
P 7.6962224365589345 5.2586570806135455 1.4056978073421535 0.6973256005428958 -3.4588698587646047 1.1805338435789603
P 7.859621904692718 5.262576666358163 8.520397344882177 -0.30673363558267175 -0.9332837080739023 0.7082273350570641
P 0.9289047568338046 2.0848026389297885 6.0230300445428995 -0.7677874540088842 0.7113352845584265 -0.1952976536971669
P 3.9741634279175475 0.3227672299850991 0.32512454112796146 0.5960696445141864 -0.819133412581028 -0.9217636232494447
Ni 5.712096627688891 1.2837894245243875 12.733108799772396 -1.1289973662625654 3.155838354623868 -0.5543825491880452
Ni 6.5739143850167086 6.311719117334191 3.490482840567652 1.2733216142356587 -0.0929903735858076 0.38240428694310913
Ni 3.2426186161773938 0.7835529888295539 9.146404298946447 1.6972998679658122 0.9473257879892653 -3.474364097745462
Ni 0.03737135051209929 6.157863794157751 2.6867870727980265 -0.610643171452987 -0.41011383704323556 -1.3186229092756194
Ni 5.820325378273137 6.967114624938957 6.043712114003862 0.5343515986790992 0.009991306884756987 -1.9099547819945044
Ni 6.674470754994467 8.754946097132917 7.924213527269567 -0.28130773931039943 0.4533826750341998 -3.478157760459939
Ni 4.257411411467137 2.263259617311807 1.2132257617290843 0.5973801357954938 1.118843822768331 -0.3887307433817692
Ni 2.0450693441947507 2.463371611970828 1.9447446282208103 -1.4116086548757365 0.4815059156329772 0.6930799378926644
Ni 8.620753565800635 3.574273020365006 6.049218066366632 0.2970277211488175 -0.45600468603807914 -0.151979450525506
Ni 0.645469596849129 6.2580031869286366 4.833388513634622 -1.1020023257309601 0.10679282668653865 0.07544979359888296
Ni 5.356832047432046 4.744876298623421 2.2958913269057697 0.46284176356457063 -1.3547001146141506 -1.4721205962178647
Ni 5.890627735352132 4.290324812329744 4.914231127887383 -0.48828205801454616 -0.012418171158694742 0.6270632646822234
Ni 6.2857275381056965 3.4315463555320327 7.529519582330693 1.0995795752220805 1.0942692187527607 -0.741906215366748
Ni 5.859511969559162 5.418257423084696 10.493663214053184 1.9160760644008936 0.1934909395057313 0.1502634962756638
Ni 7.394479197344434 7.626420452128188 9.602805310806616 -0.5693887927888904 -2.5612152127482215 2.067524325013278
Ni 1.5057973556243818 1.769401079650119 12.88192425844175 0.42300020608760047 0.027711864092971626 0.4669239040537443
Ni 7.277401263814302 -0.04880579214060602 11.394584167225652 -0.9171682905692785 1.0282741428088742 -0.79941870776092
Ni 5.904804960385857 8.548282927245895 -0.03999552706736113 -1.023274632711754 -0.3461987835568296 0.4486680431673499
Ni 2.3453577962652674 7.070154325837656 0.7024157106839352 -1.5192802846228028 -2.651636282944956 0.9167808253228726
Ni 5.0972869015532165 4.368938915065766 12.600961309985829 -1.0762056763828303 0.17625606368468355 0.4352728528073665
Ni 2.676863941890435 1.1941856558471913 6.653403213271151 1.3139710123259047 -1.0849805943619828 0.7833565120917347
Ni 9.03592387144508 8.50379609235249 3.868780315116215 -0.3612546494486875 0.0393389068089387 -0.18456561199164342
Ni 6.492677958957454 0.9976781974875946 1.8002416404865524 -0.2854549287095535 0.0009803616353983118 0.7789408995225424
Ni 1.0461958120474497 5.058813804598954 6.864590122544751 -0.42815449659503035 0.3080842360732952 1.557456538582208
P 5.996641873659868 8.287681439109651 3.0441995489782827 -2.45863976657714 1.1345573768488462 0.9386549996881447
P 7.676995154241956 1.4083451492977974 13.503631714195139 1.4035824421371506 -0.8132016204776252 0.23853178179545373
P 0.659432773583324 3.9420561829882317 3.0060090699086794 0.21830825565972725 -1.1965063077478169 0.06920766934391306
P 4.463944855112021 5.1621778211030005 6.259577507538591 0.21020979492230896 0.015217331170386697 0.28419637371210404
P 0.33158768783451203 3.64567805050218 12.087220372484364 0.6278878174660477 0.5431499136970194 1.457977214837947
P 1.9077170522503784 7.490708270530853 7.637540770927516 0.05928372536198177 0.24985826255186644 0.13840299739265197
P 7.544794847342519 9.39848091974215 5.65916276120023 0.4003482730160395 -2.874411059016469 -0.10189436094365678
P 4.829272485294766 7.665977689820323 9.56723159536415 0.3780655503584392 -0.28379193918483386 -0.16251068907413302
Ni 2.301528858742709 8.165016011007404 9.916682586741155 -0.09097308604546267 -0.8756981963499499 -0.0494759952429406
Ni 7.760909500585357 3.892565621612337 3.6510561298548425 0.9298489713607406 1.0149766543690197 -2.5016052143950724
Ni 7.76689544004404 1.7133871415266801 7.047175175274825 1.1387616447381808 -1.0230506896264058 1.7975654350567947
Ni 1.5918058541623068 0.8177710650416687 4.0516090678583065 1.2329064436434056 0.5976210481617062 0.6138115418786396
Ni 1.036586803969037 1.371632622772559 8.349407964967268 -1.4512699780211007 0.0895774912495167 -0.034443526389850355
Ni 3.9307051368011003 7.071525717540264 12.706703949801089 1.0548840320869188 -0.6566993423811014 -0.43678466146620254
Ni 4.13702545876247 5.720853149033251 3.905791211998372 -0.45627388053906587 0.5480427230129464 1.6552507613145622
Ni 7.754951359607132 2.6441543965511896 11.650213433823922 -1.0455221312560445 -1.537903299040629 0.3020110332960218
Ni 2.4109529439866604 5.095127886237624 2.4826934091213646 -0.2763169709640273 0.044856494193058226 -0.35357039343055235
Ni 3.276782948660623 3.411744571285583 11.030242456483162 0.24072673256424346 -0.34818598919018745 0.37023988366643334
Ni 3.7931304570130617 2.9995672353704803 3.7309230174435175 -3.046601951492843 0.8649689828579039 0.5589660547936696
Ni 5.683834839222971 0.8890732408011472 9.498038397655442 0.42178638828515747 1.0557520365141688 0.3778758029451363
Ni 9.108413042320127 3.200522450603402 0.7846704877439769 -0.1873190063670645 0.43091894671404496 0.1043803605903041
Ni 1.1335108391669142 5.9169899609867365 9.324703752605869 -0.3262110275809931 1.92913701134991 -0.634834681097526
Ni 2.841264155320716 3.495575522187609 6.784331276381614 1.0812321830631442 0.4732549884780946 0.9358360421821108
Ni 0.2529439333860012 0.8737905628611989 11.221262494800293 0.08731414913663672 0.08046858696971303 -1.3953366571885906
Ni 8.397587364681547 6.578964442299963 6.890805942848941 -0.23599847385063874 0.9697339804811363 0.9232548630829907
Ni 4.432606701475384 9.075666432340272 11.377251814659912 -0.7243797764472105 -0.3670949102795485 -0.32846691349470525
Ni 3.6489397388759515 5.843305455451984 10.605345462526364 -0.9656592961911306 0.38302752234940485 -0.2952287202668657
Ni 4.243651163640288 8.27797050326956 7.446398419296369 -0.8473312151714828 -0.02618051505010975 0.2983688085577442
Ni 4.900992564877134 2.1942081918534346 5.806364054770972 0.1417307762143043 0.7775355345345835 -3.530762788250164
Ni 8.060762443128693 2.9113255922357397 9.376035500004116 -0.45021121928475366 -0.3320638868173443 -1.5312179166006532
Ni 7.538540189239405 4.729281351086325 12.481086849321594 -1.508837234912608 1.0285271393599447 0.7944503080120512
Ni 5.816757906614324 5.959252917443479 8.019594746802008 -0.21919760024321605 -0.06277836877880155 1.478543469025073
P 3.094443449174597 9.143124078252368 5.133568551631352 1.5784002307134106 -2.6843949654332153 -1.213423909438762
P 7.2651514000923525 7.070941949450641 11.871829406349454 0.09008991210956097 -1.0436105160556284 -0.9172677922616203
P 0.6330724011807504 7.932296398770819 1.477466997573331 -0.7481120870671438 0.1718291382615815 0.3689067666773066
P 5.6161733377875125 2.6364820159447038 3.1930279802718493 3.2395760992631564 -0.848323918102055 -1.1325861120550882
P 2.619135764138736 1.1759498526665582 10.94718893641795 -2.0442923510685307 0.6242016268637121 3.299293055507815
P 1.7297975111572197 6.568706803010857 11.354386637866961 0.7585093711410679 -0.44430976619865414 1.8152906202506995
P 4.739205408609932 1.86539849883272 7.677846714359995 -0.7804681348003463 -1.0114038494160968 4.027205270588316
P 2.1956073820365014 4.206799644712759 8.791148984849753 -0.2952233209502271 -3.1078955081960022 1.1166635272875607
