# total energy = -340866.23904737714 ev
CRYSTAL
PRIMVEC
9.35477169809800 0.00000000000000 0.00000000000000
0.00000000000000 9.35477169809800 0.00000000000000
0.00000000000000 0.00000000000000 13.69165397498105
PRIMCOORD
 96 1
Ni 3.0802455806813245 8.95937328248145 1.7497660239688173 0.4328493309675384 1.193617416235796 -2.2098495402784715
Ni 6.477861136064853 8.338674844956662 5.390896569285451 -0.21060703036072762 0.4446504373675246 0.3306209837232306
Ni 7.408567343195733 8.203096142977088 10.131933072143822 0.00018897608235451325 -1.2549158580349613 -0.6343919371331526
Ni 0.4732915625801277 4.075995513394485 10.730628151845789 0.17585497159152294 -1.1675500297247827 -0.5395871360464256
Ni 7.362981542136844 3.1469638103451842 10.619985528524651 2.24592494584479 1.4606028253862522 -1.9375753719252502
Ni 8.778199424671582 5.7856454711451955 1.8026981270124265 -1.024984673424325 0.7221568006539627 -1.1768551091757926
Ni 0.5000303056884018 3.8529871178593247 2.7420958522561354 0.956508482929798 -0.3891927706198523 0.3076813442079217
Ni 6.557273790525945 5.601506150799792 9.588210371129 2.3838587169105074 2.0733841262281647 -0.9613149031795056
Ni 5.89032536317248 3.6075085614082094 8.394941924006323 -1.4016705698264182 -1.2135365237572262 -0.027170132656888692
Ni 9.018074473050815 5.412530413637756 12.806022542713562 -2.7731689869448304 0.6627018398214393 -0.46887691401505704
Ni 1.2505364867127242 6.539144243542131 0.32232051972998194 -0.24080129455592073 0.5252735476372308 -0.5548762009950121
Ni 5.075216066299076 6.229697760220366 5.387665431241999 0.9059806493835751 -0.3607476279052819 -0.6164677485545641
Ni 5.100829430407272 1.0824405993277129 7.167539786979343 -0.3295490908152905 0.6989975889286801 0.12289770266820126
Ni 5.2077357580290595 0.5476994143392896 2.580917818325474 0.3247452416687439 0.276886213203936 0.43589737376524285
Ni 1.3833181120420612 6.095774852779561 11.35342018721112 0.8793823300697565 0.4466682391285017 0.5891975999847014
Ni 1.755357370837871 8.23440656287122 5.5310853026136435 0.718410446237653 0.6966928520549033 -1.8244902844720967
Ni 5.486779234283025 0.11897211178057202 11.252759104979626 -0.1992772071702052 -0.7073099654491173 2.125744384997436
Ni 7.953791485021132 0.17134947687983626 4.040502575204965 1.089383351415369 0.541415704614732 1.9412615625275855
Ni 2.726363933183545 9.152998341032006 7.8163736349832424 -0.7875648937461275 0.13059429998151056 0.4611934293278703
Ni 2.5880255736393547 4.4271268580990535 1.8513036482810026 0.46083167511307727 -0.9026798671451164 -0.7637053135197105
Ni 8.829631957858894 8.404887916964627 6.487447905801185 -1.9860357814194824 1.1800913567249032 -0.18341915709202603
Ni 1.8213085092464818 5.80573952012416 8.7359729220244 0.22840394933283248 -0.6529750994519786 -0.3108368591177679
Ni 6.553279303135806 4.78889457789165 3.3818247012510834 0.2692466943808073 -0.06480928316590129 -0.04481432810121314
Ni 0.16766276146893785 5.862934592497244 6.3801327746689775 1.1990738113646768 -0.9624143068912716 1.0826084945853807
P 7.626000294973228 7.280247943826809 3.229409281695932 -0.8582995412575283 0.6219485691634773 0.39868348371910695
P 2.816899410845749 3.588742889968823 11.124495834239138 -0.27269402949945937 -0.2180809701402696 -0.20905151294814966
P 4.800840620976444 0.040542643794195615 13.564184668656129 0.7285922718666612 -0.49754445715307866 0.10693732268420292
P 4.247103637172059 4.973754215635275 3.217579237776566 -0.2028772658166377 0.545720502637673 1.6305627716495787
P 7.212987137421431 0.39633734204439497 7.515512960857424 0.8633052220022358 -1.2061746840755163 -1.0875673812525528
P 8.803719241065721 3.234487051614825 12.595883506200918 0.3897761539271481 -1.7917735109653656 -0.6834511565536487
P 7.153107245654974 5.351097629817991 0.27322013105405624 -0.6217145987758003 1.6707424291922583 1.9757716804893135
P 0.6421676379003559 0.8356177622256309 4.622219680283131 0.5422024621820856 -0.3814136408950657 1.1496590083769749
Ni 3.8540254974853325 8.33979741752532 3.8119346390235305 -0.33632471897622723 -0.29066912592064137 1.5245839562239034
Ni 0.1343915814882193 6.28718283050702 3.915156122188701 0.9656752370307304 0.3530859975949661 -0.013784198268285936
Ni 3.204729523774003 5.746832524583873 6.638274885171686 -1.3361668316966537 -0.3411679060011415 0.6770730209414468
Ni 6.900219710250721 8.108257470468365 12.705594394290067 -0.5152686139057191 0.15347917499948405 0.08098563581544763
Ni 3.6009134475673483 4.005928275567464 8.944400970846985 -1.0977391795792322 -0.410326467274674 0.06619150822540859
Ni 3.8490206947834023 1.5416382633083494 10.237386603766339 0.9488090574030111 0.6816837802405807 0.08905221487366599
Ni 6.7060053011016185 3.6818977036245606 12.862747070084954 -1.0354508630629715 -0.7663018706022932 -0.5276824141890395
Ni 1.716843776961523 1.8724978183772507 9.5593069339175 -1.3035544449782712 0.2473424381085482 0.2835152884846795
Ni 5.632189801009756 7.724580876044143 0.9554804482440044 -0.3042052127338632 0.560282459612248 -0.8062195327328374
Ni 6.409412273690979 0.9457486795508868 9.340021737401718 -0.9434174540737946 1.102080487267063 -1.0674605832003488
Ni 1.9950640333318068 7.807436086382449 9.895655868847133 0.2730552694936201 1.2458203234915963 -0.07241614897888174
Ni 0.8374821681667424 1.389913225882922 7.2665441391949255 -0.5249148787462314 -0.5479553055054627 -0.6907839427696362
Ni 5.213096042044398 4.476295536606239 10.716484672957847 -1.5686809465431177 -2.686123260978232 1.9081346980666298
Ni 6.766137771696023 6.645844766192998 7.3858941837402785 -0.16655503434683575 0.09843725563299176 0.3675394540161348
Ni 8.326279772844405 3.4662047393284836 1.1393194804272926 -0.13303119155777735 -0.13183151482272132 -1.2807958111255167
Ni 1.231593074616634 1.9484024335612886 12.36469997593451 0.3200378088907456 -0.5388248039591043 -0.3894105430576132
Ni 1.5410208483955878 3.7320392783579157 7.291955440240762 0.1871230883061745 0.45891594614760317 -0.14406225256095834
Ni 3.6029153686481203 1.8179501463119156 13.38070205326339 -1.0134244793905514 -1.2493921000032546 0.7551687368036091
Ni 3.943597433692772 3.985553583446335 13.0666707964758 0.41756129446021634 1.4368136933864546 -0.6729548850080153
Ni 9.019861234389262 6.710402043662192 8.728018559898324 -1.7075151179359174 -0.24506418359733279 -0.4716686178275812
Ni 0.31577966356327264 1.08120576950219 2.435061029002702 0.19818603098855544 0.3911861469007972 -0.07602777758954003
Ni 8.48694797173347 3.927441743475514 4.563701843233311 -0.5011522291089949 -0.04182979155159248 1.1225436402174216
Ni 4.899963778788875 3.0286165972944983 2.5998256822902235 -0.36989381318092424 -0.9501362608548669 0.11244899653105152
Ni 3.0821726635908524 6.726211607337449 1.4788761664718655 2.2482991025039216 -0.6754208300500045 1.2318363505076786
P 1.1231525644843476 7.469607226616469 7.320844845295155 2.2613394806276474 0.29712747995147537 3.056560348257136
P 3.0292246574358543 2.084177585740378 7.781226823335726 0.6548129239916658 -0.20067871550342212 0.0023111646316798904
P 9.25335632866996 2.8452350134329376 8.683068883295007 -0.18483634915452685 0.00458607670878565 0.10043988788531734
P 5.69937576924389 2.2448177203152246 11.318629792354152 -1.5626681646901344 0.03869921634241077 0.3426838284250356
P 1.8490266969209095 7.7938997321587244 3.0892748060418906 -1.19565732948396 0.3274274164865974 -0.09102167989521098
P 1.8973534460016022 2.0527174895037597 1.322091133193216 0.8636824028359964 0.5686709407862593 -0.5247891518016445
P 8.557857138986982 6.026615027778871 10.658062254576365 -0.14666240918796675 -0.02506748449158909 0.39408275172230195
P 3.276368363197144 6.192933508596842 13.015300004779764 -0.40790165988326527 -0.13034387453360133 -0.23182454497860722
Ni 4.6397514573741345 3.787587910963637 5.338306850875282 -0.5296122842219008 0.20898337871437558 0.02658520668769615
Ni 5.133299841955681 5.141831393477476 1.2520706692232224 0.19161120598451517 0.0666069984962724 -1.3291667462297365
Ni 0.2634902333152199 9.007260357306086 9.03695707913277 -0.7209743503100874 1.2096428451297747 -0.18300803769653642
Ni 7.947233790265894 2.2743320240995035 6.732048984694466 0.3627579734670913 0.0009065709746694064 0.42354373729589634
Ni 6.435399828655393 1.7798013885203816 0.6025960193780487 -1.0510985969025575 -0.3666123142161751 -0.115395223643569
Ni 2.5565374130885203 3.307632009234247 4.036737279714261 0.8586402124263988 0.763040426242202 0.20778447331026798
Ni 1.4613088412495205 4.2205267316091 13.323156176962598 1.2916641212985884 -1.3089262508131456 0.46857455228328976
Ni 6.524747250349102 2.4025391662115627 4.839985661922661 -0.5195705837151826 -1.0401557247378086 -1.2924061416709354
Ni 2.8057765876446368 1.1848098628178447 3.3348076201671573 -0.47146215824372995 0.32262845243605726 -0.7867771077375095
Ni 5.39543924627995 6.915954435754733 2.965269827245172 0.633009197853013 -0.4384687340368449 1.4659859440750365
Ni 7.889280981408965 0.9382180885694781 11.044755762778852 1.6964899704700072 -0.4018731943009982 0.9252022166173485
Ni 3.2097156169331225 8.447358579145492 11.917461451718635 0.3997322366985954 -0.09285693333173685 0.16014913082049193
Ni 2.754736954856356 1.2586470735212727 5.655036023736211 0.4461347352225349 0.11600328954121311 0.7312441076672116
Ni 1.611546470021477 8.99684849673179 13.661778321343764 -1.1124356052491422 0.6577812625913705 -0.40620935978250683
Ni 4.393833226666962 8.514731642807734 9.426128666280569 0.058858979119737344 -0.9050643082168929 -0.86300543137363
Ni 4.258638070315012 8.325260102761208 6.21030157718825 -0.977199435620246 -0.860868330425969 0.8560233436288418
Ni 2.457807155675119 6.132005882432972 4.232884384635734 2.115904258978562 -1.570059057837567 0.21097804054690117
Ni 7.477549427539718 0.10715422906403325 1.9542641333239605 0.07140004900954154 -1.4641288362616398 -2.258523608445407
Ni 7.686001798767957 6.316856165405193 5.342702657958716 -2.4125488857563484 -0.6436779904207689 -1.7052252934604764
Ni 9.098441314195266 7.887662605955818 12.008401990982698 -0.2459612414903054 -1.7807337082114365 -0.06633420445085994
Ni 3.5987337858298725 6.209407261041887 10.532947799890955 0.41364190480115215 -0.23227757335562577 0.029140883230014326
Ni 5.553553592575318 5.997409431450973 12.60229058913653 -0.8895029634435261 0.03883882724406859 0.4386857351436574
Ni 7.89779382338795 4.385367158545005 7.981686477875123 2.490688053261936 1.3559951792764906 0.155910410148796
Ni 8.48686377879082 0.5179783701069496 13.252576297662557 0.3213272171261305 1.0054399185231782 1.0433590621664546
P 4.897877664765454 0.6114362783562243 4.94784898265923 0.28138564373618635 1.179836817511936 -1.0823704104326457
P 1.227766973111794 4.490103179200723 5.13608195097167 -0.40958933199833325 -0.19631375366650705 0.0954195518525905
P 8.904526257731138 7.939721908827297 0.5558745490705358 -0.3822451356574255 0.6149397419458119 0.15645239869519506
P 6.600829606189844 4.1652868064597595 6.286878800436342 -0.17370630067963633 0.6263392420320051 -1.021353247319325
P 5.566378984172227 7.142311839453054 10.768266139118582 0.30811380375965 0.8958924119096378 0.2950356304194532
P 7.072487825682575 2.601131608378428 2.6153929573860775 -0.3441611843015105 -0.8592809313341911 0.7807648401051585
P 4.664953211540489 6.759757817597489 7.828681707721428 -0.11920611274922696 0.35565118721898104 0.20639504916190904
P 0.9505944511389238 9.331075769506661 11.275871003213998 1.5490791131517903 1.8872390855645431 -1.046125312057682
