# total energy = -381170.336331705 ev
CRYSTAL
PRIMVEC
9.23532194173721 0.00000000000000 0.00000000000000

0.00000000000000 9.23532194173721 0.00000000000000

0.00000000000000 0.00000000000000 13.51682718237728

PRIMCOORD
 96 1
Ni 4.062202479913199 6.777765743707306 12.494022673688564 -1.8308051709465307 -2.129552960110249 -1.0742680930404853
Ni 7.96775543108559 5.562083391020866 8.533713499434915 0.7312777891186245 -0.45759311357112165 -2.532330154282755
Ni 9.514043834347635 1.405154215181806 2.911335462836282 0.23869221863271795 -0.9897680163138759 0.9235204580395515
Ni 7.7470497101890095 8.105177019793478 9.099270754817178 -1.7802189733585467 -0.6270622362409587 2.0183761454234013
Ni 6.160495303784062 6.32692503833412 -0.16800989811376227 0.8274992680472201 -1.0383533814217474 1.175518135531924
Ni 3.5993650914935382 0.9701613220547718 6.559445506437287 -1.6186914741332896 -2.5448516837885333 2.1322472191129602
Ni 2.8285204849961354 1.0288887335193861 0.22293143345562677 0.5965779516091725 -1.3793868187275533 0.4155314085143812
Ni 2.5719263035001694 3.251849166662278 0.6331958288726982 -0.5931766392371074 0.7698052557698614 1.424719995446714
Ni 2.581909686389499 6.017892699534162 2.8671352125973066 2.4754023307474595 -1.4354366105332699 -1.1543939519587991
Ni 6.417966840853096 4.356393656545578 2.7739637448662307 0.46921964206645644 -0.3594754460610777 -2.015114443952994
Ni 3.5543890742215343 3.1459015547229705 12.174646774448226 0.5311498039123498 -1.0313257851510043 -1.289692085173882
Ni 7.727544710501438 1.7351784404826394 1.4334327706000554 -1.1366731376402681 0.64168487125014 1.2527180790526942
Ni 2.4315863530966024 3.0810326542468816 9.666829304438215 -0.8958093652775282 0.11263797261340601 0.4725376506960958
Ni 4.755673560187839 8.057227228894867 0.6518622613388532 -0.11741276829423004 0.4990140997200696 -1.510878690822669
Ni 6.6065428771317505 2.366588158115008 12.845433133732062 1.6758848926251462 0.825269607385753 -2.2738882638269353
Ni 1.5443305150358304 7.780195280207331 3.5727137997802836 -1.8656814139984257 1.3459277677381596 1.2432294228359686
Ni 8.573232365042438 0.7791517784760816 8.242020477355325 0.3251887569640658 0.7977696021932712 -1.4492956279035492
Ni 9.32425797091033 7.834277324795597 0.8616749201466603 -2.080846753153797 -0.13253188332385563 -1.4698027467179655
Ni 3.7111494268242025 4.874966212159601 10.489179300735612 0.6230356315800689 0.7410407820426592 0.0447482507499681
Ni 3.4691008771975187 5.766895123062186 8.338219283579576 -1.0510662010027254 -1.398748768193933 1.3062962693894664
Ni 3.8460220667092835 5.599209384744368 6.201047601903439 0.2963080693739735 -0.07864284661488392 -2.3302710134920384
Ni 0.7945212010518659 2.858378280445907 5.186960318667799 -0.29021866864678403 2.024115361900024 -0.9715638346010236
Ni 5.405313803096376 4.650206184983263 12.075541612446665 0.9432701298626528 -0.818455412677397 -0.8800348760520909
Ni 1.4444043329243144 4.584727753266938 11.476921904942479 -0.24731955529041277 -0.7197183664157992 -1.2191435855313586
P 2.7450885876582953 5.403983916754041 0.45988670309760626 -0.04837916263433604 0.5361570273189541 -0.26862320186419547
Ni 7.969805672530023 8.667552706808141 2.8019033639736217 1.9522638271753603 0.8521620609012227 0.45738819664916713
P 4.744147878554275 0.752844964266779 4.772737664317917 0.908703704741693 -2.4388096192250903 -2.113362466393315
Ni 4.618916914651119 7.48913487767253 10.186267209706937 -0.5463455378161817 -1.3868090793335535 -0.39512610538515175
P 8.148730797504932 8.006506841449724 11.394698911231108 0.9288698952769229 -0.47268394646597306 0.3987829854114487
P 1.3514046421791235 -0.16713993079815184 1.8249476156545763 0.7884010164941777 2.8533920335626406 0.6891554060272777
P 1.1612124245816597 1.4344578913222714 6.788299551777214 -0.88374009281782 0.0955283095163129 0.6680713316634688
Ni 4.336546949950601 4.392254411179498 3.5087250254738085 -2.1873395321014133 -0.10892092877313499 0.7186541868173429
Ni 8.023056538154329 2.385825333469748 6.4104899243061935 -0.987068615104842 -1.0823094752877231 -1.6344345959001594
Ni 5.485698044233033 0.29769782832810354 9.703919280406613 0.5056398325667034 -1.7529853344535744 -1.4210232633214173
Ni 2.727412181691433 8.597539732077328 11.895091735838985 0.40800656089224574 1.7014406296070634 -0.729123461779783
Ni 2.5047208666031726 7.547853053815324 0.8236734179144546 -0.0030269597517818838 -0.40281704627150633 -0.49958591306313965
Ni 1.546556227594876 1.6752689078248388 11.550588372985983 0.9411980778249726 0.7704858267766538 -0.21386770338987038
Ni 6.025484134071654 7.961456941603146 11.76272094463542 1.5771843560284384 0.9154775331304169 0.9432112516002595
Ni 5.720099747391295 1.799096102811087 6.348488591255763 2.516651052984601 0.29859480852562126 1.58099833045789
Ni 1.2812254316555183 5.640906862769645 6.711983469903043 0.724400859493133 -0.638619344950939 0.39513690401842916
Ni 6.1698414494676905 3.9858078978035443 4.9788146354488205 -0.4738748814502807 0.0751515456321738 2.232977641655503
Ni 3.4805619115783313 -0.3721733105631947 2.5291196633240984 0.12444267855781793 0.645267703505392 0.976885503924253
Ni 0.627156851933445 2.0928255133523774 0.5239041069017288 -0.5631597811600431 -0.7651021938672372 -0.6370602279939351
Ni 7.17229869193318 1.659347213004113 4.144002495885133 -0.17149592329187882 0.0014868689581716329 -0.45700201695434195
Ni 5.321965023654932 4.222287548371703 7.447231451970628 0.2872451878407569 -0.4101444331708549 0.17036000991522274
Ni 2.4261005719344726 3.310493460230497 7.302885218960778 1.3997255302849057 0.19718407208660232 -1.171157030349751
Ni 4.974800041052899 0.6236797532675498 12.19977423806089 -1.1430227340073797 1.3530381535306955 0.8285593338806182
Ni 7.935524157927625 4.110678684155652 10.25948761170645 0.3235213965639719 -0.5054860805976584 2.268596676410693
Ni 0.2891468438533297 9.403681738577523 12.64185616421831 0.2599272167520943 -1.1692667553055733 -0.32173422275656205
Ni 3.765360765917973 7.374884711415455 4.547492782745939 1.1371698747710286 0.485954438322634 -0.8118967856232727
Ni 2.4285479322172407 7.168068914538811 9.965740654053699 -1.2374848070427076 -0.6149045178325022 -0.14377377478626208
Ni 4.215416468936309 2.0997058281095935 8.506423123451595 0.9146236697705539 0.020625646670151578 -0.3183663347255936
Ni 6.446116101765841 8.813341497086551 7.288476269854459 -2.33720836404182 2.4677676970203373 0.507538592251313
Ni 0.6117911234863896 4.569036941491756 13.658348325256341 0.498279021326258 -0.13921572310193445 -1.1018586010642444
Ni 5.762092755714868 2.2759804157216545 10.499628143844758 -0.23252568481068983 2.5461495766643503 1.0654540942932813
Ni 7.337343128209973 9.246681267607489 13.592251126977956 -0.9128318679774537 -0.9583118546871238 -0.8118155387633761
P 7.05123285817164 7.432587002157852 1.340956722602159 0.07135865424864483 -0.8882480079905024 1.0047997138360178
Ni 0.6921707469621362 5.481689914562387 4.008050246879088 -0.9993476895825111 -0.2671491884218303 1.3972791256269421
P 8.07678764051337 3.7379133894636825 3.9317609474382014 0.8989468824652455 -0.5115721388907383 0.07523819180870914
Ni 9.240955368077994 2.2690169830680427 9.825651904403685 0.5039670728499708 -0.04626674427702354 0.7066738745270152
P 1.204720025684003 4.952210443876857 8.927580580957441 0.847927711104901 0.3070573374706776 0.7770202854610617
P 5.803226879109016 4.3255199756954115 9.632726031546976 -0.5783768552201136 0.36281196663347837 -0.09989095736038281
P 0.4611639481055566 7.239873541703047 5.603157484823173 0.6142673984691356 0.6210132018334014 -1.0415883434192772
Ni 8.386983629862868 4.8708564939489145 5.741042686686515 -1.2426306129097051 0.5430516975562583 0.9627552351704581
Ni 8.177443413048804 5.635855141733138 12.217603026837809 0.33844125109859774 -0.08942142528762664 0.8828839154651118
Ni 4.543196511034453 2.0233851285745135 2.870689887966505 0.7408127251922532 -0.23531533174068506 -0.6709630513889671
Ni 1.8402394615270574 0.8713941728318876 4.877871644404728 1.4320563812071272 -1.1295033593647064 -1.3152802180556316
Ni 0.009995388807698118 6.411298938497781 10.242348701469616 1.1109047704269126 -0.045892134546424185 0.07336051517002205
Ni 0.1812588907992688 3.536389431990911 7.630613543256722 -0.201654192042814 0.5597728669656812 1.6427605992673515
Ni 2.4734223609492054 8.090686799855128 6.284446252082722 -1.6014943935287127 -0.40930471087837894 -0.3821422915309741
Ni 5.023756482030084 6.353799824835461 2.444356032579559 0.624641285504292 0.8866647226637827 -0.38409478727165464
Ni 6.693899786243842 6.209922746174157 10.435220085927574 -0.2672548607617591 -0.3878467981149191 0.686216892224244
Ni 0.24082025182438888 3.6859369982507793 2.2577295727374795 -0.747346669656029 -0.05579936635780712 0.9751564370482884
Ni 4.656809440085827 4.213320050882768 0.8451621647293415 1.3277665234481004 0.1767692558756762 0.43535692788074054
Ni 7.887537425741725 7.406016981276631 6.676150421234588 0.5974981494305968 -1.874823999729642 -0.8832114740078595
Ni 7.560708621791222 4.029250851653135 0.7246975504183986 -0.23522791423320133 1.1039825893857824 -0.5901447943893192
Ni 8.88735336616619 0.0026653138777618744 5.029989400727595 -0.5662882994866958 -0.18883287190842962 0.5825836942126096
Ni 6.449006757496054 8.397853603647087 4.66600874415249 -0.7933488474177562 0.03076170666288896 0.4266408881639814
Ni 7.093493690828044 2.8600868149829344 8.5147496896061 -0.3544162863706154 -0.8428315275289162 -0.520796999923116
Ni 3.9868053125602954 2.6326854857655726 5.246042366490369 -1.729952363893511 4.002425492540475 -1.765786342872985
Ni 2.2477203309470486 2.7368322099496356 2.939720224455482 0.6152367043609404 0.214896658875017 1.1497220004044264
Ni 1.960206291991807 0.6973175918134068 8.620627113099562 1.077878436099563 0.3808821938716279 -0.0847067934207767
Ni 5.9159901585527885 6.612167188121206 8.301589226637903 -1.0942082836078382 0.20847198629559582 -1.2653373104786014
Ni 5.864410886178221 -0.15485233511429122 2.149891490421256 -0.0974286118628193 2.475440383074247 1.8985547676876786
Ni 7.607189996520175 0.8527231227048219 11.182944064244184 0.1752913857785691 0.176530914612625 -0.7201978771553791
Ni 0.5161205776703438 5.940943998115202 1.8071594622936713 -0.3013921687651003 0.3824680503015091 0.4172813013259523
Ni 3.879213813336713 7.899229343168082 7.988958806456185 0.5078810631923962 1.950582068597563 0.17310132010578574
Ni 7.611669127603731 6.349782459842992 3.3765841937836063 -0.1179159331828937 0.026228851789541922 -0.13996571389408152
P 8.712039252023592 3.17972130323428 12.358529420177058 0.166107662396772 -0.11063379769918366 -0.9775748166817938
Ni 0.5090666388628784 7.920452112714502 8.180099491604745 1.9614688907133961 -1.7017388775737723 -2.836466975672528
P 6.19446281744452 6.039032351184186 6.137126245446264 -0.22217519481430123 -0.4715318351394008 -0.2643284311435835
Ni 1.352531351441379 6.8068939487331575 12.312085910267577 -0.574330453064882 -0.3213238746920208 0.3832787191282625
P 3.563541278146905 1.0988370609974474 10.408646370917623 -0.5786519632583712 0.3145950406086195 0.6524374817809537
P 2.3917451747575003 4.465878396742622 4.806827084226423 1.3940588189174312 -0.5161307047956982 0.12065030139492125
P 5.254205467448629 1.9249550685981238 0.6782309522043615 -2.411800437626098 -1.0699851493944152 2.3087063999473854
Ni 0.7207808504337873 8.806996830994997 10.123103149639148 -0.9856059145163865 0.8539052688445745 3.119293465620299
