# total energy = -340868.73073352454 ev
CRYSTAL
PRIMVEC
9.20924157370098 0.00000000000000 0.00000000000000
0.00000000000000 9.20924157370098 0.00000000000000
0.00000000000000 0.00000000000000 13.47865592751492
PRIMCOORD
 96 1
Ni 5.131195871137354 8.740665915294752 4.897618199764232 1.6843800745803506 -1.358379363237951 0.5872379051551693
Ni 6.764335099643606 2.387219535761802 10.540268627184112 0.8095077165658059 0.20742606152958468 -0.5272877498537821
Ni 4.649322318908606 1.2532856516542843 9.203131912359298 -0.25505189093766395 -0.7471373818587005 -0.8515889620065721
Ni 4.2413345098147115 3.1155323857954493 10.602930146994431 1.379520001871308 0.7349521526464181 0.8678995262411375
Ni 1.740482145367758 7.373701388748701 7.043676253923377 0.5893030152143142 -0.2524170244179782 0.9288498406722648
Ni 8.391423856600612 7.828895768864566 10.883799114409694 0.26283821975130217 -0.17632034126371568 2.041650028349677
Ni 8.750169852340143 9.184910507477506 7.000382689539572 -2.0350474354314954 0.7558621633262079 -0.18284271576326577
Ni 1.8848830493132291 0.5199795509752776 13.478655730585844 1.8904539929574151 -0.22563332856623078 -0.3543682067414994
Ni 0.4552431890948765 1.0459119555417768 10.867718858135513 -1.4058334429548562 1.8362350837128505 0.5451378906613257
Ni 9.156859158407487 3.8761328359077205 9.43956076484604 0.6936805475911408 -1.4272252783670711 -1.2760382418358733
Ni 2.019632668352141 2.6831861334020797 12.217848891543023 -0.2546464279691292 0.38470388161056324 0.22400710581671743
Ni 1.3978431127022477 7.719462354222727 2.6981170763591455 -1.1512633767496172 -0.38541890539971685 0.3615246152806225
Ni 0.24670176118260562 8.366024769031633 4.809184618111351 -0.7413544566283362 2.90347378071038 -0.09475337902350134
Ni 6.197708899518801 5.348865499049035 7.0586771871144975 -0.005028563562842953 -1.728489149084423 -0.5242224806648971
Ni 0.13475053996304398 2.5141320904347952 2.981047071982509 0.965932090236543 1.1118784471940917 1.055542491606524
Ni 3.60347482805609 8.882755299668137 7.059917671920713 2.708446349955464 0.34371844033713705 0.5245024737991612
Ni 2.3068596959768413 2.3991823402404475 5.140314861895442 -2.2714462300443463 -0.48179233652514447 0.6487476916341924
Ni 6.533422582709376 8.00606315343746 13.053524918769087 0.325757227873026 -0.3269013687797983 -0.8611285260658911
Ni 3.018347262113271 8.30116408239337 9.226179880618504 0.11836330513295745 -0.15992750172798906 0.5226993591521514
Ni 3.881087407739523 5.835408136628572 1.173046452930656 -1.879576941033595 0.3198694016336814 0.7482887218543242
Ni 0.9397846585349138 0.580249430813998 8.69075366917207 0.193614352457473 -1.206836486029231 -0.7053217313744949
Ni 7.854718481534406 1.4045934865920453 1.7707446332794425 -1.3968726342171427 -0.6745476834164319 -1.8579243957608258
Ni 2.005220205681563 6.931252598623942 0.5866157793406246 -1.76141803860196 0.5581543575256517 -1.1530117268992917
Ni 6.655039823621613 7.449668420422566 6.529141206418288 -0.9644009983039971 2.7413538993167625 1.3223219553937613
P 3.3525690482095105 1.0929343417372854 11.362614277595059 -0.5356600330778775 -1.152830207016105 -1.4756972578255296
P 3.042033430796163 5.715531442326391 7.165441763620915 1.3725551405177008 0.18650730909904653 0.2822400213166817
P 5.718736258306814 6.00981274880455 0.4642654828190715 2.7443551480369313 -0.09080622145029522 -0.996848320199425
P 5.645034699998421 4.661533772902973 4.818578965184996 0.7121048157345995 0.14142430071747902 0.9661557762115748
P 6.983063790307439 0.9067925514950763 5.374061062384776 -0.24638984438729178 0.5100130219337345 0.9610724481513964
P 5.455637442948512 8.301477196598354 8.249732311452384 -0.2760104954672021 -0.5438137725332635 0.5439394994778503
P 9.111135275238528 3.345017470324607 11.812505055632975 -0.65806022728437 0.0036602224604066 -0.7320953999239134
P 2.9979119556174165 1.9446141885345511 7.407963450166988 1.3139082774087694 -0.909937320038478 -0.362525288630995
Ni 2.8150532599068754 2.2671218196678677 1.2150415142879099 -1.3345318671963917 0.1854827244892741 2.223780548537267
Ni 1.867293398386198 5.464911148960827 12.174407058373918 -0.5203694254673941 0.007910513096328313 1.287140522396622
Ni 0.8649549681644466 6.311710097856873 4.618245734063962 1.8344977893067695 -2.889003355008347 0.006524174271762957
Ni 2.7357616921153896 4.400626756979559 4.3164994165693376 -0.5292633855229143 2.301736653497771 0.2134804952537807
Ni 6.824941116790618 2.6078545393795056 3.948841638001489 -0.29359324154597183 0.6199533931103195 -0.5944819883120923
Ni 6.638371096826887 5.116820245432068 2.7027263016413334 1.6491209942677407 0.2995564011079422 -1.0952971457966427
Ni 7.449042192012597 6.590483041947012 8.92016047514998 -0.7141825241992346 -0.11371295084513965 -0.36700672144111635
Ni 2.890329598481511 8.068722831399512 4.891471952105226 -1.2966903708685862 -0.30540283258639017 -1.643183802847699
Ni 5.048054840472832 0.7070330561084689 3.01214299623393 -0.9369117917447929 1.3257371517228975 -0.711368194678891
Ni 8.219514948823182 5.27874633561531 10.916133681619067 0.16116085991445794 1.4718547441509877 -0.37779918407093
Ni 4.527023594138462 4.423484093943377 2.9436980728727353 -0.7328667308722993 0.3399137218790662 0.8258265083304875
Ni 7.1521730887226616 3.067202287332067 6.417875152753162 -0.3752676758983279 -0.04529049640668329 0.8834367026447881
Ni 1.1189872854402023 4.832503338065453 6.594715609259087 1.0557371241158335 0.7350909922171275 -1.3530723492027408
Ni 4.690469209140007 6.207875901939452 8.834180235385562 -1.3090776887893454 0.7868382999927481 -1.235654181591872
Ni 2.33777511909833 4.231305646013906 8.587238113004425 0.6728512695506154 0.6660198484510788 -1.0236602981859466
Ni 4.412073843944114 5.422235524669799 11.876002774555428 -1.6596668881043868 1.1141813842956554 -0.26665707927676013
Ni 8.824313454232042 6.913865551006018 6.636269547956966 -0.4302715429380332 -0.6745633671457156 -0.21808996900133407
Ni 5.410456905017614 7.511149315495267 2.5184060993328243 -0.6674064443859602 -0.7348341390113151 -0.7274381036575601
Ni 7.927287303160064 4.888081109450078 4.963730422298298 0.3756284016718563 0.22688237048198345 0.17859782444398273
Ni 5.311365468381563 2.718835106563618 1.797931234589227 1.2346378245122158 -0.9941013535819073 -0.967577853370082
Ni 5.743674883809641 3.3914688835580864 8.509762607601845 -0.23499857183121467 0.2702532812684507 0.3229799222382051
Ni 3.3014393403839204 8.63791840985345 1.6446388081463486 0.18751595286921896 0.10798787543590435 0.9142991965515995
Ni 6.027291888835705 0.9518856016334054 7.240895840553086 0.3247838082161632 0.11438966519719011 0.2630647339398115
Ni 0.5931478942110662 5.278589778512818 2.225433426046671 -0.6624840673836784 0.21174834305402243 0.4324194425189714
P 7.469155175062146 3.581059534675779 1.377208886593815 -1.0001365040323937 -0.28006152560812414 0.5162132372071755
P 0.6530843995138921 3.7918406500778166 4.71091188302892 -0.544069083077179 0.6122436831708875 -0.7507443824836684
P 2.4070930785369504 4.182376946864525 10.63045380653664 -0.27454625221684975 0.26687716570736614 0.24565579443474467
P 7.388205943832509 0.6803511212231874 11.786437377143942 1.1158957958836007 0.3530579725705081 -0.18651990750453684
P 3.533558267931472 2.3685708220826194 3.322286299966916 0.7668849967992727 0.4326672968637193 0.1436321070020752
P 8.29899070144113 1.796069125993706 8.408753806922334 -0.8361050074383601 0.7900385520976007 -0.07617972978637204
P 1.9376704205769693 4.278871377447475 0.8838707498419975 2.3104025567028854 1.5263405339036937 -0.7175038752629836
P 3.279650275413577 6.463459976378142 3.3009632226075185 -0.14250287849363844 0.28794067124588474 0.1045816779678328
Ni 6.523071395462264 6.874901250968181 4.361355789205664 -1.7208982241110427 -1.0848913770822866 1.1549207709965463
Ni 7.215827364747603 0.08175043522474158 3.533631941862056 0.8472810786598376 -2.0111415753481756 -0.5049482058163175
Ni 4.4757649569343485 6.689454758445862 5.7163243580043055 -0.25179867410768897 -2.0811138907722544 0.6935237102983024
Ni 4.232254197870181 1.4362088120540866 5.399401210809288 1.1980597682778658 0.9796473829401063 0.4175304412222809
Ni 1.9707131784440832 0.7213451380486257 3.416879943140787 1.2152028557160557 0.3153164921556763 1.5591166998934503
Ni 0.2395959105777379 3.153207392048059 0.6449204070810055 0.12150853563015845 -2.2900975265969463 -0.6932743132916577
Ni 1.006183288474126 2.635776959071003 7.194960144833698 -1.444856618295589 -0.8007268850493822 1.2354734330396335
Ni 4.038675945259606 3.7479586151734687 6.624813251751089 0.5080993498507894 0.5783639997043072 -0.25731446171959554
Ni 4.01479638250893 8.321894084611563 12.937851322206747 -0.44066188503342174 -0.8637284255825836 -1.0806477713145841
Ni 4.289858002345877 1.5020733059965616 13.171126930464473 1.5032638545898884 -1.169746266045153 0.19248306706650722
Ni 8.39120283480886 4.988517095319294 13.195037804635648 -0.4166135858349664 0.03797030859618623 1.3042501854937152
Ni 2.38060730049185 2.0798795250875535 9.48536108471798 0.061524184656726294 -0.10554558454299887 1.5019819025536714
Ni 7.069925354466474 0.022269787367406795 9.537524069420016 1.0007432843784572 0.57148347053439 -2.197279159812629
Ni 8.083512872964336 8.03957558261205 1.2206527050260463 1.1290292479417652 -0.8350534262453941 2.050766903049281
Ni 8.918496365242905 1.8562883550051497 5.312072738115174 0.911488723685998 -0.8294394224927264 -0.4274037344719349
Ni 6.524581711039244 2.468758158436113 13.011458025329512 0.8975250624170543 -1.7329209596035315 1.4001734164556014
Ni 1.696535645774149 0.32761047175042013 6.220103011644068 -0.7700937335445576 2.288507556402007 -0.32681883636832104
Ni 1.658823802556247 8.43334432310315 11.435129685621042 -0.7914734847719143 -0.0875360353394557 0.7408672325792725
Ni 4.118252999532108 3.748299357102422 13.420158629701811 -0.09501511732532023 1.0313178147312045 -0.07979624349303677
Ni 6.392954024808847 4.357941923447209 12.005627450798059 -0.14075838499870597 0.5621125708424513 0.7257190640839244
Ni 5.584741797056392 7.257066347392235 10.969873288435611 0.18487337304004936 -1.4993676048592757 -1.1176274338627268
Ni 1.4747586962323864 6.340654743335229 9.941317069091259 -0.10682522258637085 -0.21113333517784283 -0.49924652744584985
Ni 5.5269169707889425 0.2052675426219255 11.109175035460506 -2.624268946675597 1.8703201983220175 1.478215653372009
Ni 8.987059166893035 0.3005666136811427 13.082626121349934 -1.6738730044014398 -0.6631844358848128 0.2927694600930958
P 3.288003057293586 7.2611276228157005 11.140701952205847 1.466580897346558 -1.884285145142542 -0.4459246760942578
P 8.333083312819072 6.967131802818557 3.6264454386881813 1.730927583322587 -0.0852734645575241 -2.6138459515700596
P 8.504964592872534 5.069457117307607 7.524782676349915 -2.8340869054761253 -1.5354180707249299 1.3441904733320784
P 0.08677407636646702 7.780123626817677 8.978065421816941 0.8308650991956593 0.22414286006363332 -1.4368373475355385
P 5.385177537585833 9.058900458454172 1.0082185308065208 0.21536228565752588 1.5173285602130706 0.36362906321813504
P 0.747713037804791 0.6446036091794924 1.810331478030718 -1.5068770258624435 -0.3728909481360352 -1.4352859438880183
P 9.132574389038595 6.95803307239138 12.857734606392714 0.613190363354873 1.2427455412210147 -0.11438580854244816
P 5.826327824684042 5.082248753505328 10.157056440021627 1.2617403371559626 -0.9843149636191048 -0.6505356367725507
