# total energy = -381171.56857935904 ev
CRYSTAL
PRIMVEC
9.19518085723888 0.00000000000000 0.00000000000000
0.00000000000000 9.19518085723888 0.00000000000000
0.00000000000000 0.00000000000000 13.45807664769032
PRIMCOORD
 96 1
Ni 8.8476946822594 0.18609574215341626 8.146779171167458 -0.8538191368886714 0.4502706117677793 -0.0697087773500477
Ni 2.8865051040640397 5.480704613450885 9.20704693595666 -0.017146686982615632 -0.34572030125851433 -0.5639727639796417
Ni 3.249549222754311 8.136686540989796 0.2898219764091683 -0.27169078504592564 0.8253986767644493 0.09413914247827011
Ni 6.667793227978905 4.682939943640611 12.446392266848587 1.9143048314330837 0.17543099668022688 -0.16335709623482833
Ni 0.49278995536377945 4.473657634198572 5.931203174885984 -0.9195609591711712 -0.6465529979757187 0.01800749232101415
Ni 7.0139182144471475 8.551104133443365 9.832174849392528 0.03812637455807628 0.30852183783134607 -0.4321854721312944
Ni 3.0486988938816197 2.18110602293326 5.149141114910251 0.7071382157579436 -0.6180412636892711 -0.12669085116204631
Ni 7.6159542709541155 4.013457237759417 4.794291741130997 -1.6806990261843375 1.4221293519014024 1.1363682048053396
Ni 0.8793056919398917 5.23511973117593 3.6728705085397224 -0.1911455792020063 1.8363538686789018 0.39437971413743045
Ni 8.724093065233044 8.59349391580399 5.860359825814576 -1.636698966454304 1.274026353612167 -0.8234472094650334
Ni 5.134248600482645 3.4187589353356986 4.176592614065876 -0.9958167936111172 0.06447349709303735 0.8477806440040755
Ni 1.639657011106151 4.3506261183666535 11.621573536808068 -1.2848476125973873 -0.34851329062261915 -0.08402236575924239
Ni 5.491490560242427 8.99239004347996 1.184938781314156 -0.8294275954181844 0.11579991528115541 -1.8457314532390598
Ni 1.424048417441963 7.664293335134116 7.969496090058385 0.1255762779416289 -0.3570192712111013 0.05902147283953061
Ni 6.8094173988939435 2.833871890564645 2.779065855899997 0.679104706659495 -0.6206522189495569 -0.15721010279682604
Ni 2.2057399116413103 -0.29128401011748484 11.946801555945996 0.596442711582889 -1.0322033026599513 -0.3144644285680262
Ni 4.149821765396739 8.444191769125151 6.318136372659313 0.23160625832021403 1.326168325723045 1.1219011215374164
Ni 8.412735056444957 6.929570823212006 7.431859400089565 0.7269249114665675 -0.851818561518875 -0.7336946260902333
Ni 2.6475959228723416 0.3011283704201494 3.741655056684765 -0.40686319131642185 -0.24202616810195737 -0.3862812534000121
Ni 8.922414719452986 3.06955356338138 0.0467372637272405 0.09551545400050646 0.9756076656530941 -1.0933515920344976
Ni 4.3594534916998855 1.8961473775198692 2.245789520550572 1.7057978781344945 -3.012208047394006 1.3207067883878416
Ni 3.3782909457111643 5.8215239807386325 11.418680038815957 0.0428057823116166 1.210565099833728 1.14294302980938
Ni 7.117612265570956 1.8169308970346685 0.5877678948390765 -1.0926093145518343 0.031957783853519155 1.0409147143910202
Ni 8.205264197572342 2.636258265247472 7.0683435686368 -0.4110630883303824 0.8192496264439182 0.5761518225443368
P 5.382831111618676 6.484993038536562 12.01423992965772 0.7373605049775946 0.11891634942295005 0.5192803061682734
Ni 4.533959628281212 6.466161308758999 0.7211899646986538 1.6645625256337913 -0.9011973690623188 0.17769665278595204
P 1.2796473019991785 7.43431267426176 3.5678302829825963 0.42359670202101884 0.006641416575917594 -0.6483666541456897
Ni 2.207643314016288 5.445551438187399 6.860752252898909 1.5779302330555276 0.4555493436682154 1.362446591328789
P 1.7271951299940336 6.291977003497114 -0.4429309278379638 0.8802824732865225 0.07717551804073805 1.7191128500758457
P 3.643571904735892 0.6684427309603714 10.665202117114896 0.6232099523744041 0.06657717369960146 -0.13678243107009347
P 6.626460891382157 1.314487841123778 8.60835056902743 1.0467742584955908 0.040173486895092106 0.16094565857985832
Ni 1.1039641823067536 6.989486619711318 5.641127411493485 -2.0276657982554434 -1.2756705740838095 -0.1568699458485879
Ni 5.282888694161492 8.841064957078922 11.98587003908999 -1.927744244767441 -0.9766510193159438 -0.8532210982933565
Ni 1.8595045830064014 0.9485104598363183 8.71215312328179 -0.12626559069916965 -1.4005079169768848 0.791288879564934
Ni 0.8168419109086654 6.635793999645939 11.103491317808468 1.9565226024517146 -0.8539029548517293 0.07402334556500155
Ni 5.375741627410424 5.585042327213574 5.429809289076469 0.1751756861363112 -0.05584873153850382 0.09814852074797935
Ni 4.5379411414617215 4.401861664421619 13.055598725152695 -1.001768640319178 -0.7698052557698614 -0.08835698857885428
Ni 8.693096111580623 6.825481379324314 1.864468141470233 1.0529474771858383 1.0099858860226476 0.05563687263801386
Ni 0.3357583399100291 1.426071357164162 2.029101412689174 0.3591843971832201 2.2589797221462193 -0.6920527821797308
Ni 6.952402456531188 7.217242046889255 0.19372222490610636 -0.4949746395433734 -0.567190756696307 0.3184838341400644
Ni 5.203745775120734 4.411139601602069 10.516114218142999 1.2766702189929173 1.3822062904542196 0.8480932901484878
Ni 6.007330994222609 8.044532441463078 4.979528653420535 0.3633567833933549 0.29545883399980083 -0.7517023755215634
Ni 0.6852322111365672 4.550235097864358 1.4547639985693874 0.800968311636227 -0.9292427052353093 0.9664730503416775
Ni 3.6663667573328524 1.3729691894564389 7.503873295645682 0.992807317360832 0.38678904627436617 -0.976161224163719
Ni 3.1993527321021102 7.095562222598987 4.922640829878134 0.5943189803716667 -1.1327655750557457 -1.650529187469177
Ni 7.642188121078814 6.746439607269667 11.402233538874478 -0.8424265787810137 0.37041291890918787 -0.5413105464954355
Ni 6.669025382173334 0.519547011262083 2.937642261687063 -1.401896055573663 1.0672975752599232 0.9405475887251673
Ni 4.2662971174926225 1.515420926621468 13.18101455130264 -0.21373246336358676 -0.3371150760880065 0.11879782156721476
Ni 7.395858429178868 5.65036488987949 9.047178607301552 0.16444158754825874 1.2980453422345837 0.7583669320259326
Ni 8.544069820318446 4.478282810017963 10.779313388289973 0.37096364920633534 0.24969525461144096 2.4642797384717365
Ni 2.455425844443995 3.0768453415618517 0.02561317543720556 -1.378545810883497 -0.20882242765647907 0.08252341261621272
Ni 0.11164604326816098 8.075023660184948 12.98802610180486 0.21102740572759787 -2.7150831385456913 0.5202642673480975
Ni 7.614988776995794 4.957259765151346 2.5203208312140823 -0.3239973077591259 -0.8120286832154467 -1.0760604090542178
Ni 4.0953403206056995 7.756511800924722 2.771623276758416 -2.3155753591530766 2.8231797716453184 -0.6244443390021375
Ni 5.355834061507875 4.8318283071944546 8.350588509142893 -1.646352687493984 -0.27579606546355084 -2.086524777375181
Ni 0.11761831303892567 2.5844893987202893 9.143968916864328 0.35278029342908923 -2.2324389955432133 1.5095062359551743
P 6.17774527545676 3.8151171931783647 0.9302911290837501 0.11139870088966622 -0.325501145998162 0.8173840339900891
Ni 7.69065591778659 6.524155312522223 4.136757252863556 1.4250164436412103 0.16171390420445053 2.235041209052751
P 3.7553669099290516 7.052565558321704 7.893108047112041 0.06467070070550797 -0.6230500297577722 -0.2458414280829895
Ni 3.829351332678201 3.8747387438999015 1.7393759856758377 1.2588406470106643 3.2284679051651373 0.3689170510899517
P 2.526431028693179 1.272254376832597 1.3170422622820819 -0.04367661495234413 -0.2835409995162923 -0.2003401012170808
P 0.5706952031017728 1.5967155179122001 5.0299016915394 0.2844249447831424 -0.9188677897588885 0.13378658166656315
P 8.296416022418516 9.098998966839845 1.2350258493177468 -1.1020558046767148 -0.8288092451078952 -0.7777152546455574
Ni 2.48853768962417 5.927811072779078 1.9903823464062858 0.012544926544546137 1.208891311675731 -0.22759019518228543
Ni 2.902311619438858 7.7856881088271646 9.742207363801894 -1.2157929238915706 0.8780155316292169 1.9977633542690563
Ni 3.018924899243073 3.1692201254219006 9.102463710873138 -1.3083091860544371 -0.19087278515659384 -1.1401600677476043
Ni 8.854885313453762 5.460410849965006 13.17377426613328 0.09553756548769353 1.099095179386494 -0.7119091547840255
Ni 7.304908898304914 0.10206190657521562 12.621965963892402 1.3727587718880745 0.1451799111051693 -1.15817475915747
Ni 5.107435453982953 6.722136745061613 9.802270283190094 0.8898346357513319 0.308659648960791 0.6050574498350935
Ni 4.699197022862646 8.931628290369547 8.93711781316115 1.2716653095791584 1.1368436017798615 -0.6414066778880889
Ni 3.630937726652704 3.2124650595741815 11.281609321311976 -1.1136900464815334 -1.5863205140017518 1.8182347904806881
Ni 1.4372526967195889 8.589705501415144 1.6623681875600564 0.1635339881323248 -0.8862443472969125 0.20335754788716592
Ni 0.28591862226337983 -0.08341316089070777 10.554550072864778 -0.8983894672998786 0.6115952509536112 0.10136522791306414
Ni 1.3825321772341066 2.352228333070182 6.875475576004295 0.37035943996343307 0.6973058030485539 0.5799264590954205
Ni 2.220801617391137 2.838699360356256 2.9525274199702256 0.2776176920533218 0.021321644295911664 -0.17314605730079213
Ni 1.7874879288961183 9.103145993270353 6.0914347131730295 0.5490547092172287 1.8731476404684837 0.14387507625081675
Ni 3.7841938009703866 3.6186713557917343 6.883011945987541 -1.3346115713943918 1.0920012486541901 -0.047999410697414105
Ni 9.351222769475834 3.164834024296951 3.635430491872097 -1.8137006500557602 -1.2838461679160664 0.018485460398697195
Ni 0.5496078955339596 4.660797948863088 8.89545169151024 1.443846946084152 2.263609764719063 -1.600186987571199
Ni 0.45472650545449483 1.0373267088214084 12.79845550091954 0.1506666452513534 1.3650526614930685 0.5185272300523328
Ni 2.938614192271774 4.552359184572667 4.766810105004924 0.4213400447763582 0.2236430376090794 -0.5651081631356655
Ni 7.545464016816037 1.6438224278977698 5.134754335413194 -0.11949279075171035 -1.0995196685184225 -1.7209781854193589
Ni 6.292519519149885 7.375757764484654 2.641254926361303 1.7203192116791208 -0.6224725599877472 -1.1997261002366952
Ni 5.032761392692144 2.1497688476002867 9.793993701172132 0.1445196518133511 -0.9928029464854577 -1.2057319401111428
Ni 8.669749548150335 8.918442401453031 3.3764427144195186 1.1247804999677404 -1.5546486368197678 1.6069970685144968
Ni 6.1592537673597505 7.253351520930506 7.451319160699064 -1.4843549335005275 -0.989216000465148 -0.016522423135055416
Ni 1.8157355235624602 1.7677550714241228 10.946893714876936 -0.6087202433986614 1.3068984217498396 -0.049109098821825105
Ni 6.358099546871353 0.26524141974833976 6.822181229022963 0.14691977661441147 0.7640745239336713 -0.27754801515765104
P 4.821575680875128 5.969796267195262 3.1951220295285476 -0.34151706181044406 -3.4020747041524313 1.2953161162288789
Ni 6.174030422512359 2.257922561293488 11.808197082325368 0.6793523038939268 0.3857788598422969 0.1809555260428819
P 7.031195958710838 4.784270833361669 7.034200024198304 0.8739537028550175 -0.14912218358236898 -1.2217383428417283
Ni 7.128021209959725 3.440900930113222 9.466841130743948 -1.1525409579104602 -2.4742491909796227 -0.9490162883178106
P 8.960390815146994 7.319133842624194 9.543323884050015 -1.8363029608363084 0.4081343447193616 -2.6568998453367403
P 5.116272022496741 1.1499308899034475 4.678929005882323 0.33378549749414127 0.08947181890958786 0.05432072492975162
P 8.402758285542292 2.310151186848443 11.400377031920334 0.15515836247411988 -0.06649875505318224 -0.08892160283307267
Ni 5.797221118530579 2.7350788706768916 6.565051797560641 0.835363244176329 -0.21545947335702248 0.03473046150264986
