# total energy = -340857.7842250995 ev
CRYSTAL
PRIMVEC
9.34833862058214 0.00000000000000 0.00000000000000

0.00000000000000 9.34833862058214 0.00000000000000

0.00000000000000 0.00000000000000 13.68223851577383

PRIMCOORD
 96 1
Ni 3.405749371786681 9.181676544501116 0.300382689654377 -0.31244174171104255 -0.9793198243973587 2.7547457472426364
Ni 4.900296329141429 6.817173185180853 9.035941552745246 0.5747107192224361 -0.3419184110139208 1.3300524912687997
Ni 0.19879709720607844 3.643468277284007 7.301691037581362 3.0113991783394654 2.3797979165775724 2.354485920175345
Ni 7.834637023924939 9.2379348469622 10.245588539045823 -1.1622335026078758 0.029718095889723014 1.5375891102343195
Ni 3.612983344694177 4.984618344461963 9.722886462279655 -1.2703057102274702 0.2601637582429326 1.9691096950881057
Ni 4.943663272497521 3.201002056980656 9.315839227746421 0.5254820641036112 1.0716450535953415 2.256658015991578
Ni 9.420040485370627 8.87622892492427 5.770223751256889 1.0865998751329609 -0.42331799443833545 -0.08935251972290417
Ni 5.78126507412774 1.1678879572055856 2.2160713718415574 -1.360638848696089 1.2777516249825542 0.0883454186146285
Ni 1.465903647494202 3.8651641302026847 0.08739481426020858 1.0269806208084313 1.210617036117586 1.5846297565628902
Ni 3.2000298297530136 0.22477706536320677 2.595124071221924 -1.6502409668047968 0.7813783053194413 0.42178098896851873
Ni 3.7687640612464373 4.808084315935027 0.47038596874640015 -0.3327300596464334 -1.0122865091313662 0.41277492881516653
Ni 0.6377894748383524 8.206794388660025 10.452327050000772 1.1113950797997698 -0.3559874875124772 -0.9277923459420279
Ni 0.1644176467024423 1.7716036722166857 9.948014090345136 -0.14554500775407192 -1.8186795913275904 -0.8971177996763066
Ni 7.235221544728413 5.562214801068898 4.806187538007251 0.08989193716614195 -0.29475949393993106 0.3306873181847918
Ni 8.956269401107686 7.641621874221716 1.4165631156913439 0.02544389399440134 -2.799261570266824 -0.06470926725292726
Ni 6.612958725682286 5.110166533570031 9.66888204428573 -0.47462255824958266 -1.4122969391920128 -0.5144512602107463
Ni 4.821031765072381 1.7289658992813244 7.821151110476891 1.916731695707022 -1.7633245115960534 -1.6257005584612714
Ni 8.38313210207369 6.265387491800082 10.577492892054892 2.3004549585718705 0.16896878599465093 -0.6594475945501997
Ni 4.5948113162096735 7.878518125911036 3.1074420133297718 0.7581980105482361 0.053060370160089264 -1.7386108108994576
Ni 0.2762836072491878 1.4057190427676387 7.243814537686577 2.1813126091810435 1.0805351569961197 0.2874357065850082
Ni 5.276931548126908 2.9972363177410006 11.922579544670928 0.15680001184260092 -1.203788957452159 0.2315046997453432
Ni 2.139881476379929 7.967878895805602 6.828490284044162 -2.7627832728351325 -0.055630444880110645 -3.1000824399094866
Ni 0.12304189949527093 1.492368794431279 5.016647622609548 -0.3604882035963082 3.7226578440236855 -2.0565516280518583
Ni 7.228088762279458 6.6698433668381005 2.7762490688978545 -1.2503572921300015 -0.23195952789457472 -0.8926091131726757
P 2.718693217021417 6.869103206811182 10.396886727178329 -0.09511307635576521 -0.3074535444678318 1.4522873635420215
P 4.4995704412556154 7.039841265327174 0.9903274810863871 0.20146958683583366 -0.29552336868914914 -0.7707329097904534
P 8.816362163714436 7.385309122995727 3.913831581617175 0.9651674441563767 -0.15863012307280422 1.5031376134246694
P 1.2390662082754913 8.829328309529245 1.3037230582492103 2.668307830063366 0.8628822755322042 -0.6956872936085245
P 5.040007251421406 1.553450839675666 0.12750292673595373 -0.640511162657013 0.2304340923889838 0.525489777413095
P 0.6151992143037546 8.55075716379348 8.224762830527832 1.3411167195027611 -1.133563388366693 0.34276764638809354
P 5.2774924484505465 6.156479345626665 3.941565298119551 1.7035260513811823 -1.523895414797311 1.9964865444391617
P 2.522471587134718 9.14010448218067 5.039059329874454 -2.2827817096618235 -1.0674680393995164 -0.3991210854771578
Ni 8.462602329594738 7.085638776752373 6.33448012849992 0.21400602873994753 -1.95470251852384 -0.5576725327932267
Ni 7.083273647054359 3.0755380029211334 0.6564179094203068 -0.14827680486293818 -1.3032747089543233 -1.6491017109940307
Ni 2.74005417101337 1.1761705853180018 7.5378599885176945 -2.7037528011345366 -0.6937170572560311 -0.29588229469046456
Ni 7.161818389041401 3.2737227839405714 4.346012759652715 -2.017022973829617 1.2298085214443724 -0.9513827316674583
Ni 7.211112179150623 4.9730357527788 7.242337500167658 1.8068800275895012 -2.3130348521194097 -1.2458933428213768
Ni 3.3039179180298537 3.844672571712373 7.675653566524695 -0.4913337003566764 -1.5516394176797987 -1.1698061727488112
Ni 4.0993680603385325 7.3750259503956626 12.175482021929184 -0.17468794786661526 0.3606648383834885 0.027478407925926873
Ni 4.964949439779657 4.3270001083490675 5.405318827706466 -0.36844936742491385 -0.4299365281961176 0.021582097046149926
Ni 5.803869357170429 8.722065470971838 0.15954155322226593 -0.5198264084797305 -1.325816341700265 2.3040920411038255
Ni 6.730514085178485 1.4367555273423809 5.424652127028462 -0.3863002795634057 -2.479324034399369 1.3463370873614362
Ni -0.15448503680465206 5.165751755642748 1.521342100648899 1.540912775290914 0.8857568661375327 -1.166640887646952
Ni 1.7839434793367637 6.059948399928235 12.217336404079196 -0.9212848838408134 -0.9617437631868082 -1.317836665928898
Ni 5.265236776379015 3.841438046512716 2.192661262000573 0.7631070178140794 -0.985295068144187 -0.09985110526138288
Ni 7.424310392166157 4.637299515725398 11.985217153479542 -0.9386886811395576 -0.6826422874991083 0.8525513259198415
Ni 7.786408944430634 2.4269596103575672 11.180523373837277 -1.4481689704982739 0.12074208977777916 0.05967761836629078
Ni 1.8052483432963533 1.757225927254049 12.777623476698604 0.046151558855397935 -0.10736181181613123 -0.4649706369821154
Ni 7.027202311367821 2.299083684906393 8.556653161028807 1.2904983831252612 0.15684577747887182 -0.07217009440634668
Ni 0.6990827925379772 6.331096964714499 8.51771359089398 0.2833067720182992 -0.10740217813576343 -0.6190560781070306
Ni 1.9645440352100905 2.9804560497254395 9.757803442260114 1.9856133491700836 0.8732219668953155 0.025866840464432873
Ni 5.059246132522254 5.163760559493826 12.466161135984592 0.918575198219134 1.1910630252450585 -1.3372335823982713
Ni 3.7254625562614354 5.426439529393127 2.7275545073010545 -1.7494099583974905 0.5670701719580427 0.12887654595945547
Ni 6.833486036260047 5.965595617153273 0.5211287513583582 -0.6501941942727318 -1.206818231196786 0.9249512769488071
Ni 4.305330659179111 8.587870068540989 6.875680697939733 1.470947658955686 0.15628964786508567 -0.5558303373781653
Ni -0.187232267366496 3.487818437473929 3.4754935876958144 1.5685323367803954 0.38854408129225987 -1.6153223005507407
P 6.452541233121269 8.960205051711894 7.107635417777786 -1.762158002091778 -0.07355437634838301 -1.7576212905636892
P 3.7817115103837917 2.36353113209262 6.083588478901912 0.3373377336217738 0.9177563018622645 -2.725581724084171
P 5.223225342138385 5.055095470127319 7.762138787426735 -0.7013367785848179 -1.0346836458796438 0.7521985984316917
P 2.847101997780049 0.9026204323126857 9.704688986113032 0.20796882140693218 0.17497899674447284 1.1286119578986884
P 9.01382712265187 2.299756765294761 13.32149299684507 -1.206897935394786 0.6018430566628539 1.8505831249044067
P 7.990006413573197 1.5716520551777815 3.1065931841733305 0.4024524638432359 0.3334180868523935 0.9735651813017685
P 7.34234415820491 4.567682437222957 2.078564787833486 -1.230605563424371 -0.8199695353290781 2.525787468068231
P 3.201955587530844 3.8011280099204607 11.905709532603584 -0.7233392509978381 0.25069824195465856 -0.2291264293211538
Ni 2.924908221007633 2.242040121992213 1.1697940834720884 2.9258400642207225 0.3289536233231367 -1.0381088695111087
Ni 5.588689296344702 6.601647235822215 6.165572474706741 -0.27290434573805256 0.77129829537562 0.3303319917279021
Ni 7.417224351410839 9.054856981326129 2.390519785998427 -0.024867452665641047 -0.7292661580052344 0.2699725168032383
Ni 3.4032159719915747 6.593168292596524 4.988845663234462 -0.8119592634300921 0.4399990546384422 0.25677735826920295
Ni 7.007103383104058 7.218394535019215 12.505730784149643 -0.05837226929130592 1.8308545361272275 -2.8503666164727557
Ni 3.872857812975279 2.578645754547256 3.7462794369394583 -0.029321888892568853 -0.5056804559966517 0.3302510019783216
Ni 4.431916513885914 0.20808467173168277 4.609012377570364 2.154219609618993 1.8265443387876479 0.5304162681804349
Ni 0.2880110981826258 5.3841663416681325 4.958908543294055 -0.2394532651684586 1.5241669232911428 0.23228014445878709
Ni 1.4702038833087747 1.929282101530594 2.6770529118282615 -1.1462288996495036 0.44527264433255576 1.4327768043129196
Ni 8.376382601512555 0.16303689707241537 0.3647291747823485 0.10652723172997783 1.5754434620779318 -1.8248286416481219
Ni 0.5961351471371064 9.2162840944697 3.3962187404541666 -0.10749345229798907 -0.10117728027197415 -0.044580614823852255
Ni 7.097370941855175 7.057182433666374 8.002892163674952 -0.4727433389489988 1.8442402134055143 2.9632907528680126
Ni 1.7565715435431357 7.154199492978627 3.0224338299466513 -0.1334428251738992 -0.4788713062236076 0.20158734336062056
Ni 3.6141799320512753 0.5745058958236784 12.0288766998378 1.9507147375206852 0.9850803810302194 -3.731844138508644
Ni 1.9733034285976006 3.888319965230286 4.815669557978383 1.354496226133461 -1.1373591079636993 0.32421945107226097
Ni 0.39980227201955265 3.567980442060801 11.884693532310669 0.10397309784955643 1.9021278297509179 -2.9770135017707435
Ni 5.0851597274744185 9.074292177540253 9.119869068171488 1.3961041314822342 1.663630500737825 1.0522522508910266
Ni 2.965293044309707 8.13316687284356 8.793164261162561 -0.9355190251623242 1.6580465788921444 2.202250901995607
Ni 2.3696262489428404 6.610612292661726 0.6309577088964181 -0.8146517226605905 1.4280480313786825 1.3993815166819255
Ni 6.517194343759497 0.843933431450241 12.383725615419232 0.8008078747989628 0.10565254243450836 -0.3432852094544604
Ni 3.401009764051924 6.160171939423961 7.415280831789426 -0.27730427457796114 0.20479093789958278 -0.5072318596441716
Ni 8.215918367257903 0.15173662521881648 8.015069309701174 -3.146310103418459 -0.9728347308936472 0.6930768525688709
Ni 1.6957792967992957 8.524114398420583 12.54053838856699 -0.45086145127424293 -0.15378847870978676 0.5501859946081944
Ni 6.7868845677042975 8.27682279406647 4.553312170931302 -0.4557033527475765 0.20238412823030305 1.3608885028130497
P 8.864019994546375 6.048851921858892 12.668330178969619 1.3645566956932562 -0.24990917039445992 1.4863259411839693
P 8.602285206858532 3.7492914716774046 9.333174787082385 -0.04630993881013314 0.6174697074565172 1.1719725842725106
P 8.017686844544826 2.996937170901726 6.332591764077 -3.1427812643295936 -1.5949414229015435 -2.0607507537348706
P 1.5838422888782224 4.878682970003838 2.8311013812143475 -0.23614245562767072 -0.3897848956778965 0.2838626445217692
P 6.600843278691664 7.288357502054567 10.318939344035961 -1.1156710814673043 1.1376822956310728 0.037921457636121786
P 1.6732404521276985 5.132826906645084 6.758478705647426 -0.29160989256735587 0.7758118669752575 -0.8948187192294846
P 0.03983794548652527 0.5721510492982634 12.020366907094312 -0.3475169881476209 -1.5823124212836233 -1.6409286882649354
P 5.847591537398161 1.383086714708768 10.443803234749188 0.16117757208500627 0.5000970483716033 -1.2354472077873884
