# total energy = -381167.69782340666 ev
CRYSTAL
PRIMVEC
9.30153282115323 0.00000000000000 0.00000000000000

0.00000000000000 9.30153282115323 0.00000000000000

0.00000000000000 0.00000000000000 13.61373349710895

PRIMCOORD
 96 1
Ni 4.452894990048356 5.166015620808763 7.135964971888534 -1.058331367205571 0.4768604464411658 0.25899339208391525
Ni 2.7932317578109056 0.6806043316876347 11.717599689775016 -0.5568551790982539 -1.448177455138706 -1.306325322855189
Ni 5.520543551227755 8.366338272040045 10.531040330682027 -0.083457751505024 -0.4842186865784499 0.2514685444617798
Ni 7.580200607204101 4.548161291067674 10.799638838910369 0.21983112006215688 -3.4919180474688245 0.6148944905301733
Ni 0.21924829472627994 2.566869650643737 10.365074937611583 -0.12389966157015436 2.027165204469941 -1.3724929198211975
Ni 5.9308806796662665 8.815406983904102 13.007936252585298 0.26922586844520086 0.6932113212642061 -0.34080255224192274
Ni 6.7032613771904 3.497664756746274 6.495057722752182 0.4461612175850961 -0.36675063956625226 0.5781007187405914
Ni 0.6418569356559831 1.7852246262483646 6.804116969391373 -1.0543497568500035 0.7464879212001595 0.34386627876891107
Ni 4.1722491362742025 8.108983456906037 5.983917090697516 -0.18502069725119102 0.033073642625517236 1.2127690494635823
Ni 7.44572834457607 9.221865373080256 3.932299349695883 0.010524553680407682 0.8215633621787592 0.661875487265402
Ni 0.3687406728479634 1.2345738724557802 12.071882989876023 -1.1216072444460814 -1.2329753492081281 -1.3250342121186018
Ni 3.7124650583903978 9.206099274639742 8.772894327312734 -0.037157839997219874 -0.6699315248006592 0.5645687456924277
Ni 4.3057354364038884 9.025575122112606 1.5172372287383389 1.1717280723618722 -0.5894937910688816 2.6753768210950053
Ni 5.409315819574855 4.881481726239251 2.2851606316473125 0.8543336146312448 2.3040946122069865 -0.4935489628404403
Ni 6.450138759572872 6.693606385933023 12.279982467144603 2.1601999955721443 0.5417658888652992 -0.18762136809883173
Ni 9.054930760270873 9.13809576685296 5.6735509786713685 -0.03275302606130488 -0.34844207106505154 0.11818512768388031
Ni 0.6641406182718766 3.047991445237005 3.2082670905693598 0.2362671541309931 1.0820402807867364 -0.07078401269209744
Ni 2.822624602101185 1.1583664125601274 6.387672454382925 0.8432781281480316 -1.9334682917354122 0.6736277427053237
Ni 4.926110481588859 1.093423109131414 7.217606387364686 0.4927961438348158 -0.3391765866027255 -2.93722130947447
Ni 6.378405337051785 0.49143812484717564 8.6644338017283 -0.12164171877391308 -1.0948286908006564 1.495769345985056
Ni 1.2077575528074012 0.4298815095849468 9.720206165569147 0.029668216488394065 -0.7444649772328599 0.023713541566855935
Ni 6.566798586499673 4.96222833424049 8.515744145904797 -2.9441753721948007 -1.9371606529853347 -0.06447863929935992
Ni 1.7955400263489723 3.5583572595925004 8.286013023483852 -0.6415457745691144 0.5189486338604675 0.053568420144759356
Ni 4.556718701430667 6.0054882758853605 11.5297022120362 -0.990761747685713 0.849775562946917 -0.411654184947162
P 7.7324760040003575 6.555060051849568 7.694754567058965 1.073882941786925 1.5696847052172835 -0.2285834123334902
Ni 6.401659169559917 5.998753965991005 5.965183803228965 1.039020325581785 -0.598120356395628 0.6142231754947615
P 3.878153265777346 8.060420153096054 12.477980479571652 0.20760989540561667 0.12069375303834697 0.0821878836536649
Ni 7.243401398689308 0.9077673008463826 10.938879997509165 0.24454070699369498 0.28586630521535933 0.9616740862911374
P 4.095892851850499 6.858531867613704 2.953567863107781 -0.4759466763776449 1.7617371125042758 -2.0930602645008536
P 2.6406959180905574 1.800786090962807 8.794227393255694 0.5630574512542238 -1.112722797472258 0.3859724639103417
P 5.694342695393541 3.9146338782161045 10.19525684957119 -0.785780291041879 -0.9234021872941324 -0.7547684160413969
Ni 7.784387859691513 4.858181386066101 1.5410472929200663 0.8838856172567487 0.25629990441215217 0.502379930868509
Ni 0.3889352311513263 2.8025425923471614 0.9283943804343967 -1.6406705495075422 -1.2535727137435055 0.2107715809630499
Ni 8.68370657811104 5.7590255558981625 12.441808678028599 0.8928351131405527 0.41561728335996806 1.600109083145412
Ni 7.5034536583942595 6.50451552150989 10.17769555526105 0.8310075383107945 4.237678603584656 -1.6534239925184686
Ni 4.637018835847752 2.8337120294410627 8.52410343361482 -0.08683078174231498 1.9759732549771585 0.6084106825780425
Ni 7.998992829142569 0.8523450465997994 0.5336633640687435 0.4305016566709683 3.007278214192556 -1.0765093236661782
Ni 7.629963808771505 2.4328903692648796 8.966127164382215 -0.718020409888086 0.7823848922070848 -0.658786049706801
Ni 3.012310764636526 7.492663880110485 10.543850401934108 -0.4349494080296767 0.46933842703250783 -1.1213956426559073
Ni 5.2894748683609425 8.462785867750776 3.9311152645445686 -0.860934150666898 -0.8654963161162835 0.005457937790777696
Ni 4.363097990434951 3.2211952912905812 5.833498279888708 -0.410292528712945 -0.24310963097412328 0.6245021888232665
Ni 3.741318413766489 4.709245239618013 0.30915133181592264 0.35636723944939913 1.8385745304793044 0.33006485410944447
Ni 6.526495043996578 4.539501563841646 13.272954600760686 -1.2577859804939049 -0.013082801325887145 0.06308073051056877
Ni 4.082126583005683 3.610771398065832 3.5992672620474084 -1.0102509667585764 -1.58505347436387 -0.8388504313939812
Ni 6.861712991900817 8.683092676932826 1.6425921287165803 -0.15274615348820147 -3.3434396681180423 -0.42996840987531754
Ni 4.996467277225466 3.015389572060603 1.2863769002107979 0.9166054760872729 -2.933373653593606 -0.47504139095455605
Ni 5.585868217509602 7.002082426452909 8.300089033377674 -0.6115111758802372 1.673351327570015 0.8223241516041838
Ni 2.6354219488777124 4.928370754108649 4.99053568962929 -1.3823811254691871 -0.5393757913665679 1.2095351159073169
Ni 2.1993846847512133 5.403883724300956 12.318495464544572 0.20662053490915383 0.7858409690764854 -0.7267019968224839
Ni 5.238409452173083 6.739137389983947 0.634608250986548 0.9793805024319651 -0.27062274879272746 0.9491337877322814
Ni 3.7591308494677187 1.0469340471811548 4.026860594513555 -0.1258480435457768 0.2055589264138589 0.11674762390640538
Ni 1.2691383690958686 1.0571471304187268 4.028657650689783 0.2973262262258428 -0.9121230148358871 1.826453064625422
Ni 2.1502260828290205 8.27331364047451 2.8438274465821007 0.5654622040409745 -1.605827473686428 1.0404017793103435
Ni 8.472152511485053 8.344433161817383 12.89211077316889 -0.6768457354219891 -0.27539085960533216 -1.184497713322715
Ni 0.4757343466777834 7.2178500875293725 0.9643401547254685 0.5594221684944818 -0.45017985182618603 0.10840465125834879
Ni 7.442761155548032 2.6399238908512874 2.3420246235094 0.007956792953231458 -0.8242751046829676 0.2810215755285483
P 2.209644275653801 2.7454311797071878 5.357820672562245 -1.3377382899488315 1.9103211641949875 -1.790060642039317
Ni 0.018443079638850283 9.106349634712856 2.2388603908170195 -0.11205844596085217 0.6303241948216821 0.41426411176618333
P 7.246926679697541 1.2938153361534992 6.739941972588729 0.9030408500289608 -0.2294269912807081 -0.010090551466782623
Ni 1.2085481831126776 4.922622406712639 0.8589965728504256 -0.6998820484161624 -0.028189575060338548 -0.9087756956302091
P 3.4024914710569876 7.035558643731617 8.198816732498155 -1.2536159082766152 -0.7188133381030265 -0.39792372273494697
P 6.039057508494101 0.9035844014548197 2.5964113194620695 -2.339477362581655 3.077169025646423 1.178411655029635
P 7.621722650530623 6.853788085782044 0.748718527717157 -0.4201753350442958 -0.9293494060165027 -1.1040008442182279
Ni 8.119680219859779 2.8788709721718564 12.578041720854147 0.18141472506748757 -0.021639689756962732 -0.08773272473129407
Ni 2.6133029033959767 2.908310324127153 10.997582902445997 -0.4811721864426423 0.4807304709195333 -1.5758790069534536
Ni 2.333289553866045 5.580789580489826 2.647489757796133 1.7880819210463914 0.13809909299898795 0.5451952262618223
Ni 2.1350180763687012 7.31788807497936 5.273552504165973 -0.9206847883629692 -0.02522920688043397 -0.36822388167766906
Ni 8.655755471436265 4.587097508219292 8.222831430405954 2.6000573824263995 -0.39262647889174956 -0.05346531890799179
Ni 1.4293479735439003 0.5449293808422837 0.08788274412133613 -0.2321045381128712 -3.0806513277680687 1.8002730637959445
Ni 6.954151626887146 6.445878657457383 3.6243572171703833 0.29886914523293046 0.5615304730867362 -0.582486763623429
Ni 9.035183605704967 4.20043278127406 5.264825805902321 0.5218555230946175 0.05371600146621717 0.8371771574566162
Ni 0.14814644629611276 5.380295036604705 3.215400436229555 -0.9162159539583382 1.3959269824744218 0.6730615857892085
Ni 4.785843363899802 5.6769209240784475 4.423156128730355 -0.35182127194992957 -0.28870506021573505 1.8038121872974546
Ni 6.548744310940358 8.287321749177408 6.525716505684205 0.7127419350979661 1.5213453946819477 -0.7246188890412101
Ni 5.977286027819497 1.7528738944630504 4.912964624995361 0.021357382629853542 -0.7006032428529031 -0.8653302228520645
Ni 4.875026462334993 1.4010527101480046 10.503839857720616 -0.17291337246469576 0.8776548058556884 0.4675044591475626
Ni 4.548831001443909 3.8671123461024846 11.924868540146406 -0.00024785434474796026 -2.4958251173781854 0.4842870779225402
Ni 1.3347978905658324 5.596174316077207 7.387723984767783 1.1533169168445363 1.5748595645500039 -0.5464203569181751
Ni 1.332649236442081 7.847359238123537 12.253341016316684 0.708788863987489 -0.22711942619345402 -0.39254780313501425
Ni 2.8999203413582184 5.154407307620703 9.874640448175459 0.7722326342644313 0.37393558735046567 -0.9862378916734306
Ni 4.205716052019908 1.0077001809734332 13.43154108769965 0.4596916479713632 2.2684902327398158 -0.9436043732736201
Ni 8.37147271825784 1.97981269667642 4.680564892755781 -0.11640052497963178 0.4811331056745907 0.564131401044693
Ni 8.420435987986965 8.841590799308259 8.120537821202678 0.8369683838799199 -0.6489261261935857 0.24171840705355144
Ni 0.6204010894773792 5.263356163687807 10.460888168771492 -0.23088197855967982 -1.240313020520122 -0.5918476360130387
Ni 2.3286108827654086 1.0042307091632199 1.9880947816625165 0.7803902303745592 2.8036255036624746 0.04825523546196205
Ni 3.057060439915177 7.2461174463262585 0.7808962509886108 -2.003291483176137 -0.6434195945530596 -0.8498706937638847
Ni 1.5057879717646345 8.750361363612353 7.3489524047503245 0.5537508291413173 -1.0558757065762265 0.27934547337770604
Ni 0.8038338313746329 7.158738845293699 9.252246970328782 -0.05013599742444269 1.1123206769378327 -0.030710541709979368
P 8.734902215760945 7.635237777984349 3.845403498226192 2.138065882677266 -1.1258102267838355 0.1573862233633741
Ni 2.2677881584571367 2.5827845736123036 13.28595628359263 1.4041689107682398 0.8596357435704486 -0.45146488918619665
P 0.6950365902954823 3.881334390064459 12.302146159984753 0.26806475825756415 -0.19261213644520378 -0.41819764249263464
Ni 6.790081886242764 4.166947262462349 4.115023314778289 0.2310174756962796 -0.5760248100481693 0.37891555706356034
P 6.153429158302101 2.3367962318082713 13.046299495303915 -1.591707489345278 -1.0703849559359953 0.1356200353308761
P 8.66494538604348 8.705221023947566 10.544190838042027 0.5410853178585069 -0.9372992569911985 0.14686064124170192
P 2.818820275102855 3.3641040443525623 1.632422762684124 -0.9647059311389258 -0.44494431445885957 1.6220022836740775
Ni 8.979206980091389 6.644205944152746 5.862822292834765 0.11312416822120519 -0.09771914652004461 -0.21681547316428468
