# total energy = -340888.71318537084 ev
CRYSTAL
PRIMVEC
9.04933573011551 0.00000000000000 0.00000000000000

0.00000000000000 9.04933573011551 0.00000000000000

0.00000000000000 0.00000000000000 13.24461756190182

PRIMCOORD
 96 1
Ni 6.54598170473472 2.388997453716171 11.413602137007688 -0.6880873697740795 -0.3186648398026189 -1.3914661184895907
Ni 5.064931241036256 0.6696146379889992 5.818903785605793 -0.5100477318264119 -2.0787178797362524 1.2418358849225517
Ni 3.0562140177678345 1.7674619358368475 4.896733954805782 -0.26390856999734547 1.1214218679081527 -0.017321264887266943
Ni 3.6973322979127974 4.246500278898261 4.797876297773196 0.5722823122866014 0.3880352599766414 -0.6879624141604409
Ni 3.9329407999221164 2.7319039280839363 2.6609761404860395 -0.798925055953953 0.0513295035119116 -0.687856741820512
Ni 5.497923851427327 4.365417598183269 2.8341496563698745 0.3471428926376538 0.3597361559216321 -0.696800067056729
Ni 5.57537711493546 2.962218568759892 0.517516119813318 -1.3093499686141257 1.4579607597777149 -1.0450855579392582
Ni 5.8732721939662165 8.132674112374527 12.379121000192674 -0.8622886078122634 -0.02190657026510421 -0.9082889858017777
Ni 1.94368869755637 6.72653404887706 13.710166057042649 0.07660756135241001 0.11109582493726672 -1.127821343676593
Ni 0.8292241047231276 0.26596359338818154 0.2636514881391655 0.19850536200118715 0.05912688806914333 0.1909774290552582
Ni 8.34331549742872 -0.25330628766685587 6.8407122311017545 -0.8852349321957916 0.84237901337253 -0.10080035654852963
Ni 8.696882089148112 2.2577096926487568 1.234140246442585 1.1095955646971858 1.0855068991790982 0.13271546008957144
Ni 7.127718244589885 0.8620496647242263 4.613829100217276 0.6910361679897583 -0.41206890388707745 -0.3724410050828102
Ni 0.959437709653328 7.859112696806017 2.4043749897226405 0.5757836405716407 -0.4192060291524909 0.18481500899828815
Ni 8.071681590345689 3.9889652366996433 3.633779718839159 -0.36257799624580134 -0.19887637218736073 -0.5055254184760261
Ni 7.8302724642087025 3.9748482731440076 12.42811319826566 1.060214957381529 1.0990345013518878 0.7891306955713506
Ni 8.306729033547029 7.658642764980374 9.011690376438793 -0.15132407632969422 -0.9442877724938898 -0.8453995453664086
Ni 6.969454414061349 0.949881611246436 0.21482127317364522 -0.39883466458499056 -1.1252085886440943 -0.2238127304177242
Ni 2.0874011964198664 6.725077105843432 8.973546521898177 0.10857588672889042 -0.19861720498870308 -0.5417090674854348
Ni 0.22146167564616168 4.680253033480788 1.266954042307387 0.3629778027873813 1.1617187677549865 0.7098147341488421
Ni 6.7596546172191285 1.983822500998194 7.07417513563733 -0.6799662833288419 0.6862937682087664 -0.7610365084382957
Ni 3.7225075495870144 4.421098160207518 0.15515628867917433 -0.12666976811612377 0.5855252933394368 0.23828726988481544
Ni 6.219246393106649 5.790570315802783 4.558863435706422 -0.4953032265273857 0.09031976873217992 1.8060349059803862
Ni 5.254225243380354 3.480528315306434 9.082138549249223 1.6793008602852306 -1.0431788278348484 -0.06101484912047556
P 0.42845979818272534 5.686720140312732 12.446258021102459 0.27994454041428557 -0.37333189232819575 -0.5908441344491888
P 4.230663941576234 6.391663384533271 12.37631389628565 -0.9199983038189059 0.9714548198269849 0.2101673717201477
P 2.73307129237796 8.797365911790278 1.3713743259410303 -0.5758813424917695 -0.9579801823793178 -0.4838939562491795
P 6.565863095075573 7.859347979531945 5.5851223444566545 -0.9811216534927877 1.5584369002176064 -0.4971791033938599
P 4.954321211843603 1.4196326228958351 12.499872619806354 -1.1130562695522765 -1.3553218073585496 -0.8893270999872941
P 4.129655257468536 6.406196617527086 8.017391006271534 0.2546176316137228 -0.8002031513354283 -0.6912788801281836
P 5.129154375878787 1.2416140927250205 3.649700214982383 0.31269242426926797 -0.5224435343876035 -0.6617605589540926
P 0.24219279860103757 5.899569563256395 3.3853374490640684 1.650309358148887 0.022440845502019417 -0.7189076975890457
Ni 0.7986400651532668 0.36670170236106303 4.871013028194126 1.2152627624197134 0.03498422938466878 0.2610122222861569
Ni 1.6386627420628945 7.0338856836229695 4.66055534465287 2.1567223214361886 0.46342926063692447 -3.699756256835164
Ni 6.177773287994161 5.885063478269418 9.08719803279022 -0.7935995299759816 0.7040248669399424 0.15317552771613618
Ni 8.672141205583298 2.308820340188649 10.207997160552274 0.12018261772988333 1.2330897632988054 -1.4372860050371827
Ni 2.6506137462760657 5.697407405671197 6.366992180852675 0.3949582123487198 -0.873912822314753 1.9478631270045035
Ni 1.017588740299813 9.193491528895668 8.930831847939643 -0.8219510845354812 -0.12895496460587466 0.8993245775196383
Ni 1.5157365671015108 1.27812816192181 11.345802704731062 0.47589602564536754 0.06843582417489505 -0.0696082472164414
Ni 4.15317448072565 6.941926335127858 1.4233853823743752 0.3546556560749311 -0.20300299276122455 -0.022402536064916257
Ni 5.97069734117133 8.076414392871072 7.878560623971028 -1.0143999559299433 0.48876928206360976 -0.19882263613128984
Ni 5.6569116288048695 2.7363019051916533 5.084264241638987 -0.6585011714765305 2.2443683999909476 -0.5079697662514607
Ni 1.3316459327346504 7.6961794091013855 6.606176980296088 -0.6687896978867321 0.6425253648735644 3.5449653050027914
Ni 5.360944058259594 4.76808588493656 6.90063150192694 -0.19289984288895165 0.5308818949629438 -0.2739695537777733
Ni 0.7385135645425539 7.183009685182793 10.83951409561228 0.2776734849919218 -0.062081342711776955 1.1054802569772317
Ni 4.88494900503751 0.7914910900193229 10.260883287739354 -0.4325140591153067 -0.7339586783848973 0.6192165149442949
Ni 8.313018321797777 7.748529815620202 4.325745310857687 0.1656626044395534 -0.7349706645891794 0.3164045830135325
Ni 7.260137172608873 6.369003848159354 6.79675327349649 1.5569340904198348 -0.37740220574282746 0.13233056594632694
Ni 2.456315461338207 5.477897671716671 2.554634682901844 -1.6336529805391284 -0.9140657403845549 -0.40540203338986314
Ni 2.5872955449947934 5.431637468065126 11.267010139552266 -0.2403194698234958 0.2603308799484162 0.2013333183682855
Ni 1.4754851222967231 3.294989787241559 3.785908099822361 -0.34053387196156837 0.9531243969489133 -0.7024552084599773
Ni 1.8767417126944501 1.4058595340934774 2.4586646688632348 -0.5278433652469361 -0.4816990054803897 0.00689364179603974
Ni 1.0359226942509145 3.523928928904402 7.8899772657798675 -0.21350594917507748 0.16575927791841777 0.15162438117893243
Ni 3.6853509775617312 3.156951221807155 7.053964349480178 -0.10384428558117599 -0.48282334889282014 -0.5999386405512893
Ni 4.265422439664181 7.352277507816236 5.426597893062476 1.5061707438240384 -2.284946578523626 0.6668631702879806
Ni 8.455228630949582 7.463412398474419 -0.13259177032918826 -0.3609214344789849 0.01682195665334522 0.8462690924555555
P 0.3287569332039238 6.031228347083926 7.875117351770439 -0.35415814761322234 -0.2847329629418645 -1.0781126635975562
P -0.39072859334604315 1.7483497390230638 7.867607308145553 1.1369217633159645 -0.5674532663290743 0.6989525946233575
P 1.6337399034896474 3.2525122058760756 10.39568671569226 2.79638681982219 -0.39161372135651906 -1.7164137059771276
P 4.203624526765823 6.011609387475836 3.528830049072179 0.964570691112642 1.2071830707353726 0.7710406708388592
P 7.322659032356238 4.320967261654241 10.180117967397015 -1.7053062832100567 -1.309496521494319 -0.13471217880462608
P 6.588305447394791 7.900621999260954 10.207705771945546 -1.7278432879703083 1.0699188149328542 -0.42245821754120144
P 2.9746523558915867 8.909315242653594 5.854279448382518 -1.9508746601373175 0.77840045363804 0.1932276585420156
P 7.127012396412104 4.239849017223009 1.3780491158888746 0.05455778064122217 -0.05114078453987321 0.45696036508312915
Ni 2.8712636965177785 1.7965645991669281 0.16598653354031861 1.2011512627189957 0.2136663860123417 0.45004949689590884
Ni 1.7698419111029582 1.2943536206751785 7.187536162856209 -0.5088434271056655 0.6146170684990705 -2.7907332210808393
Ni 6.953301349992881 0.8556816472536487 9.163381674511907 0.6642884675822688 0.09512438920967488 0.15147474297494556
Ni 3.0207949181801688 1.9608552872134477 8.980764271982776 -0.5402167992106245 -0.024741211500421908 1.8927553873970824
Ni 6.5723333700385735 2.145434585703388 2.287239484619751 0.5899617318442355 -0.38687286423742406 2.446661254059025
Ni 4.267042270738834 7.4413229702440935 9.942655256520675 0.7453386380870647 -0.6213001369462009 1.9495322871768102
Ni 7.483936291643766 6.235426605181954 11.181715626735825 0.6717230694834432 -0.36049771667800495 0.7801392907060177
Ni 7.6240652536046785 4.414691230593806 7.8931825404538465 1.2899851909342686 -1.687575955809829 0.6044918071396105
Ni 3.375501726186747 8.776172367785598 12.261906765869956 0.5245299846029869 -0.9417251539730361 0.7257792278978985
Ni 0.38169283173687485 4.8406344085426705 9.808632786231138 -0.33866982216963615 1.2559910933770113 0.553302428749989
Ni -0.26443425566965434 2.540039914425863 5.5710832051872865 0.5457693535977376 0.16189568119795344 0.8641004642100214
Ni 3.979961147765119 2.9475857930743388 11.055242112214307 -1.1760647520640133 0.06783881402084446 1.0423889849437016
Ni 1.4519387510327715 3.591265035197663 12.475251187471626 -1.124525703644457 0.39962836413087954 0.6180150384370259
Ni 3.432150567121543 8.630052745649156 8.051336874021471 0.17217752273993575 0.33220529749121497 -0.6719637247393395
Ni 5.784643000976537 7.895518173975455 3.179595374310532 0.28285322942064833 -0.0012685822997784602 1.3944393421853016
Ni 3.5889031586027773 8.804813514999438 3.719962876412755 -1.3210567155280926 -0.3201396245759325 -1.700884499993277
Ni 3.1877189628899516 4.47455258567107 9.090323673310808 -0.7410677786258527 0.5618893990880516 -0.1714964375125111
Ni 5.415194825257055 4.829422281718675 11.511639019300212 -0.17596835724093565 -1.459228570746545 -1.9161452270759323
Ni 8.091427240652354 0.09450492660293144 2.2571079118305195 -0.26409240387337746 -0.31584382541405603 -0.1394242395683147
Ni 4.840851592597373 0.2279319506091615 1.5303358602452974 0.20101398735565384 1.6134366534922535 -1.1628546811316425
Ni 6.105613885819392 5.891615197252931 0.10696586174146396 1.4657979964339467 0.30144179105611313 2.1471678449785343
Ni 8.267509213002075 -0.05045366577441843 11.220561709719979 -0.30099724731952676 0.2164784015398401 -0.12085598964782411
Ni 0.447374719480155 5.276468510316093 5.38851919373827 -1.5377701158968742 -1.7756069285078324 1.9407506843294384
Ni 7.390022286656336 6.27962356031383 2.6561546544716528 0.02701046715057284 -1.0555224370018659 -3.0426231693507537
P 8.940254921113029 1.649377155428198 3.452937795957217 -0.5831961309856278 1.3247315932765185 0.116165011930058
P 2.1149111766821314 3.522091913775047 1.357679061424941 0.2809848087533419 -0.6028802396781165 1.224139496084053
P 4.843801676007076 1.3406862190116249 8.002993513311909 1.0204749584794295 0.3912820490487132 0.40876915008988307
P 8.529243146924934 1.8020575458837684 12.306779706372092 1.1054416904298123 -0.00297296658539488 0.49007823068302053
P 6.724651787069641 7.870551057020327 1.1588018126671131 -1.003484080348388 -0.3515914153273106 0.0833155695002049
P 1.8418746225791518 3.5224629365351627 5.8875764787690335 0.8910952476313106 -0.06823682079021151 0.043869190579124445
P 7.211406500335092 4.068771327467049 5.762349057761368 -0.35743270459943605 1.049791962275992 -0.09796160154815388
P 2.388979355044946 8.579557452930919 10.389355800497695 0.7016815635187464 -0.4856099104990217 -0.8123176752107751
