# total energy = -340867.4893584921 ev
CRYSTAL
PRIMVEC
9.28122788366933 0.00000000000000 0.00000000000000

0.00000000000000 9.28122788366933 0.00000000000000

0.00000000000000 0.00000000000000 13.58401516863995

PRIMCOORD
 96 1
Ni 6.94693414793104 6.531079448645678 11.814208700352776 -0.572887292860452 0.09035704972801857 0.6571855379889003
Ni 7.906650242313568 8.056477105023108 10.306599445453953 1.2491504163060938 0.531884110975213 -0.2596899039303076
Ni 6.854938616544251 3.141825596435408 10.024487240850153 -1.223942806692215 -1.7331729277133376 0.3523072104474126
Ni 1.6958845324916272 8.693698372014918 7.382233019760322 0.6625840832966524 -0.5677939374979447 -0.9242827901268728
Ni 7.967989877799372 6.701649855811379 6.959878676545363 2.8054085637048267 -0.5380408746052282 -0.9488463383988498
Ni 6.263455240863386 0.5726489798129052 8.983938147929797 1.8865991379876992 1.6430228517898027 -0.20262426926556718
Ni 8.793100323301491 5.642763840840892 2.0027729750935137 1.0212246921612607 -0.44814302390181526 0.9381412932765198
Ni 2.5291903022688205 8.04560878709999 1.4809832681713804 1.2949631037648344 -0.5770717632554448 -0.47217538226067074
Ni 8.835534097464164 2.5329120746746017 9.085587084501755 0.8025258859313341 -1.285924904821966 0.126854116212788
Ni 2.25583029561677 1.3733432989611873 12.147736123401229 -1.2256042535550375 1.2711320627835077 -0.05977737716894867
Ni 2.192866445240662 5.783578631216233 11.265998121840775 -0.7259702608627819 -0.3482556660858583 1.0378044508968125
Ni 2.6638237948330628 8.04821681215242 11.799048742628083 0.6743751623943095 0.5828086657392221 0.48409758761955335
Ni 4.178835757140493 0.1808614327106634 4.139905646526905 1.5049191308051244 -0.1353377282037669 -1.080773755369487
Ni 4.763766585892476 3.1406468804864454 0.031725093360202274 -0.21787939565242476 -0.8310697590072977 0.21118244324822338
Ni 1.3525626295932474 6.022338220090846 0.062292817595714006 0.22191499917437912 0.8908664194499561 -0.03279056416745965
Ni 6.272003251800355 4.369035961409004 12.082329453830106 0.32691191030275957 0.01947224979199872 0.6420545958847329
Ni 5.455821347580932 8.871071919264002 5.892433513164373 -0.03196009784636432 0.24546964656586756 1.1755857555450657
Ni 9.19287993578682 0.2875974103190533 1.846040878793199 -0.5244952747103097 2.3150925059793868 0.878267499739023
Ni 8.35939782267868 9.164767096342652 12.589448323740223 -0.8635790444889128 -0.05642183043315444 0.6653706449028541
Ni 3.1675717227537046 6.702243854399833 7.498145347437528 -0.3256075896690392 -0.2823536640764105 -0.15710854422195525
Ni 4.226810424386086 0.41404857232734416 1.5869934537545032 0.21618915243419543 1.0420567984152636 -0.006847104828820466
Ni 1.8768035088155473 5.064023591127952 6.196239659965861 -0.027916523904609983 -0.1560639050075248 -1.536052104764503
Ni 4.253187674204615 5.509633907203674 3.833803323931925 -0.15013262712475434 -1.6505109326367318 -0.3590944085725751
Ni 3.4734438708956588 5.323220443936556 1.5539569228857302 -1.2407652775661921 1.0155294415486962 0.783774830576076
P 2.142534346097143 8.809843658513534 4.755587039704908 0.42476681106972003 -0.403274445523899 0.6418175401732623
P 6.915647128529822 8.481975000142898 7.49897416109298 -0.5030779853767982 0.5679520603423638 -0.20316985735639206
P 5.018369230868506 1.8672252815767287 7.0990738926443715 0.8709539967967451 -0.1043245676517042 1.0833320030149665
P 6.1194291456192165 0.9512887394088387 13.58713949038084 0.4723854413889477 -0.5047461171078405 0.7783958256523498
P 7.220730372296487 4.615601062985019 0.7669264275174754 -1.660763720712991 -1.2953166304495112 2.3481545786406786
P 4.056787609669116 5.267468107673396 6.187287915613303 1.4844708902531014 -0.05091684145452522 -1.2585418848233227
P 3.3453907689441316 4.558623604633173 9.17081288822576 -1.3590429649638789 1.350315355282894 0.36104253343788145
P 2.5069246364297455 1.7487968130037428 1.1463133259629485 -0.10101658632439377 -1.0203931973989004 -0.7819740299219113
Ni 1.1051993424139976 4.508894785306052 9.57021011411977 1.8844239847132516 -0.19930446086371484 0.2190837003731711
Ni -0.19741914336381444 4.415126539381845 7.707352578413769 -0.3678950375833406 1.8387061709611623 -0.2466243289956011
Ni 3.271178070299179 3.372807516292454 3.1468727281916773 0.20440758641823506 -0.3107209023651939 0.27791054070339233
Ni 4.587961566166026 7.801995116010355 13.592573649342398 -0.13314560564845457 -0.2647567769302537 -0.6804697053278216
Ni 6.231453566910435 0.4457569594772462 11.369726053472323 -0.29086967196722163 -0.3965458685508138 0.2305701037462158
Ni 8.100200969870077 8.042026233113377 3.1335745847926666 0.26661979828092147 -1.1389022840811032 0.8676912668850734
Ni 0.8478188259141506 -0.03692165288637899 10.85725469940656 -0.8055299628649804 1.3968060426452653 0.3371708690266064
Ni 7.333506573051215 6.929271971152483 0.610959104399795 1.3796336446310369 -1.0230460616407153 -1.385782437841252
Ni 4.208377905688128 0.6199618955060487 12.61506729723568 0.9190922470648687 0.15984676908872472 0.4898864263871886
Ni 5.406890713857047 5.118838523368709 9.915598018358619 -0.21382682284960594 0.5050983582409365 -0.3579757215870996
Ni 7.642933431495948 2.3856561121057145 12.440472549633203 -1.0269122294643411 -0.3725248230458681 -0.9579768399452083
Ni 2.626503977267861 3.2093094048205324 7.4791550269400995 -1.1512636338599336 0.015632821441250496 2.6050062417912425
Ni 8.233655746485356 4.87109470584373 10.160150949716247 -0.577925626615308 1.2707584814941726 0.6006132980208108
Ni 1.5190028903236046 2.807079548157831 5.319119997430635 -1.0437215877121961 -0.24923836957968046 -0.7705809575936213
Ni 2.36610056482646 1.0663759659217718 3.2190314910924918 -1.2087087633512794 0.858863127070482 -1.4253085209603324
Ni 5.759939343641358 7.44948479744683 9.464377199990391 2.5078416822230873 -0.6228433130636047 0.012537213235062279
Ni 0.3992960605094162 7.465903289680813 5.200762066190028 -0.39298566200338125 0.20166267668324625 1.1456876824340527
Ni 0.4179930942037955 0.6991938822234364 4.4995151763452474 -1.4599708482292082 0.45579488402011825 0.18612267206611816
Ni 8.873939818698883 8.937720417134114 8.211904260674412 -0.910890942200999 0.6699387238895108 0.40517937585609576
Ni 7.596536573000936 2.2623642800897623 5.457336972104284 0.7887712553494028 0.14930807434092994 -0.6198808880011711
Ni 3.1278480671508535 3.5264211200033864 11.325876892048102 0.43329490314538927 0.2766540425884719 -0.14397174972968108
Ni 0.326263005936221 2.378277535889764 13.501492318908152 0.9114118477014754 -0.7788054023859426 0.7142352318140409
Ni 1.0702369567467218 3.3269025628785056 2.1537321476122924 -1.8517984853687464 -0.5150562407845969 0.9293128963516124
Ni 5.363825816194144 5.63873578791294 0.3917903314706251 0.9977870299636107 -0.08378479582713957 -0.2176775640542638
P 8.155804806486124 1.0253807820905116 10.524622914854762 0.35641146242377325 -0.10760658083708564 0.25666448684042253
P -0.23238524152226803 6.457302967714122 11.510035016924684 2.102585173272153 1.275397522928081 -0.9344121652513908
P 2.4429955383474 0.11137287908950771 9.302998920981015 -0.5775132216682376 -0.7212414879285449 -0.11244822520010313
P 0.06299633467391404 7.638784722604716 1.0248266927822196 0.2590556127804184 -1.5666135224911277 0.282354692517675
P 5.388625257262092 2.536104817087541 3.953043899950063 -0.5217632204911272 0.5504490184615939 0.197597248364621
P 0.7517590448104241 3.4919320769612847 11.66463428704333 0.515184538832345 -0.2587421953050576 -0.5688156938942397
P 5.1690221228651145 2.695166501601948 11.449518626357564 -0.2107327573053145 -1.3311624365035266 -0.48855048118458444
P 3.660655519766012 5.139053037832029 12.84667477185619 -1.2509437607610907 0.08494230647035049 -0.022495095778722548
Ni 4.4561588481248835 8.685317423180951 8.25208548081493 -2.40002067138235 0.6454962745764302 -1.982719058341424
Ni 6.946637148636814 3.0454400442308267 7.578834486942217 -0.7282827110460425 -0.18497930249029432 -0.06060835771067627
Ni 3.602499345465202 7.24960427243211 4.979288764362216 -0.6179790429927681 0.8431765695731608 1.6879724199172996
Ni 2.3017630927145527 3.6745123930872863 0.36250341669146696 0.8630293426330298 0.6021901555896274 -2.1930797770193005
Ni 7.771784719050711 9.176331506361613 5.586263437605398 0.3639147127793539 -1.1224253694720023 0.40154897819236
Ni 8.813259150397144 4.555328768712843 5.39740437077488 0.4084683310200127 -0.1397872793346883 -1.2997702953454906
Ni 6.642806870642669 0.8133604109242661 3.6568845568521238 0.0630097680633173 -0.28809545165619416 -0.5026853779240698
Ni 6.37636137880934 4.880858557641441 5.148165347428028 -1.0589168073953956 0.1697429451565141 0.7749510616368588
Ni 3.329556994070658 0.7785483811496928 6.347226676168474 -0.6686058640107002 -0.0558009090197039 -0.12809287371589553
Ni 4.608742235533966 2.8699877111662717 9.117387355808308 0.9088682553440154 1.8468316282817743 -1.7161465683586703
Ni 7.464659605136236 3.7634544004803057 3.3399157725796167 2.0067874121445373 0.027271177011127228 0.6195111633665782
Ni 6.331115392579457 8.492722662102736 1.5958635233011491 -0.2590350439551281 2.7394854786494562 0.8821395810999195
Ni 1.1917375117693676 7.447331552563685 9.551831426543892 -0.5379226038598091 -1.618502498050935 -0.8144753449837263
Ni 1.828429748768337 2.2616589067659736 9.762587694464084 0.3489894589280893 -1.0909802635888435 -0.039003377846390894
Ni 5.833929292815641 6.616485308191808 7.176802320434734 -3.7854017600201257 -0.6150261310120312 -0.6570173878421524
Ni 7.427970911071267 2.1469336481428796 1.3940190904533536 -0.9966778560598318 0.47683679229208203 -0.9091289652045698
Ni 4.20943596567381 1.0513218141956446 10.020248504047858 -1.200487660993068 -2.4466602256177605 2.686220448677729
Ni 5.832202984417948 7.175308042735655 4.132637516923495 1.3210839692216023 1.0651525038924623 0.038839084354384726
Ni 8.600561249590942 4.842053743605104 12.917868287050768 1.7368719738314795 -0.7217901613431634 -1.392358548396873
Ni 5.5434918267455435 4.049427595909055 2.3621244867749973 -1.2435412976494324 -0.086204975232858 -1.2836502498551763
Ni 3.8123571905203577 2.990105363225173 5.695600943406657 2.5290627963853924 1.3290376768510401 -2.9024311983784785
Ni 3.5088795991881088 6.988950266836206 9.746286145702204 0.2913936627914917 -0.3350314540861004 0.7660419320726872
Ni 1.5160514598372243 7.126860032864888 3.199619802846379 -0.29390768746259704 -1.3160836877935334 0.30201797527455726
Ni 1.1679125996356017 -0.07464613198996514 0.08742638286966747 1.5332300619346755 0.6917187958790797 -2.0843989892814294
P 8.751706046668613 2.0537594008071265 3.047084677822608 0.2410344936126494 -0.1790444250630981 1.4174039214012752
P 4.69247747405007 7.295305038831278 2.277930755598431 -1.352293047834555 -0.3621545355551376 -0.4830272373735101
P 5.0944010501906 7.442282564561827 11.390808362748464 -1.8638474461134804 1.0937405999428003 1.2687679334267052
P 7.946643053526812 6.334614415514568 4.441728394916633 -0.8864832027805959 -0.49464245301493526 -0.33980727820818896
P 6.968188159924154 5.122578858230379 8.24493986342039 0.02592391895461342 -0.6700523666492395 0.774403416663505
P 0.8200707387282057 6.5836761674076785 7.172591427316274 0.5236313840481175 0.5574928126822528 1.8423455674859626
P 9.411536384933449 2.4080517151360135 6.998457956742644 -0.2916955103026267 -0.4980242250029746 -1.194529129416788
P 1.4081664662092943 4.660531487464786 3.7668207018558086 0.3249735556294661 0.7913215325750824 0.8144933427058553
