# total energy = -340852.6790433579 ev
CRYSTAL
PRIMVEC
9.43599066767570 0.00000000000000 0.00000000000000

0.00000000000000 9.43599066767570 0.00000000000000

0.00000000000000 0.00000000000000 13.81052614669734

PRIMCOORD
 96 1
Ni 6.559655316690859 4.553025867543555 2.983847054568957 0.04749547447780207 -0.061178885502165596 -0.8448547286065321
Ni 8.583033649120804 1.5699978569570956 4.893055562553843 0.9549874182995811 -1.2504074286416464 -0.22265496266419718
Ni 0.6491791672426775 7.2777908159069895 0.14704104123571027 0.9379767426741975 0.1493895783111427 0.46490790206498
Ni 7.132872872552178 8.929542095264534 1.5243229445460416 -0.8289822803506497 0.09681488953822036 -0.7737999787515512
Ni 7.218551667034642 3.4059396724707756 5.083557832810124 1.0339786493928191 0.21291819499240752 -0.1986514006607482
Ni 3.2648904852544884 4.0936063580983735 13.690139940026791 0.6226779911303341 0.8471047009829733 0.5612355675541366
Ni 5.283088458855042 7.24611419552399 6.644796259710163 0.7400735330333834 -0.659637856184135 -0.6994935547284921
Ni 7.803601955085499 6.591473476932585 5.642580828039287 1.4607946296820842 0.5417743735057315 -0.6343114616042045
Ni 7.778653195987301 8.976325736568946 6.108851810245891 2.198707150508407 -1.1809801870877596 2.032131547336281
Ni 2.181129222975963 8.918124546660593 8.324584697883317 -1.3310037994384754 -0.7965398435512282 1.1357817361742504
Ni -0.11130600130349194 0.3718308704689665 8.280321409663298 0.11489283008585374 0.291156349969705 0.12429612567762464
Ni 5.612819713744387 3.2684761616755615 8.079696208710892 0.41610373607808343 0.0005407029948184237 -0.730322881404523
Ni 6.495518888706574 5.7530857137423865 12.820518104411878 -0.7736593394086289 0.05881604169694387 -1.354462544682048
Ni 1.453718145017953 0.6505813554431283 6.126529195001778 0.05928475380324629 -0.48708778059612884 -0.7577465248331142
Ni 4.184088071786959 1.4902165565882366 6.685316290466396 -0.8166672104287226 0.7480601507832859 0.03765097758355451
Ni 2.2417837704355756 1.9637617439343265 8.135242110869537 0.3908393050843398 -4.930213981827761 3.706740658572796
Ni 8.029990241123308 1.2410120453237103 2.2842608256384684 0.9942072830321524 2.375996026332979 0.9877625558480732
Ni 5.2041280896667965 1.131724402405659 12.799056887432704 -2.4762219984352773 -0.5028869524119145 0.7914012367730822
Ni 4.421610826711254 3.362005700322058 10.057750647579427 1.8429816584080647 0.13115171514687735 -0.5094610060850066
Ni 1.9967499670081916 6.191727171926512 7.714739457380746 -0.28221868116044296 0.3616665401751255 1.233341474298295
Ni 3.8432412199922896 8.54989445019763 0.5454672511593934 0.5903278569344027 -0.9507497260691496 -0.12004840614486421
Ni 9.192089097211682 3.9354119759950117 11.047191635200704 -0.2816342694118827 -2.373369387343409 -0.9040746906101139
Ni 5.910261008862918 2.0365887192444214 2.1178995936865856 -1.3124887713534235 0.6839450654709318 0.5823111572775133
Ni 4.802730486308914 8.87080305389302 9.918319732747914 -0.7338535202656006 -2.471206290388241 -0.6820946425257542
P 7.799299143380212 1.5385854443103857 7.2744872756043115 1.207879582581765 1.472895012490044 -1.1365741501685587
P 4.486539877904408 9.578285319742333 4.905415766616902 3.974860695548329 -0.530968284029163 1.5072223250170043
P 4.3910287812357405 1.5154012154509784 8.91006809790188 -2.214156909404574 0.6039637025502824 0.8408803173398163
P 0.9886370412237101 4.464242632159688 13.462845798893133 1.647170298299273 -0.985498956624877 0.8651175926206262
P 4.46857375183672 5.204467785327741 6.988139874612768 -0.534655245962447 -1.7405159983419702 -1.9731491552648017
P 1.5603448385919456 2.7094408996586417 6.455495191054941 -1.5953126901980332 2.3136146358822796 -2.7014038412863863
P 7.947415887542245 6.196775426887759 10.602175221779534 0.6915313624586219 0.5270159842496344 0.004201182565541152
P 5.333287928750055 8.301595794028954 1.9275492428786705 -1.1372086984287642 -1.1404901973935133 2.1714300599600085
Ni 7.817048241664521 2.145895234143637 9.39277374490475 1.506068156807903 0.6040529198299791 -0.5076272953103774
Ni 4.364192824021188 6.175214188408416 8.72365349876562 1.3229421054762636 0.3472035706722601 1.3956670439448158
Ni 1.6311619479081236 4.926087191184384 5.715956034402184 -0.27058983867226305 -0.22422693513700737 0.20971228646060014
Ni -0.1935651927991236 5.448265473988913 2.270271026001937 1.1320446377293214 -1.5370311808483206 0.7746368728305497
Ni 3.110385575468599 3.2352614748277335 11.648212337311206 -2.520047994481292 -0.284054191707285 1.6023888803185242
Ni 5.354179211898091 3.4360876623795282 12.8296889436583 1.151037119671424 0.7489986034371552 -0.6080597269965269
Ni 8.002097452963598 7.99309551794859 13.486130992851765 -0.2502377573784723 0.8971350260674872 -2.5398277482113802
Ni 2.7355314136172337 9.32780694974927 4.218701172439005 -4.510669595499245 0.9387488449535316 -0.40650786485953216
Ni 2.066878249011901 7.994916664130871 2.367496642159313 -0.4097675094474104 0.9651484179929828 -1.291005404668667
Ni 7.858642088148961 4.552978687590646 8.956209148247673 -0.34432727756572956 0.3321299641685893 0.8648008327111558
Ni 6.040307831060861 5.150314635378966 10.432816175619823 -0.7813129992991448 -0.12174584845194517 0.4703429570376222
Ni 1.1563240298523314 1.8125688668426378 12.244632994013095 0.13581029696481126 0.6681831746509848 -0.5144641157265527
Ni 7.502056004063899 6.218497077206992 0.9145078992133308 -1.031659000120707 -1.3958174534797512 2.0774210153016996
Ni 2.9712896383027383 3.9093120260458383 8.325496214573517 1.4382725373201681 3.352289405199188 -1.0909843773539016
Ni 6.6199229885366195 8.795937904617263 4.199531957572141 -1.3548132431532474 -0.6656341829768859 -1.5673773972403457
Ni 0.594286235632293 6.985086388060508 9.810762650502557 -1.9864451010427597 0.5684171729042404 0.06490827063761079
Ni 1.4521423345907976 8.980732344170631 11.480511194696712 -0.5420296840496471 -0.16912150952243132 -0.5153488323243511
Ni 1.53546213142782 3.82425600694177 3.5615967167066995 0.8853737717665009 -0.4665192124161579 0.39494792793607464
Ni 4.242562905422183 8.921814018978065 7.630854444707876 -0.19441782219537482 -1.0623111777889254 -0.3287116825156597
Ni 1.7679555033720327 6.609175395263984 12.221708254894684 0.7824962209739685 -1.086678036669064 -1.3600937748258963
Ni 3.1147827470797034 1.4083310303196428 2.5671140793175833 0.15929346768841599 0.2471562902396711 3.2100544356549556
Ni 3.6856979212390706 4.077914305760891 2.437337126450278 1.1244750529121796 -0.5554531565444046 0.43110432325197373
Ni 2.6571088958921494 7.646983383409293 5.988326846144011 -0.1984811936314711 0.2972763468245138 -0.1275542276036061
Ni 6.6286229718530105 4.934164399122378 6.575964482812389 -1.1555082680689004 0.28654121979519687 1.1032009740247515
P 9.099078538047182 3.0501933915474932 3.2614803182582377 -1.8610534283081108 -0.2447078286991785 -0.8643876564331372
P 3.3744234639276662 8.476520187433792 12.274035540665887 -0.3098791231901889 1.1730259652376895 -1.4948383495303545
P 7.125342952067926 0.4891730749476162 12.582646217836057 1.703076365438273 -0.2810984515130707 0.4968384322249895
P 7.1782882952222336 3.07886936692549 11.325073065442284 -0.7862014377396976 0.2455058991204417 -0.0769942552678674
P 6.508153680095562 8.038633608496209 8.308177397459739 -2.047748685048248 -0.46692441827437653 -0.019354750377527954
P 7.8540845046979655 6.582877289512593 3.4749903643500466 -1.2026597289437222 -0.4863825269989882 0.6290805522225682
P 4.001614885916705 1.7640867472335073 0.9125263411911592 1.4844174113073467 0.9282494880841047 -3.723675486654922
P 3.6497562331131115 5.310622679372645 11.097890268997492 -0.3052876471647646 -0.8706925156052424 -1.7752032653115104
Ni 8.210312021140918 6.901360843628469 8.007274037396757 1.6843101405743637 0.07673560228984204 0.4019369576593981
Ni 8.876068336637648 5.4538421444227385 12.558946783890887 -0.8437506969090759 2.7758267362826516 0.8584023853839797
Ni 0.8737283787160987 1.0794678865638208 2.456519551703957 -0.545080555060829 0.036750063035839935 1.663099825045336
Ni 4.70830452855715 6.220497507210327 2.1351070661115 0.636344175763517 -0.47304210113634015 -1.1062335902034883
Ni 8.587006201155729 3.769734853360307 0.7874702144119131 -0.08317981525328899 0.5821982858487328 0.6550402095111235
Ni 6.257807413970642 8.262577972973338 11.67762809435081 -0.5789329848338998 -2.7311903285201997 0.9220891249096637
Ni 7.846875407893494 8.759911292576069 9.816839428437218 1.0723271672640307 -1.538159638025809 0.0376661470922061
Ni 1.5671859317637284 4.8861068990894285 10.02188444737812 1.2621956795258262 0.23371687690531362 0.1256410697412933
Ni 4.18526757060968 6.575215265160196 12.626715124650095 1.0854827308093822 -0.37061526472798106 1.3538783900438038
Ni 6.387023868997391 0.8102279364970242 10.594717014823704 -0.49651164501319 3.3247523761211837 1.7309466094859804
Ni 3.9094913098668918 7.533468416710609 3.6933901407613288 0.9521131820755795 0.18673588017008486 1.3071277641518262
Ni 3.448854557636662 0.9354274903331132 10.904998805925905 -0.9803372099182793 0.6677720552554951 0.14837193567990575
Ni 6.275698052113677 1.1948323074165317 5.853397842419059 -0.6620202403733824 1.1719368459385686 -1.7879901326635335
Ni 2.0368340549995474 0.3306757975465799 0.5814466832476796 0.0831744159366503 1.0653232251423717 -1.5614281216354464
Ni 3.2868574713288474 3.0856821521255275 5.387969494171408 1.0096156471674225 1.1384412852842845 -1.9541381613799376
Ni 2.859973257409606 7.13613772529347 9.9817928105943 -0.26364734591615885 0.8926834180540367 1.5701282205126055
Ni 8.933250439563169 7.732209250343834 1.995786552369793 1.0298512574880072 1.1416021995107692 2.397724676259322
Ni 1.8425847528832457 3.073094540689447 1.327510827387731 -1.52345781303926 -0.4671033670544019 -0.8961919454279276
Ni 6.126194217336124 0.6808699416115496 8.272905664665085 1.9621263217917368 0.19722366707528616 -0.7883552508579068
Ni 0.9728600649709918 6.771408381336343 4.008021923521726 -2.7643475319984585 1.1419207591924527 1.964391720787146
Ni 5.724324814449154 6.26526184653024 4.598462992991949 0.46781247730628467 -0.5537785970554593 -1.186841530964543
Ni 0.46764486243530967 3.4732277213093723 8.141526480596994 -0.7375132285053749 0.6332753070302062 0.5318671416943486
Ni 2.4905919700956676 6.028578894767722 1.1517909799768493 -0.47162413774289097 -0.6553564551999617 -0.25774692127132387
Ni 8.527701000349309 1.7698332654978048 -0.22764893437953232 -0.12180781203813215 -0.7134178781190682 -0.7859106459721561
P 5.567121211356878 4.714362434510646 0.8747418041045806 0.6942384769771399 -0.27092099675943665 -0.4949437863054379
P 0.5107730009883442 8.934184602630765 4.079311775966051 -0.4847750733025522 1.2034459722904434 -0.12617483075757627
P 8.739633348815845 4.976230045135906 7.071058641850065 0.7639158868686199 0.146570877915425 -1.2490771398659972
P 2.54121605956686 5.700706530022986 3.5403563019071367 2.9125227782865264 -0.7612650795093341 -1.0323210591847385
P 0.8508659171355298 1.315745090731323 9.990548466255124 0.339793394251118 0.2865458477808871 0.9266723734049719
P 0.004751964856978996 9.464487273326197 0.679865008614591 -0.9571443167415838 -0.12094494981720459 -0.1655906135510374
P 0.5613517977047437 8.306153377479948 6.9073206152799145 0.13281907554697125 -2.4846343908686888 0.32057028435544793
P 5.366153483946357 2.8395254658189124 4.412062547841562 -0.9453900044191331 0.20021694537565518 -1.239009214107034
