# total energy = -340893.34266137326 ev
CRYSTAL
PRIMVEC
9.07061474318408 0.00000000000000 0.00000000000000

0.00000000000000 9.07061474318408 0.00000000000000

0.00000000000000 0.00000000000000 13.27576154844275

PRIMCOORD
 96 1
Ni 6.2947436833919825 2.0133953157391806 11.476697076017528 -0.12348057175486475 0.015790172954721193 1.1416271392114339
Ni 4.861650025630851 0.26466240115798967 5.835480310459247 -0.713537691526384 -0.1128223207100702 -0.2689430470974594
Ni 2.9441583210865243 1.451298381838315 4.750280108993046 -0.45065087792533354 -0.06321468498527177 0.7082815853337673
Ni 3.7334560166641784 4.125224944226545 5.03665121275887 -0.8108326060248165 0.6089724686187834 -0.9043004334676749
Ni 5.040286715205376 4.580397469845472 2.6928288167501857 0.5989793619618136 0.06629923744786648 -0.028618949288273292
Ni 7.28365840077661 5.962822672850673 2.6271276319428765 0.3164099823301712 0.8994179085643929 0.15466265378462396
Ni 5.044649680965777 4.673561755344606 11.635275914893557 0.009336704019893598 -0.2488071955795328 -0.3348841298749588
Ni 5.664317807551192 7.8239223646456955 12.61011485209733 -0.6300241470827602 0.9089369037984217 -0.24320321912919407
Ni 1.7521343951636246 6.5855566672677215 0.4423938433668416 1.1699506687464754 0.04432273317677528 -1.4568233037391622
Ni 2.652039168667131 1.690118601184696 0.41420418642260964 0.20946006124047797 0.46228871927457804 -0.34514745947417974
Ni 0.4549865780137549 -0.12338666723942757 4.6438745398826144 1.6024464730293368 0.7109221082804079 -0.14464692141983476
Ni 8.578515887667642 2.3602102759241053 1.328186554229948 0.8893253002150814 -0.3501469695713002 0.1715311474051885
Ni 7.1957822837563 0.5177906084263194 4.949416388211035 -0.815474475672202 0.2595366661818949 -0.9605044914630684
Ni 0.922780864247233 7.325437652943781 2.4969978695968322 -1.1607355779061106 0.6754881929528302 0.796177575115803
Ni 7.840376460049788 3.846103982939491 3.801501048358156 -0.5920751786428126 0.2827619552584227 -0.413033838903508
Ni 7.60581035908517 3.8696694404145906 12.622554293352662 0.018398300001529602 0.11571763997999426 -0.44859553805820157
Ni 7.833646063804013 8.78269542876252 7.074295003274104 -0.18914860337663553 0.40261984265903566 0.5116577566260091
Ni 6.856749911143983 0.6542507529016443 0.45469903952185325 -0.35268027751611514 -0.07935889884530203 -0.4084801580945546
Ni 2.1505430128229013 6.0473517329778685 9.418502900415465 -0.66419873608194 0.8552867225731334 -0.6465020901331252
Ni 9.147442994578034 4.769873544209351 1.3078475144699726 -0.10169612888992162 0.14126592076274383 -0.6073986963737603
Ni 6.316794348181038 1.9419460822783032 6.906728092107051 0.2523625170309589 0.49665279857674466 0.8858064884285455
Ni 3.4775195470269913 4.6299865214299105 0.7273671653786584 -0.0702602789781435 -0.7058513786257198 -1.0466400469105714
Ni 5.829194374342911 5.669252222049442 4.828660199288689 1.5547581658144385 -0.9601095700174948 -0.3351543528172099
Ni 5.426749333059146 2.737103395072629 9.37878177076604 0.6699158410713753 -0.4836674420606702 -0.9961975739893039
P 0.25429287421975494 5.675266039719184 12.27040127630704 -0.5909757749310467 -1.027405881271308 0.5680279078856219
P 3.952402518794261 6.390973836722749 12.777641852558881 -0.6979570634793076 -1.1789377027364343 -0.29470138700848597
P 2.3152835203913233 8.594208051421267 1.2889452601080171 -1.1471012749521277 -0.30293765887534924 0.7739228774826606
P 6.275015096013868 7.61004633623716 5.732699359057458 0.5799202884478335 0.3696451875052279 0.5690257530225169
P 4.669897226930464 1.1320490202934315 12.724406413790074 0.7925338077156286 0.7518890376110728 -0.02968261466609727
P 3.9319119997656813 6.32606451659503 8.279428688892446 1.2312681367090343 -1.3290803571635175 0.5059954161339092
P 4.712275139680144 1.0861970620422272 3.4626237832603985 0.6455991187028817 -0.579289339732054 1.6371152280561159
P 0.29854931131242574 5.574555002634492 3.7906544070768926 -0.5693471409176776 -0.45430904350321116 -0.38031886516899016
Ni 1.6904904963950422 1.1688485048879194 2.664790639074558 -1.3265905008621282 -0.1485421427091829 -0.2582184615911037
Ni 2.040607160398649 6.513717397366724 4.938198758780914 -0.4557622310099699 -0.6904926367814624 -0.39697215745495507
Ni 5.980773419711036 5.803560816673691 9.217826430789748 -0.8247577007463408 0.03896841084339741 0.06252948599278908
Ni 8.380123398870344 2.3338692102937397 10.3200594328898 0.8343651419291178 0.13265375361370058 -0.38942931211069054
Ni 2.4313873909383883 5.254951887109035 7.00186251515953 -0.3520706689565743 -0.20758187038115863 0.6633417873982833
Ni 0.7453868489121585 -0.05620515808264334 8.87706338485709 -0.7374759475095364 0.3424298034327006 1.1468979006920699
Ni 1.5265663441664044 1.2248867636566512 11.307948263730767 -0.7089495579350694 -0.15277674961582077 0.07694334742527395
Ni 4.177453544742951 6.914466233666715 1.6152751436332942 -0.220905069852626 -0.7163203964778437 0.6669708995104384
Ni 5.607290851759832 7.947545774933661 7.868225061874288 -0.6567309669499851 0.4257368882924732 0.5906932106936215
Ni 5.772258124700415 2.8702509509914083 4.645892751694858 -0.5698369360699025 -0.45857913163347475 0.006914981952278413
Ni 0.7720462931250397 7.666964444649882 6.805673278718161 -0.35442322834915085 -1.0597403317379555 0.10272122772032631
Ni 4.866257897993188 4.5572401900402655 7.12050797199779 1.5497321733547569 -0.2951384745459046 0.6690149265236607
Ni 8.039059208523453 7.3625636796741825 9.268831405357968 -0.002095191966131875 0.482831062202304 0.5888607854705729
Ni 4.64371036175317 0.5248511750539627 10.377265079794423 -1.0022442944040157 -0.4705154780597445 0.30090623026761726
Ni 8.245796663016321 7.0797509781283265 4.844869388090847 -0.7194139478015029 -0.4109530451150793 0.21028435691398625
Ni 7.327669024205857 6.094800119449094 7.150644182896663 -0.48864484067060365 0.034561282914637254 -0.4798902344064251
Ni 2.0560907000098863 5.2962413260723356 2.4636225421219944 1.6161715359249134 -0.0043582769686957195 2.1127523436131423
Ni 2.353888057348222 5.158222849959512 11.525472493446648 0.41980586752001897 0.5979969434438862 1.2582562352621038
Ni 1.1287473164747492 3.376028437062061 3.889147678821838 0.1473298675686366 -0.2977975094353065 -1.0540936749751395
Ni 3.5324421201646854 2.761730114489448 2.811554094999446 0.48230398605424035 0.7506024575891653 -0.5283203048833546
Ni 1.1983370738838965 3.422116231300314 8.181997586150707 -0.43927426065727576 -0.13588460184617243 -0.3488107672583799
Ni 3.595646164693744 2.5373593846572446 6.986688283515923 -0.6264302590839147 0.9692084469949696 -0.6544758523672213
Ni 4.211277867654671 6.644352392961946 6.146133450276205 -0.6345014661278234 2.026458922431536 -0.2714940956540873
Ni 0.874153297840763 7.450040689639486 11.20010953746827 -0.16835840610416167 0.4922320438012297 -0.17923520091766548
P 0.2946099432672233 6.11656959517667 8.217802931353637 0.351824100163407 -1.8374841256286032 -0.6165230272725317
P 8.385348073044963 1.697456728627866 8.043239854924636 0.7577084725063273 -0.9766463913302534 -0.22178310158220513
P 1.765821953027337 3.419875789423351 10.359766956616896 0.1484387843620992 -1.4030085719115515 -0.7452144538043747
P 3.959931129150047 6.1821410701911015 3.7967752580022953 -0.21093613156537222 -0.7309265764267928 -0.24478984689002356
P 6.84409640337733 4.128290812058178 10.351934480662413 0.030761963773205083 -0.3481026854477618 0.670241085621278
P 6.168009052197951 7.90698198516128 10.191403645462811 -0.07375595083622781 -0.8040307526116346 1.1136815618411013
P 2.4342990583169515 8.534269428251346 5.810110707683225 1.3256420209059299 0.27895235170434535 -1.0999675546891188
P 7.0632424590349165 4.0867473958780565 1.5094410232607123 -0.5719444693312085 -0.8134327626518248 0.7188477908853879
Ni 5.268757362966273 3.065278241665818 0.6060612971941916 -0.5538428746344913 -0.3681020113878241 -1.445482424805046
Ni 1.352809645400812 1.0563638096805634 6.765752595541232 -0.3430291275795963 1.4254329623533386 0.6937890481445471
Ni 6.78179942033692 0.7117276111913734 9.307702618392529 0.6227291560832436 -0.11939894548632342 -0.9769351262152659
Ni 2.6154755200596917 1.6488019503767364 9.13850299654591 0.43925883403830807 -0.41351463519466847 0.03337420458507155
Ni 6.384760465525504 2.0225657073894214 2.3407293163323923 0.36880160855801003 -0.29822894054577026 1.7155287322690134
Ni 4.153434556523527 6.9951947061564725 10.739029320373772 -0.008157596110127887 0.12177798724146124 -1.347250343204325
Ni 8.447046395502863 7.05178627243328 0.4552813729975659 -1.1747619740921897 0.356099073389677 -0.023751851003959094
Ni 7.78259664322285 3.7827185261127028 8.215704898130392 -0.7931603855560341 0.3075723294338832 -0.2562086302499265
Ni 3.1384781037997884 8.637021353685498 12.47143603522077 0.02621471072215485 -0.6708378386650125 -0.06320645745515566
Ni -0.02547391484721702 4.704828164858335 10.122980369128067 0.21956526799527995 1.5908806225686085 0.6385226714720744
Ni 8.563032348056403 2.418153363819 5.666944657622319 0.4413329429585173 0.216992107951465 0.960817651828113
Ni 3.526945327543473 2.8103032572065993 11.529454493381817 0.5954721201395035 -0.6859471835026251 0.7011076932931475
Ni 0.956024667806217 3.320679545024702 12.412266600193222 -0.3719861769335787 0.26908754309512367 0.9780324730445028
Ni 2.9025060575277646 8.308402046962872 8.0540465855004 1.0896337768632782 0.02458514553853185 -0.10200671815180497
Ni 5.799769299651139 8.029807181339233 3.54737688757529 -0.9646802201073127 0.04580600259052111 -0.33365899921860603
Ni 3.020433121667014 8.163027302177104 3.5446420971870136 0.6882328942130083 1.2085195301586091 -0.09017552984483179
Ni 3.680792026633221 4.022173688501138 9.448492167353175 -1.118633506529738 2.050091731359127 -0.7787133568927685
Ni 7.0539360081613784 6.129957822749128 11.571034192021484 1.2794081867493707 0.09534241875775191 -0.8083129249267563
Ni 0.5804032488647788 9.13574190137446 0.09329399529201013 0.07274653573510698 -0.3443509317148134 0.36925180872155117
Ni 4.293176449464784 0.11775472245640627 1.539775880625599 2.048007852246905 1.7604173652515875 -0.37500953714093477
Ni 5.872316077513281 5.624225689752907 0.4944600798767798 0.8805218429908385 0.09539229815908087 -0.12259199850232436
Ni 7.798152747753179 8.769914932387454 11.505147059609001 0.2187697686771781 -0.06065772289137295 -0.1791524113958721
Ni 0.17416850468143888 4.973917026080932 6.1427609956614075 -0.23557655582187173 -0.320560514163435 -0.4948771947335606
Ni 8.048175176484374 8.756562987274544 2.6539839084987946 -0.22989184673226862 0.13316771713564163 -0.7578907637204626
P 8.62257186417132 1.5724908673367004 3.578946255626228 0.019494618389501908 0.8100813296810887 -0.37563920030513365
P 1.8269851092069358 3.3294145471603915 1.6066725724749473 -0.9811185681689942 -0.49478000703406405 -0.9791617015529395
P 4.513265849070565 1.0447443520109705 8.045390497714223 1.263690518903798 -1.295492493905743 0.6903586823067595
P 8.459708973884402 1.5867226620936026 12.448097343117833 -0.11497561960764717 0.8567010864221569 -0.41546815937661347
P 6.496374381703756 7.7099138061374095 1.3560523902227322 -0.06884000159184918 -0.34708967080221514 0.7916161809973656
P 1.7983854604698342 3.4119934250869917 5.867674643875865 0.5121426666822276 -1.0402292582882213 1.5913598761978722
P 6.993253594570763 4.055562621898306 6.115360482212301 -0.5004881131624348 0.32077314439487337 -0.29781910670186124
P 2.5413504552073 8.640186998280884 10.298963903848293 -0.7063512010802738 -0.03172484190710665 -0.541141625017739
