# total energy = -340895.42210104153 ev
CRYSTAL
PRIMVEC
9.04632908383467 0.00000000000000 0.00000000000000
0.00000000000000 9.04632908383467 0.00000000000000
0.00000000000000 0.00000000000000 13.24021703115426
PRIMCOORD
 96 1
Ni 6.270499012228143 1.9867456908082943 11.373571098508748 0.16746263376276965 -0.008576943035733616 0.12601927901631846
Ni 4.810720068290404 0.30969925815017735 6.010978835452274 -0.8040392372520668 0.06337537893285214 0.5274229898800659
Ni 2.9632878414285257 1.8467627985286301 4.928511411322864 -0.18750746822878672 -0.5478046388602115 -0.06276782725584029
Ni 3.4837955095161117 4.487883731416657 4.983471477482607 0.03094991141429508 -0.20790582937948066 -0.21141384253273912
Ni 4.981161949732899 4.615952608630254 2.668685096825996 -0.04140838774345772 -0.6555294904427162 -1.0922691576035963
Ni 7.450701163746142 6.363531457892099 2.610864581490937 0.029190505521027147 -0.5096304417833353 -0.84029564848094
Ni 5.1570225821431785 4.602129818181545 11.316611793678085 0.05319175353163096 -0.2577767460679948 0.43607812231748116
Ni 5.557503559344983 7.875453441192638 12.28999315700592 -0.43285215918101577 -0.4544465975223399 0.5398018231603928
Ni 1.60697176029307 6.520349568120093 0.42296834140167494 0.7042889192346065 -0.23153760986580768 -0.19474023853180011
Ni 2.946678781700888 1.7130037804824163 0.2933109288459354 -1.2408614368244242 0.12522275125695206 1.511812515490848
Ni 0.8165415419106563 9.262807476535896 4.716588493673885 -0.39489599165221667 -0.47572453306450974 0.17846926928591844
Ni 8.533519585434068 2.296537221512514 1.4395423063501966 0.7420046886178253 0.27394667095963793 -0.45396785811370843
Ni 6.8633411256219325 0.6280115259771977 4.739176272123741 0.08576994457796842 0.6480915461074322 -0.6295886022072383
Ni 0.7481332033156699 7.549912251999411 2.6011732494178337 0.3100668137209628 0.47342673816926845 0.11885387161613077
Ni 7.609907504784647 3.974432199814668 3.7899594623604282 0.7697031829743582 -0.8694331892768447 -1.1262228888412216
Ni 7.51006317351344 3.830233718301301 12.587023936265801 0.457548119265799 -0.2287677604301544 -0.04328195061708675
Ni 7.610070338703545 8.882092727822592 6.785504703122728 1.660610997185211 -0.28957717840804326 1.4187799758131954
Ni 6.618321309323968 0.7340471646980748 0.2182146393486383 1.401992214831895 0.33265884008886576 0.3046330442999012
Ni 1.8718211293813294 6.438914516013234 9.3251773906384 -0.1304696014781882 -0.540505534095637 -0.2554105598286634
Ni 8.955494639930462 4.730759567782458 1.5655097213771219 1.0516446992140147 0.29212514164087755 -0.18374902962761902
Ni 6.441972175156993 2.1910751200393124 7.086389218463205 -0.7591606315718216 -0.5666037738445855 -0.40300062303722206
Ni 3.279963628370617 4.554157136408309 0.6532091702938433 0.6837846286336675 -0.7442358919411892 -0.5959446889005479
Ni 6.017509380232983 5.677982566672149 4.425714645814128 0.4530800561921165 0.8801084096025037 2.5197309774615055
Ni 5.345991345024779 2.845260389213663 9.327229098016518 -0.9032051435209671 0.12678495353774938 -0.545492445787267
P 0.1844899254790126 5.274823876137348 12.50212775874947 0.008670274080488293 0.46083193222339347 0.26958607999809703
P 3.9420463426115404 6.161418379223865 12.54363593394244 0.04063088614748486 -0.4418767312771293 -0.20146932972551754
P 2.44496938491724 8.525432167462114 1.6103415177813842 0.3465155434663 -0.17964117810683253 -0.3896000333606
P 6.303011518034858 7.675927612569122 5.669447355423224 -0.9967696444426898 -1.0743318563988853 -0.15834884438695956
P 4.646257810203013 0.9457846326060877 12.497228267056393 0.7964380278660412 0.581272945820986 -0.3494833678453723
P 4.194755538413041 5.9927767172180815 8.099305752666693 -0.9182849206722249 0.8005474220487244 0.8156289989721954
P 4.833245427071351 1.046017956016885 3.91864077603566 0.014416432535646138 0.23221818087260004 -1.675760965452772
P 0.2710868128149511 5.787198894608842 3.71125911545818 -0.4994496445955914 -1.3619053741133382 -1.0145835326956592
Ni 1.4084048425252902 1.1841734898733558 2.538665831117149 0.5167230869640584 -0.30784409503803106 -0.5076887446759322
Ni 1.7543997811979224 6.616792479752089 4.996023258731026 0.7323072588244034 0.015025526874554766 -0.16974834447315282
Ni 6.182867224874316 5.703158499799608 9.178661239679379 -0.12912722851768083 -0.3589360286178399 0.04658890350313266
Ni 8.523270094872295 2.08858926075042 10.243306491385356 0.6177435299431941 0.9073549040232824 -0.0990203818299714
Ni 2.384711788596001 5.094268199065498 7.1047396964901735 -0.6892546506093032 0.8331531238988878 0.24695034487645212
Ni 0.6464995082023463 9.091831861692569 9.307356122847851 0.5631744364480624 0.3398782406554405 -0.21310588552318138
Ni 1.5079777839316664 1.1398464786176783 11.4302526810444 0.1343396259565557 -1.70695641721897 -0.39386677905675394
Ni 3.9659467433742956 6.749592586942567 1.4578801195168056 0.3691751898473449 1.1843287918450185 0.5114379273057191
Ni 5.626635604246185 7.697412643534885 7.9368083572006745 0.02371842666286238 0.8874139421249814 -0.13489369868781284
Ni 5.37108586119279 2.9455841759127375 4.823782062484705 -0.2614241130125949 0.17033584154550663 -0.23690427349435972
Ni 0.8365538305432705 7.440261700278989 7.184551837205345 -0.3732907546776152 0.8453288400294732 -0.30813951479126284
Ni 5.187626312567252 4.37731045415581 7.1857170043583505 0.41565739256928413 -0.06833735092381779 -0.5882774021632772
Ni 8.340733271787181 7.2767493067185045 9.120946566391604 -1.2673836514846688 -0.6579535265031765 0.04082911820122001
Ni 4.591355640547768 0.2037242298324456 10.204552923320419 0.033349521994723214 -0.026113152147284057 0.7748320195604913
Ni 8.217124234685635 7.3896022588439285 4.710326624859357 0.21338999242250345 0.20823210237064785 0.3870808664831721
Ni 7.373472654544159 6.1655887368134294 6.965134940755506 -0.12340395288065843 -0.34502070408832836 -0.3484500414848515
Ni 2.229856731723616 5.466551769311396 2.683010863157525 -0.18908406868728728 -0.6161440466665582 0.31574818037645624
Ni 2.211556008505201 4.950567265637654 11.529845524374197 0.6064347897985942 0.9318600882534984 0.3017464667807255
Ni 1.2679424948177587 3.2158884812840935 3.6946030148206384 -1.0581693877064098 0.998207662440797 0.4273589972769285
Ni 3.7436060734473484 2.6003038972174926 2.600921761476424 -0.39905809344970633 -0.2535305691971311 0.10806552275137517
Ni 1.0976272619788523 3.0405977675899583 8.178852835947213 -0.6197762441025068 1.0601823043713805 0.2876694198623691
Ni 3.472885636949919 2.749287886680708 7.176554882521668 0.09490893076475912 0.11078652122696404 -0.07692483548251268
Ni 3.9746312190488773 7.035537994856998 6.017546470181177 0.6751619199616631 -0.9072088653637215 -0.1881196478914889
Ni 0.6481432261503374 7.172969822407254 11.326939082667774 0.838586379099317 0.35806930974217044 0.4151064051618206
P 0.3030375416014669 5.544015483062899 8.01268805877445 -0.06648461398579517 -0.4013646300956959 0.1733391471482047
P 8.453857613777435 1.454378285627607 7.92084068218692 0.6770545089986856 0.5086091996076724 1.6356478994819703
P 1.8194519317978362 3.153740202237868 10.296280888367422 -1.5271118648520796 -0.45675904770560044 0.7128635482774949
P 4.027932188501622 6.245422588717788 3.817671081458289 -1.0892301136669564 0.6481702218641675 -0.48074435487660433
P 7.035311836636306 3.8516463786364414 10.153445688608388 -0.11487226126056346 0.42895230990597744 1.7665160219501574
P 6.29250873026591 7.7748673109575615 10.218362144275886 0.31000253614193063 -0.4794454335595227 -1.1309210656478392
P 2.383083449407018 8.51361766201315 6.009535946004258 0.7321475933180875 -0.11236029347198713 -0.25953846595410784
P 6.929442650365858 3.998395924879217 1.6662550669995664 -1.1500662711177225 -0.4686516853781284 -0.5344282175533054
Ni 5.249457970104507 3.089420804272997 0.47328583160704835 0.14261523570178664 -0.5357813891470902 -0.28019856540662064
Ni 1.5501065372822154 1.0787656663731202 7.042828431259233 -0.36180820795931234 -0.26900192535985284 -0.03922320716668084
Ni 6.765034670251432 0.696059820684842 9.14125738387553 -0.03852489554807559 -0.33671424110516207 -0.16184014536966967
Ni 2.7581713815894986 1.4982439341130724 9.24944333495875 0.3948854501292554 -0.16124724898067713 -0.22974092297670112
Ni 6.500167208505518 1.8522448737982098 2.516409148302385 -1.6079391207127922 0.9629097584704515 0.8493073650612469
Ni 4.068550204937948 6.732187450278093 10.362879056563989 0.6305707636148495 -0.17399760666781 0.18110619268813324
Ni 8.186004863518383 7.025207087335777 13.423726126601846 -0.4519246024314346 0.10509924103419963 0.3568212962676823
Ni 7.794787327036132 3.933036199099162 8.126249338447082 0.36513418700875183 -0.0363541131490019 -0.4816946346050156
Ni 2.993665413631906 8.441102290130393 12.629961431413548 0.5064165628317279 -0.9169379197260272 -0.2854528718270245
Ni 0.032925923034140714 4.9607443855688045 10.297816955002364 -0.20357969120030098 -1.5336972313790813 -0.9944782773053518
Ni 8.565127458358013 2.2830129599151188 5.930689953207884 0.8025503114113662 0.8136780458934115 -0.9536972387332479
Ni 3.6162518562111385 2.599164059785204 11.462823083355614 0.7714718448390069 0.7572888684704054 -0.551868781627256
Ni 1.0569459212407335 3.0589799077678226 12.544721493401761 -0.7023379661558227 1.5714703363627969 0.9980461971622684
Ni 3.2222480504499593 8.194309393382202 8.312645325410088 -0.105277932703909 0.42984936779895005 -1.1294745630093
Ni 5.716103796352033 7.864769726847137 3.3754738635004777 -0.9498099878636997 0.6713823983145727 0.1785777698393247
Ni 3.215997037230026 8.579176407027415 3.760949695075794 -0.03169424577948735 -0.640037051234072 0.12955017498771237
Ni 3.373475529462441 4.286982860811333 9.43793083314672 0.9725153998810153 0.61526395805445 -0.9397623738197105
Ni 7.264545809129952 6.1339446785741725 11.340059877999455 -0.24730695688492246 -0.16492906870763852 0.4353942088765792
Ni 0.6248769730384033 -0.2325594029707052 0.428887354353632 -0.1815841607658163 1.0451140971843484 -0.36111606698829424
Ni 4.571254697892641 0.2602854961946901 1.4491287010088991 -0.16500723024374161 -0.38730532378915233 0.863241972864468
Ni 6.00491689050484 5.61087689942835 0.48161659582446736 -0.16165862548648288 0.6533095999732619 -0.565090936744485
Ni 7.963953676113922 8.739974901939592 11.195013755474934 0.06580301453773828 1.0271189461585084 0.8895934662748034
Ni -0.07368596683306035 4.7771672346685055 5.618539139945403 0.9387172203846479 0.5699984013484313 1.0905244069983477
Ni 7.931812069789142 9.019443138413399 2.426349326291207 0.31763768408968523 -0.8113278004936803 -0.2142762516821987
P 8.52079140077351 1.6760857125366164 3.739778571720353 -0.0104096253690982 0.34642889728976467 -0.8679375785679246
P 1.7676164676151764 3.308550027466115 1.506604551215623 -0.0950832515590943 -0.5953497356290263 0.5863562738811644
P 4.689562586301162 1.132084728483521 8.067422871346384 0.1295278063902092 -0.729831286480085 0.5736707079936959
P 8.635127950826673 1.444336860628872 12.651662669638291 -0.9252842348081936 -0.416470889609515 -1.185296040854294
P 6.383487659285982 7.808166847372284 1.2357068066731707 -0.2355300188546524 -0.3930617666569553 0.20152897931885938
P 1.6507740844767418 3.407688745088762 5.910234394462712 1.0052738252589588 -1.0816723559243564 0.21903844895753247
P 6.911295714737514 4.099461510542162 5.838696930726229 -0.2738430555022381 -0.1313633169370512 1.3150647596107157
P 2.504150468107983 8.314028509087843 10.444465182362272 -1.2897095686753788 0.8321064278019282 -0.44710815487939776
