# total energy = -340887.4577317126 ev
CRYSTAL
PRIMVEC
9.11544365582657 0.00000000000000 0.00000000000000

0.00000000000000 9.11544365582657 0.00000000000000

0.00000000000000 0.00000000000000 13.34137319347035

PRIMCOORD
 96 1
Ni 6.6070740643138945 2.3472540744941806 11.338632845377179 -0.821982709104365 -0.016855638104758066 1.210722708457515
Ni 4.9720369449715145 0.21309537132025744 5.7824983282040865 -1.3925927758948662 -0.06102847596723038 -0.0946173676662693
Ni 3.02430364821975 1.5322604927014414 4.72949048690942 -0.3750481036883541 -0.21671802835447193 0.015786573410295393
Ni 3.429275461237668 4.341640211613868 5.310093198033026 0.3478969971948589 -0.0857113234258911 -0.186246342128176
Ni 3.929412505486753 2.656860116521632 2.493582467588786 -0.7695604867489069 0.4195788391108774 -0.4349406662789284
Ni 5.419286185427186 4.464005926560916 2.7031756854761877 -0.06128250095956543 0.6327736848034392 -0.0001977178331028853
Ni 4.879259959964731 4.518069622579311 11.53010820755624 0.6202729812332672 -0.15707537699117466 -0.0894165401916202
Ni 5.760869203619287 8.39329993128081 12.524748040362459 -1.5254378195837666 -1.5023135748614773 -1.1104545702633715
Ni 1.8095614025944813 6.8025912141872 0.10105198471096487 0.3914322014733323 -0.47934336076401957 0.5666971048893401
Ni 2.735435240392577 1.6158764568856845 13.354180484824756 0.478970036585001 -0.04601580460848204 0.3618256914608091
Ni 8.378432642761842 8.91339979702379 6.5542828842226895 -1.1640361030342534 -0.24441215183563067 -0.2392825439185492
Ni 8.949059412404665 2.275479071552206 1.4103168227932819 -0.5285874425018122 0.8705742448598233 -0.12104368017859801
Ni 6.991290012244326 0.7728063972466697 4.578612575911799 1.0726133310458819 0.5947403841798016 -0.13729742303329903
Ni 1.0504637209846461 7.718292216922653 2.278906478347505 -1.763615046253279 -0.5188650730077258 0.805095189320407
Ni 7.7608339922249385 3.367007865975206 4.200651645382789 -0.006503862556788799 1.4499049793527738 -0.6634957964776443
Ni 7.831943567783783 4.361010529273468 12.54490684389385 -0.30870901414148766 -0.9946878222129966 -0.7084466501567218
Ni 8.348506641408209 7.454272508361396 9.252868943844001 0.2553164574529603 -0.4548998830096746 0.12801856883453436
Ni 6.935931923234088 0.8945030386331467 0.2153979323747587 0.6341111726679403 1.4897182546949699 0.40006776566114327
Ni 2.296718055150733 6.686888888515053 9.340295163454934 0.00540445884502295 0.7293998553696212 1.018850021281497
Ni 0.10813833056911712 5.202794399819886 0.9325189961857888 0.2542255383816267 -1.043171628745997 1.387573982524036
Ni 6.659314671611387 1.9396934754925794 6.910564555227075 0.026145290936800132 0.8655495379517224 -0.42357870429888983
Ni 3.5364183853651716 4.5594263902130105 0.5008817759915744 0.2505457755371943 0.04899828427557368 -0.6896428871866574
Ni 6.367055318763333 5.749028242377018 4.517189070727115 -0.3933211909659291 0.2805415505683362 0.9690341262006344
Ni 5.377291336741172 3.0313043089080196 9.347619422391164 0.3541884866305255 -0.198027136813188 -0.39271955282618815
P 0.18261970871727265 5.977862338624836 12.198204592573452 1.001392745036998 -0.1792873943118396 -0.8998886775532243
P 4.104903025760932 6.419806390902679 12.702241223596552 -0.6046828401044941 -0.21031443882097328 -0.7639421121208649
P 2.6212005011407578 8.604030756530056 1.2781638560480624 -0.40930188266490153 1.2292714179939797 -1.4259826642092215
P 6.55325648527282 7.799337626010422 5.581576631817662 0.9043752525696683 0.1887282280097653 -1.0127724476288493
P 4.779445852495259 1.3094152429017916 12.546934118551494 0.8236598396964717 -0.6653415914371316 -0.9695056665204143
P 4.347392056528318 6.440544025102957 8.28904842586466 -1.6095164925022412 -0.4920698071917526 0.14850023372765392
P 4.891593155161643 1.1153474485616048 3.6324286182184777 0.49287559092249955 -0.48083460059756544 0.17299899019996656
P 0.2663095079947122 5.263302714466675 3.400436020761694 -0.5241476615629037 1.5436394301934575 0.10450171665951678
Ni 0.8267707349297763 9.043139905846893 4.728662804630129 1.1249347661574174 0.9170844726062206 -0.6723743299141969
Ni 1.7720969293799127 6.5387082372800105 4.6412238233981515 0.9570568992341002 0.9864158120121914 -0.8345500042464143
Ni 6.45626816532075 5.883107302355872 8.70691403386117 -0.6985553591849388 0.20086074960724115 3.26561751763224
Ni 8.598907877224317 2.6962935255547764 9.998158551481714 1.43779225524964 -0.7715834307162067 0.286957481397009
Ni 2.28561544484043 5.664528080163136 7.228983408131375 0.6146556350464898 0.299454071202123 -0.5919813333774255
Ni 0.46188681979580715 0.3239546618053231 9.284968978497313 0.5112803186819324 0.6935062267968056 0.35682695269463705
Ni 1.3757847877862868 1.2540298075607406 11.417787711461372 -0.4013605163306378 0.4781912494374474 -1.1260488251572027
Ni 4.078677894510734 7.074349934368693 1.7221442984271544 1.3530209271395148 -1.2040779494474876 -0.924929422571936
Ni 5.813310350676078 7.930007510081187 7.609892273122087 0.13047911455988498 1.1997309853327016 0.9392000735583372
Ni 5.417299018721401 2.9200867814892963 5.04085125183074 0.33308847142711673 0.4212685681084744 -1.0473573846925706
Ni 0.9712231697305719 7.79965666653658 7.617871020909121 -0.045905761393179007 -1.3523807224523547 -0.7573068661925345
Ni 5.299017022509177 5.13029016138955 6.829422522437099 -0.20218178241150986 -2.464853865807652 0.1912003436993417
Ni 0.9566202290761341 7.971929435218365 11.334497168613808 -1.0037435046573617 -1.299279471752001 -0.3073895239991158
Ni 4.615176443298241 0.47091657823044264 10.171316429737498 0.6708026145517028 -0.6736423979933431 0.1913633516397672
Ni 8.544051137612328 7.321970959885423 4.405454697656016 -1.1823176749522606 -0.8209563247223797 0.05721167332430147
Ni 7.634566867415156 6.381193371793941 6.812291869271128 0.9939198336987204 0.00438013134556665 -0.9323650529143749
Ni 2.254650282915883 5.504278581595711 2.245980584503626 -0.918466954776044 -0.6615546135908735 0.5845806700379803
Ni 2.506118025633719 5.480241156810597 11.439587294841575 0.06255493991408581 0.0796885142705789 -0.41790093718782223
Ni 1.6705964648436054 3.6072180358414627 3.863742115126725 -0.8233664768257691 -0.6472201992460723 -1.57626312976575
Ni 1.8475454560945077 1.2621972450303889 2.3272155948183686 -0.6490235710033985 -0.23389711123691978 1.0901004320870518
Ni 1.1663027783108602 3.5049701049295847 7.95133855966012 -0.3153625149022633 -0.38304423451995323 0.41138910421123337
Ni 3.9061590088516276 2.5416500248041296 6.890445859647544 -0.39480805992410073 1.6754699165749143 -1.0239611172558172
Ni 4.0426627768292835 6.552180862927488 5.729545804761082 0.06251380226350524 2.678017601151962 -0.5600009238160871
Ni 0.6075115006441437 0.25252786880904154 0.04593180877880539 -0.28152679729974095 -0.5186280172962552 1.194571295508633
P 0.19802754304198933 5.74681318958112 8.051545542748945 1.5802221144134978 0.7209506961610036 -0.9702620850704645
P 8.537123400472895 1.5263445698021094 7.883644540819888 0.6237671104294548 0.8863813870954089 0.821690631785243
P 1.9213896647347073 3.3927681096015734 10.010152652176538 -0.1448549236655828 0.37552889997951455 0.7981740367205415
P 3.8277115011911462 5.820712090882947 3.702190931212574 0.8819876289030875 0.14677399506516658 -0.6642301035405077
P 7.10258957865549 4.323764826705408 10.374545244900224 -1.7796224774251284 0.044912801352290393 -0.5064864968377149
P 6.514825775036173 8.075061564159881 10.044732999034638 -1.2709716259462434 -0.33997028614861446 0.980706677442556
P 2.7731914078024897 8.364759477355065 5.6023762510344515 -1.035859668465616 1.1003676183410147 0.9327427479687678
P 7.06258189667526 4.105577568587667 1.309095290831273 1.0189775479982968 -0.3504614154879255 0.6994081941035374
Ni 5.387400363698582 2.9780792337012394 0.4065761310923132 -0.12527288776859716 0.4026072442535454 -0.37663987365550616
Ni 1.7081338616070103 0.8169752792323612 6.948186725616003 -0.5715158664342223 1.5416110869095192 -0.8992456446525868
Ni 6.870701808800159 0.9691083868143238 9.21947542774321 0.026540726603005906 -0.36162103164917075 -0.3765887087025966
Ni 2.9511886750679115 1.7604929696713614 8.829107466924091 -0.7503463757143013 -0.6770226273194856 1.2405649886299281
Ni 6.485665470945321 2.160031978300987 2.476692462133975 0.6297292415501607 -0.03548225206700986 -0.15187634928873842
Ni 4.535935892044167 6.962266439807541 10.52650333596498 0.06427732192183123 0.38934446570636816 -0.22523917845160563
Ni 8.218420145728134 7.305098273773461 0.13233527561730996 0.08031560633161652 0.9356141559792919 -0.2738237722285284
Ni 7.890692601814901 4.078714356285152 8.200222074116073 -0.529676818911249 -0.7815549401066216 -1.1098387910562435
Ni 3.0660614953720464 8.455175562468279 12.350056032948036 1.5584250731430644 0.506291092997457 -0.34878042824107675
Ni 0.16968215960938038 5.16858413997213 10.09296189960178 0.2831126537296221 -0.3868512669708692 1.2590584194484251
Ni 8.915997698451077 2.182401276906474 5.870217153554723 0.5334491414694877 0.1887727080944555 0.08150319888181447
Ni 3.5959513475462783 2.439465901997484 11.12835961539688 0.04343338859328649 1.0514989176647698 0.18852716774255274
Ni 1.235169954742993 3.5674108936205324 12.09592931533076 -0.720535720110772 0.04464180707909086 0.9156099449432231
Ni 3.2699192761434857 8.461538142104231 7.848476247849296 1.6238542492811516 -0.3466903784812675 0.405555785358908
Ni 5.799983572126273 8.091697248738125 3.5383189553567136 -0.45148391534959026 -0.3051714333018744 -1.07820805152484
Ni 3.1813900878564074 8.395870486377284 3.426157979524923 0.5820399058939976 0.37020645932533663 1.093741885494381
Ni 3.5582042955799693 4.393662048264851 8.789429764002346 -0.31932638464601776 0.01800852076227866 0.6355399346946667
Ni 6.678375064188434 6.266384359595038 11.482372452488102 1.1531269123209174 0.291600122375343 -1.3254710425457044
Ni 8.000980353985964 9.010962389922947 2.072169128941399 0.7853959111192668 0.1922436973621915 1.5372052445323396
Ni 4.6870881778942834 0.41010563085598256 1.2436773982590896 0.14968371251279383 -0.18968570682702815 0.9890763895634901
Ni 5.9302614921220425 5.767523477450585 0.3438609675488694 -0.007889944271038025 0.1547475001889464 0.6916851144276668
Ni 7.781571626425217 0.13762405599665126 11.444830498002895 1.390111147123593 -0.44021142775956446 -0.5631566958362495
Ni 0.6655987534695738 4.962228727653052 5.760991350563587 -2.511606548582158 -1.394783870008914 0.14896277518636927
Ni 7.50044223021828 6.298935608706771 2.4377093560148935 0.12773986125185097 -0.9186335622608954 -0.3889516011433237
P 8.884029837730033 1.560290481785334 3.6333492780225343 0.035355239570842335 -0.5419990879220279 -1.0376291016612131
P 2.0390609262254293 3.189320523792338 1.2604543722132049 -0.8386007772770203 1.1334523167101256 0.7355972424295848
P 4.974972117812168 1.094281658391564 7.8813365104992235 -0.006785398352949605 -1.2334016381122692 1.8940836192902024
P 8.553986971141253 2.0722867181638973 12.503841770455496 0.3021082209955184 -0.38186538372050366 -0.5410346671262295
P 6.414255085747527 7.810139426681776 1.2151615560310762 -1.1645310403928009 0.5042923173998735 0.8796317270764012
P 1.780601638262928 3.0644207155232333 5.9337754956315845 1.3327732326340724 -1.0275871440441786 0.47947422991492905
P 7.144219809597323 4.381119197865035 6.080210539416363 0.3201442525616229 -1.7082183146505292 -0.7629959461575118
P 2.510484323120283 8.921858928688783 10.10395512458883 0.11172985897683983 -0.47803158393113154 -0.5308713534399826
