# total energy = -381161.44099004834 ev
CRYSTAL
PRIMVEC
9.26985931504023 0.00000000000000 0.00000000000000

0.00000000000000 9.26985931504023 0.00000000000000

0.00000000000000 0.00000000000000 13.56737611930563

PRIMCOORD
 96 1
Ni 0.1201364469688445 1.9723386511558019 12.977100086706075 -1.1778465265547844 -2.357567387314146 1.4853646057119645
Ni 3.1700507963582765 9.285061670373493 8.367828578989412 0.16333421341669288 0.5168498423499099 -0.08822509098668031
Ni 8.952440586095365 3.6037318845603785 11.5638405427472 -1.998195813820784 0.6648859919569516 -1.9153520417506753
Ni 4.0606895889662145 5.082153903072875 5.339332239053873 2.087521079850179 1.6284824920817824 1.9484030586683736
Ni 1.7058580115665014 0.5291903004961319 2.9817159959800854 -0.009651921267467249 0.4864884564492331 -0.8431560007478704
Ni 2.116744516238145 7.108304086312578 1.7181452098054697 0.3445759032414259 1.3400905922310922 1.8454787137983055
Ni 7.523760631521235 5.80366411637491 12.479190925747776 0.3682395654069529 -1.5376047939636035 -0.3318923942364865
Ni 0.4322266473090849 7.850411926538028 6.961922814255716 0.6749084091899603 3.148383955228352 0.14999121645088362
Ni 6.409236201895146 7.561377719754907 11.702486117383906 0.2162050932737954 2.46748127612817 -0.16679697515431274
Ni 0.5856122249029999 5.669584874331579 11.715266472127071 0.9943157835855585 1.220844113162233 -0.9180949161486058
Ni 1.8171426700793742 1.1603916924600488 6.228198634601614 1.1986567784319164 0.3000109721468575 0.9223387790266244
Ni 1.8183662914807652 2.2138648300440065 9.551880659819993 1.3679934892889472 0.13762241047288556 -0.11046359066990653
Ni 7.595833786034986 7.813434458582355 5.803960751866156 1.6383832961352622 0.7053410146482046 -0.34209298891857215
Ni 0.44665332902866706 6.388147272439354 0.3911528286164829 -0.8170755016107347 -0.6062064758378721 -0.6048178230204616
Ni 5.094278878777567 2.6536640252530637 10.047862617071102 0.5752341958260738 1.2630937658600634 -0.6981565810846234
Ni 7.76600058956025 4.1128325464118545 0.6138027934164106 0.8998513965573857 0.7909019285391605 -0.40424735096012954
Ni 0.5068842385403197 9.17308177242801 4.9212532507054165 -0.8685659561805429 -1.214685806870321 -0.06253797063322132
Ni 2.2384484963810443 4.019781700751528 11.122521090645508 -0.8723920147948524 -0.8214972848275143 -1.5624689041951347
Ni 4.32150634464453 3.2715186740827167 12.129885022072957 -0.11974835840594215 -0.5086649925462724 -0.4121511791882386
Ni 6.375790550257125 0.45869302202962653 5.190281247575795 -0.5699032705314636 -0.7304077278088453 2.596839132599418
Ni 4.250768049841388 6.967559815575306 0.4953478988885688 1.0076484961387224 -0.7783045514901241 0.5053888928981619
Ni 2.074056815075981 4.784878791548567 4.147248752297797 -1.109389876444283 2.180413237295226 -1.1816872404571133
Ni 3.018887203990978 0.1114227794134842 0.9069889700910699 1.9399266457662463 -1.1216720362457455 1.5815511176375665
Ni 4.342827020577858 1.751150543136172 2.5868237062020794 -1.298679376274157 -0.47506427377269145 1.4259538678538153
P 3.091498010332614 1.6488020287970944 11.158108079735962 1.6809383958886535 0.40922217846690173 -0.14059794816144172
Ni 2.65043811428576 7.482398520210577 12.656597489231272 -3.992915753277827 -2.3198318204365855 0.2978340191001967
P 1.76721520895898 7.5681169073216585 4.133246630125061 -0.29555036527234263 -0.8846248094156185 -0.023714827118436577
Ni 5.86996214866846 9.08994040614713 0.33153465679143584 0.17158411213031094 0.9017678968538082 -1.2835036969749831
P 4.0615702255808515 6.070951233706036 7.535890242155478 0.4015299520289666 -0.3337507876014639 -0.5491778650586542
P 7.697514870518759 0.3882680484641125 12.2485318026842 -0.2206865260839167 -0.5710569245199327 -0.41619038225461874
P 6.583555902297859 8.488919821445705 7.712809211050237 -0.2817337711042245 1.6373016330353092 1.0524931632572392
Ni 6.501842094318603 6.469406857322639 9.760750052079711 0.9593225553398252 -0.9451457496188108 -0.5085780892594208
Ni 1.0881053311869642 6.012616010380629 6.168922520577411 0.8280332861738191 -1.5056182137546779 -2.5624012626365227
Ni 2.2338877257031324 8.782885593270796 10.555282653467486 0.24644203778146587 -0.19416662541651722 -1.509713209759658
Ni 5.403002266292162 0.9864984055760023 7.5120120120960605 -0.37873866516606386 -0.34893340887917323 0.24946102711344778
Ni 8.924529040340909 2.967439485977947 9.319498269949456 -0.5473696082053218 1.2442972019788507 -0.9392198710526792
Ni 0.23120882570829399 2.7252458772344377 1.8181373259609594 2.469882429370495 0.7444423515250405 -1.69466011635012
Ni 2.9222767324356966 4.887616639969906 13.027910038412926 0.10953645086994683 1.681889189837697 0.09336112666166502
Ni 7.796980458677287 7.899968593294364 13.475199279775953 0.628180409005802 -0.2027705650354443 0.7619837028429135
Ni 0.17921511299418727 7.980032366353563 11.826070951938489 0.20105769610939564 1.11034838370281 -0.33825356056782385
Ni 2.209313329225196 2.2530299847476205 0.28368735205340645 1.4492022968587945 1.8774449822922568 1.2234288431702736
Ni 4.346683281964061 7.164229146271608 9.537743197704378 -0.9535211181666997 0.99170765653875 -0.6490315414231984
Ni 0.7637575961568802 0.45746105775504425 8.670258659160034 -0.26189539622205865 -0.6008056165372749 -0.9328520198531225
Ni 8.159543187853085 0.7435882367239516 7.13445899376731 0.4816653240289769 -2.433348081889887 0.18431570076436646
Ni 0.44531476137441806 5.143140306101295 2.4229974863022044 -0.8256920396351521 -0.03515829306868784 -0.03023437340450922
Ni 5.675545393733809 2.531626330182512 4.684055169031678 1.5417622677754028 1.532814828774128 -0.8567018577531051
Ni 8.289951565692244 1.6597311926777008 4.885340889560501 0.022583027506838528 0.6898665731616894 -1.2979160157455711
Ni 7.281733880241552 2.640361777442487 6.703599650675689 -0.5853021215850371 2.316310437546888 0.03184259843189355
Ni 9.037695480251374 1.2802973199372671 10.798613673922741 0.8473708101601664 -0.8445976182904036 0.8645758611845433
Ni 3.500196828256316 3.111456016978029 4.483000267994481 0.3568683474555338 -1.7257298411717312 -1.1120468544511557
Ni 7.9705307607745794 7.0647542882539796 8.027449549629285 -0.060029602389070805 -1.5891674965322438 -0.048347538065452215
Ni 0.4302048910390593 2.6225821876859117 7.123279543690965 -0.4541820310070436 -0.13967877878128201 -0.31527921115983765
Ni 8.026214804396973 8.909660186342187 9.550279755153174 -0.5982797647916277 -2.9069707381200454 0.6674861485839602
Ni 5.409352119776654 4.857322740426376 13.613369310640755 0.27804912316378566 -0.9651808138928151 -0.12901589975079716
Ni 2.689807205889606 4.904969816207815 1.6085078052549242 -0.16776113883979496 -0.9123186757864611 1.6776111312876334
Ni 8.764614700981843 5.4309138120466205 9.291494952589895 -0.1374491181198149 -1.3038673482329997 1.1552583568416233
P 6.409365979922566 4.705742004399513 4.12061552011343 -0.9065830588542646 0.3438256553389627 -0.048350366278929635
Ni 6.2343325003690415 7.715396428725451 3.9296684734404503 -0.10713761162046709 -1.4882864073444497 -0.6913418721556353
P 4.858119948309101 8.393662749319235 1.9611777407976594 -0.38831448177995703 -0.641440873560134 1.966025142625511
Ni 5.386047693995616 7.4862084323012725 6.34129647755473 -2.2930985182067993 -0.2221476840104755 -0.4838363635383667
P 6.75895090635634 2.396990896593094 1.217353122666621 -1.545239427690726 -0.5263269286024097 0.3055362728404609
P 0.8698344478265598 3.9715413539875972 13.251893935937552 0.5204840966683875 1.531109416047247 1.1068655673605325
P 2.663935029137467 6.24893252845382 10.619686853546611 -0.9537540601131123 0.07243800335575266 0.6874381662258549
Ni 6.323276798447426 0.49399171850202706 3.017045282987521 1.0503077255701458 1.3760384710806108 -2.7232744161072326
Ni 0.8214652500211189 7.340606755394842 9.457071321888122 -1.9267983359144045 1.2366330005653736 2.484822595620095
Ni 4.807886581838359 4.12376171029246 2.109944147601323 1.1048027712942328 -0.8855113257856297 1.0312543084831207
Ni 4.311587595405982 8.301863334637604 11.710938374912605 1.0212995112632541 0.08762396706757168 0.837638413363751
Ni 4.519260248855701 6.099956622834465 3.3748173489796924 -0.09910445690334545 0.5433540592880256 -0.6371633292307026
Ni 5.0522029883160995 3.2121915758334554 6.939509221934327 -1.3916360684085518 1.0720667145137923 0.22288379084555163
Ni 6.263782842734338 6.2538733633548915 1.646007166278008 1.0827144240356255 0.6426181816976868 0.5949568710659818
Ni 1.4817220883526117 4.356972825566667 8.544529706195286 0.8890522490593527 -0.724774697892784 0.518607705581281
Ni 8.758737610311526 4.905266451699061 4.915066546741111 -0.06501934229417834 -3.7309679065512777 -0.16651261114467453
Ni 2.8440854709149903 8.359447699375794 6.208092310210575 -0.09621427983974398 -1.8703507944496367 -0.49765244348585264
Ni 6.718701178137857 2.4115353055232647 12.254094645130976 0.16778273610634972 -0.05100734428580248 0.20221135009786467
Ni 7.921965968942097 3.513304409025762 3.010641664320241 -2.572555577461705 0.4429270269185146 1.6640323641619341
Ni 3.979188987746291 0.9567606975785599 5.2104830515155784 0.9026397579358003 1.0798671843948178 1.6984275538123526
Ni 2.0092419602386626 6.478491319242057 8.053947441870772 3.748016891613765 0.16542529161776673 -0.5092694588994907
Ni 4.9946093537188085 0.5114496441477824 10.308220514723898 0.22533328082730872 -1.0774989412729572 -1.3756034404257214
Ni 0.685811058916452 8.898703212884277 0.7872631778804196 -0.3337914110314122 0.5321201382454191 -0.59697261594443
Ni 3.581289555675775 8.684995881159516 3.7987298596606895 0.9777126278112388 -1.9869523796964814 -1.609524720032357
Ni 4.1560393596836995 4.743405441928693 9.767615309730243 -0.7252544657426799 0.22138046682714776 -2.8100758872735088
Ni 2.3878878949554734 3.8861103325086606 6.2886826112667364 -0.5912087168774592 -1.1053614720111802 1.7765224983435661
Ni 8.877493775260165 6.806579442419575 4.046659657216174 0.7500442710928502 2.210303597096755 -0.2602352349108163
Ni 6.753481689486486 4.149105505075817 8.655361995584009 -0.29374776484596504 -0.17224128609833564 -0.6926459356790394
Ni 7.159195612779523 1.5632226895725347 9.252869303685985 -1.8592364297040302 1.3726746968147006 -0.6214204645741491
Ni 1.1571657814927452 2.515153790559241 4.342808480859656 -0.6666001464345811 0.3101879126798593 0.24219508957965388
Ni 6.888274710680629 5.602192998664059 6.0923219668785125 -0.6703886669427357 -0.9975584588925723 0.5085513497865435
Ni 4.703081554837398 1.933349623775115 0.4286299419777234 0.8658575561104442 0.545060500456171 -1.0022229542477772
P 9.016986615018741 4.603745744706291 7.167807311884766 -1.5712415081814421 0.8834701269858849 0.21911583916268715
Ni 8.30914017403224 7.796414997272098 2.0771649988326963 -0.27900454509851946 0.5039945836537966 1.0038234659656775
P 6.786695594646972 4.303726754887955 10.769036334487755 -0.1674942583316535 0.10675657413196453 0.693556877529083
Ni 4.990743822473505 5.650526044019003 11.549839347560376 0.2540689581991044 0.8923771996675277 0.883198361381737
P 8.913284701250852 0.8700328228113308 2.3539537217428057 -1.3700313456545825 -2.743086565737153 1.1726143316215676
P 2.3398329453735713 2.8502777367947565 2.5458370241850306 1.1666154337256551 0.3728840061574997 -0.11351446168108836
P 3.221999086762786 2.2157280717233974 7.790007670661177 0.016514452715255427 -0.11426753779702901 -0.4958873811656299
Ni 2.1052962402478577 0.4224784634780031 12.526920503275216 -1.4180392409924287 0.7187377476700847 -0.22615757650081694
