# total energy = -381169.3897181378 ev
CRYSTAL
PRIMVEC
9.26760112312409 0.00000000000000 0.00000000000000
0.00000000000000 9.26760112312409 0.00000000000000
0.00000000000000 0.00000000000000 13.56407102716746
PRIMCOORD
 96 1
Ni 4.552486619077965 1.8976247341056562 2.0705553903942264 0.6822792477327347 -0.6307103745165074 -0.8465105190424002
Ni 8.254522555402353 5.113371105390208 8.425119629733365 -0.05324189004327605 0.14293919470010866 0.8625233495308886
Ni 3.5815200515900916 6.3579821306256665 1.80166150497168 -0.7986432630474762 0.4520223043515634 0.08039196809550671
Ni 9.209354229371126 1.8487844762965402 6.751611439564387 -0.3780696641234973 1.9807164260890988 0.4293426033658606
Ni 3.8613738020762165 5.922349273210997 9.232248911134246 -1.9998572606836071 -1.6896325812285418 -0.5984276032234017
Ni 6.820657848056845 3.3435651256874603 7.004770791835449 0.05530108656514992 -0.05107599274020881 0.308985664841642
Ni 8.365418670192465 9.056781712423975 0.7945494396646191 2.6865660049426054 -1.460434675239504 0.40128852544212185
Ni 1.7320590404130833 0.29251236683175547 6.936706749059835 0.37504913212961866 -1.5014820800991173 1.799049732911805
Ni 3.0739891448237846 3.3083667767009284 0.8400218512331598 -0.525151934457702 0.107873204234911 0.5549538483104829
Ni 9.01628229560693 0.5615767761145841 8.651313969837178 1.4708057340611829 -0.6370630562074125 -0.42171568294822215
Ni 6.666954683775216 0.8487667596332891 7.698885384834234 1.3565430813601607 -0.17020522950491335 -0.1135283456381593
Ni 6.910331156322691 8.158417531971512 2.781854896117003 1.1316553727107026 -0.24742574185097385 1.1152692180431953
Ni 2.7644883384114047 8.343806624421903 9.215293834917588 0.21743330925394166 0.9845455915726722 0.643650222506627
Ni 8.598832471554969 7.050568496202681 4.587653458220749 -0.09994932140214399 0.9045570295631711 0.062341795462015216
Ni 0.10615851710661543 8.281194711374772 10.569178217990144 2.4304769309896788 0.0087458645134301 -0.6495601602331588
Ni 3.775982125519633 3.5520490800847804 11.74386797318909 0.4695145475990559 0.9896489742375084 0.9251399959208454
Ni 1.189765361912053 6.227234814274431 9.23686139620286 -0.3284825972239891 -0.04918726035792819 0.3259662585600386
Ni 4.774927580735348 8.606144608824684 11.363273545200752 0.4035433829145695 0.3325701370298014 0.9912044916500864
Ni 3.8254896506081146 3.563049722593209 8.870291628962631 1.0159367042894438 -1.3074784626230256 2.529875522094675
Ni 5.296841804412423 1.7503069469835102 6.04184386830382 -1.2489781523942878 -0.274884609392875 -0.5104562801187402
Ni 6.535975677396423 8.295930197127426 5.553578450708972 -0.8253961056612882 -0.4208924157159784 0.04602094681480461
Ni 5.44477125320732 6.045246931428584 5.249634497917532 -0.14687838185351476 -0.029093574931846666 -0.2367654339236503
Ni 0.9483999588037758 1.7199740885756853 2.000619292195947 -0.6146314666767738 -1.1402749960589138 0.48587344857305353
Ni 7.679189878971627 6.7007536249953 10.583136152010319 0.097004122730891 -1.8251101774442826 -0.6414982091606306
P 7.555356193042707 5.3253489454030944 1.188439168194314 0.36245818283848547 -1.0222343643726977 0.49538627315949524
Ni 6.363653902500274 4.549048339069012 9.997887142400131 -0.46909597200439856 0.5194050046715958 -0.5434602458485867
P 3.9584055856172875 6.807627600907013 3.818868876380632 -0.16992369370875252 1.4613692712386315 0.3905102038796952
Ni 5.516650767356752 7.187228542057183 9.710125347893415 1.1870551896372459 1.4745436038370605 -0.8205020107937805
P 2.2843895309079034 4.696746097836353 10.701875437613305 -0.4181220520596928 0.6968224356542322 -0.5397087492259544
P 8.56328195372655 3.5151918305009366 5.612527807800477 -0.04562345426606981 0.9392011019996018 -0.9458764571372485
P 0.06477404438429893 6.916901885504222 7.208923996237665 1.1800736161130903 -0.603282874433174 -1.036859056264408
Ni 2.952972809629963 8.867555833117233 3.1954781276738236 1.4144636078260284 0.046846013819261255 2.58023983347984
Ni 5.674264859303552 4.351704041196656 13.43846736994668 0.07114859512036778 -0.4159983208484707 0.9082745876240744
Ni 5.359286900639713 5.9160751072647395 11.807659651856543 0.1387444398924707 1.1159351337619683 -0.10363885443858926
Ni 0.5810767355939316 5.240253832081784 3.6808409326034304 0.8066100833030366 -0.5959567730854058 -0.8952658340692323
Ni 1.735729010449594 7.722145210080783 5.270021366822369 -1.0502007676786365 -0.19621039531942336 -0.8547367636069344
Ni 8.93344847695458 4.363881669045077 10.710787162833276 0.9171626341423237 0.7701394991808285 -0.5565541029180673
Ni 1.3982122459049637 5.44021159346499 5.922819140586882 -2.13614629705705 0.21943439884437047 1.6684214943685653
Ni 7.414803754725239 5.558883225579929 6.3413931246525514 1.7169649504949074 0.9246895386469882 -0.43355972677100163
Ni 6.808572896219448 7.141372451803007 0.5555658100396329 -0.7500720390069922 0.03858377381046903 -0.07646255113411349
Ni 5.479496954537635 0.5097356690685435 3.8279168353368065 -0.5827942675615189 0.0017594058932679374 0.4951762140312182
Ni 6.771799055045525 3.458983829815493 1.9750240314716174 -0.2073119045492236 1.1968438935928936 -2.4344186892462463
Ni 1.1835931395779218 3.9973758482524553 13.057643105451005 0.4701107864221581 -0.22532736729003774 -2.1745539503009708
Ni 8.533671968204704 8.968294657099223 6.375262499641013 1.5953039484472846 -1.8866199639233057 1.3868309337104243
Ni 3.6423989232310943 1.6564910210249368 10.533056815933824 -0.30236558842196315 -1.0635311662389553 0.9296391693427797
Ni 1.4380351278415429 2.6912464868999355 10.864739625584559 0.33547702626395126 -0.3154085376488503 -0.4728868065053985
Ni 4.541411835760718 1.0667935628856466 8.612371510005318 -0.6877906644692672 -1.492127892577727 -1.7967807343719702
Ni 6.35203233071799 2.983379808846607 4.050747036240486 -2.473118419809289 -2.812167993915847 2.9339364680756113
Ni 1.1577736029069166 1.4666349448432379 13.20531491493526 1.6889229567560269 1.3068817095792913 -0.28800032083922655
Ni 3.3839811340945865 5.513221754948901 13.296031755085224 -0.23603832594963867 -0.2147843016668688 -1.4138766249743069
Ni 2.7126731806484505 0.3286819604138083 1.160589100121795 -0.526773529221525 1.1865265708272856 -0.6634554301580122
Ni 1.5346498693330106 3.073127257921271 5.1016373956345875 -1.072368304914611 1.2581338507516266 -0.19890645409434776
Ni 6.180396358303412 1.238855844950931 11.238321259818784 -1.0155646656620059 1.2020935720276071 0.047539183231543936
Ni 3.981463377159808 7.874393360989353 5.900167269972643 1.0183216595818527 1.456155845358492 -0.9108688307138119
Ni 6.2523778160649695 9.344892895492249 13.33741530104743 -1.3222975299137292 0.6263667528358309 -0.03695112330305249
Ni 2.4955981600293 -0.07287578126792878 11.693843315959098 -0.575790582550176 0.14425945617342897 -0.5139439815570245
P 5.804585866004081 2.53119501586323 9.396442073103568 0.7853213491275896 0.07965329015726927 0.2160361717960989
Ni 2.6098862168228516 6.980004981409776 7.419153039922548 -1.1118329386681367 -0.41200025543267105 -0.008307748534746983
P 3.0905966859991048 0.7242732205058853 5.306549616567081 0.8925875159061208 -0.01602979976935304 -0.19322303055632528
Ni 8.22399507737138 1.9759637662233904 13.423126709842043 0.1933508143834412 0.677329102816311 0.06468818420700473
P 9.121339821702591 8.985022677088873 3.0324925341281306 -0.07847443935781968 -0.23719197993810762 -0.28863178377563836
P 1.8179511674291913 3.4941265731954108 2.8138661170844546 0.9401264420273486 0.5238987787768913 0.8317966098709932
P 6.158876988543874 2.2264299536141254 0.17317624771778098 -1.779387735706503 0.840965677964771 -0.5861960941542163
Ni 4.117817592177934 1.2277069208248654 13.160797993040365 0.3411439947417415 0.9482650119740831 -0.777242685884513
Ni 7.169342071929745 3.300118611719882 11.688878662048598 -0.15758959762343183 -0.07929333571468924 1.325504466886801
Ni 0.1479062797921421 3.9612785419590004 1.4462962674641322 -1.7918933243726818 -0.4336836539433757 0.5018636533537228
Ni 7.481233919426519 4.838086282247517 4.155217923186372 0.5387880371838978 1.8543922142378517 -0.7649070471372955
Ni 3.069318273868226 4.974607314085484 4.496639128075401 0.1341136259886787 0.11278992481023803 -0.41407822100762237
Ni 0.9197547305566797 0.9062231061872127 4.819816133434443 0.8181666777923846 -1.3952885775594743 -1.95796936220057
Ni 3.3167076176929973 4.723955774672702 7.183938543665867 0.0062362107176989375 0.7924872707484093 -2.8015657929199684
Ni 1.0001317081568093 3.834710913704902 8.337115416426043 1.3075967333684448 -0.044768819575258384 0.12263802124891138
Ni 3.15793507560841 6.918254955265158 11.083894295891065 0.6931272461908321 0.03959755978696406 1.0166658691459847
Ni 7.721311125981576 8.258470553471934 12.15293247176369 0.5556922691384042 -0.020402217805435833 0.13770237178120154
Ni 8.694742875362662 1.490100510834259 11.025351786487953 0.4422258870864319 -0.09771554697561881 0.5975490572731903
Ni 4.883339978430042 8.676745194021997 1.5530998096074677 -0.2655435344976072 0.25001818516849844 1.5646620551917119
Ni 2.2111940174019455 7.689671535818327 0.07384887938367017 0.21591841527131203 0.24463969446540446 -0.7777175686384026
Ni 1.1786442405892938 6.261061558297823 11.83565614802648 -1.659013056570472 -0.5485566865348875 0.5154280223017188
Ni 4.666125943794357 4.090033324073241 2.9617149377497625 -1.0183831089474074 0.6072359455436509 -1.8942741380344537
Ni 2.673119059143838 2.378603963713876 7.1035309829821 0.4256615549698476 0.13264141231852639 0.21794650144493433
Ni 8.169344033671123 5.522822989690884 12.661463352688934 -0.23771211410763576 -0.1800723521069802 0.4419217255824518
Ni 6.98590844331194 1.0870340036930677 1.871570727126763 -0.6936116420264183 0.9814255578864516 2.0946720890726636
Ni 7.939183160295525 0.7398038664331181 4.506323771227303 -2.078772130012956 0.5350421969882205 -1.0734579384343643
Ni 7.378011378349112 9.204340457174782 9.913490806201935 -2.3094836444330418 -1.498302396819555 0.1584221208270562
Ni 7.584215502875266 7.417000176186484 8.285287284021546 -0.6245484686801696 0.8519098356811006 -0.5085523782278081
Ni 5.730306043169155 5.934360084239575 2.7243846481614264 2.244992920948824 1.8121412759884405 -0.7574912142891986
Ni 8.421506192063578 2.801002686754463 3.356578691155309 2.983526877409229 -0.8041384818340925 0.7942078529839418
Ni 5.737766462056506 5.524509693091502 7.944096842399965 -0.3430478966326737 0.17529935619836906 -1.0251937041113377
Ni 3.7652502434431705 2.5838257225231867 4.225601646517893 -0.9936426687779341 -2.1799093010756136 1.2455801824563322
P 0.5473426675815629 8.858584795250207 12.64552585907331 -0.4870481856074451 -1.2431353204602655 -0.10499382580458691
Ni 1.3151003992195456 7.460168662120994 2.4908790975480084 -0.8861129639253706 0.09392882623967694 0.6579756379903636
P 4.685133793655171 7.533873893687578 13.426327739262778 -0.631287587176216 -1.3862393228730125 -2.0040412168579675
Ni 8.290397439269354 2.7484090504989163 8.981842963150676 -1.321665809867001 -0.004885353116759328 0.22004092208011783
P 4.829041103571671 4.038051349490447 5.544938266201299 0.3415967660084439 -1.484792021037946 1.0849255727543314
P 5.492453060878649 8.135128050401434 7.527407888398504 0.004541082403463147 0.3651547558340421 0.7136019691054162
P 1.7694445432597576 1.0177401502511776 9.30898094122084 0.6731821705274729 0.20906488268458837 -0.017878165832001466
Ni 1.1251145766224147 5.905018859149696 0.8579602199267699 -0.30309398194755544 -0.2724839703711823 -0.23620853297891578
