# total energy = -340873.02102493326 ev
CRYSTAL
PRIMVEC
9.25258111014165 0.00000000000000 0.00000000000000
0.00000000000000 9.25258111014165 0.00000000000000
0.00000000000000 0.00000000000000 13.54208771992351
PRIMCOORD
 96 1
Ni 5.767457538001594 2.5742068052253018 8.147542419406584 0.11250478946965141 0.18303426294878153 -0.4837404613904508
Ni 8.699193323190991 3.212514606285913 2.02937690410722 1.0125168799746174 0.26090192196053774 -0.924827092666117
Ni 9.065428981816256 6.196018581814565 10.440705779720588 -0.21440532106089527 -1.3740062711419305 -0.0681242064717472
Ni 2.443967475964294 2.7295946494714918 9.843404492112084 -1.941759585209927 0.21198411321391233 0.09156855353761649
Ni 0.5278819486168468 1.2324715384735756 13.060097563948881 -0.30858585830006213 -0.9473350439606458 0.18954378193252516
Ni 4.562244102966703 7.938918000226529 2.330837094112815 0.49139283572938597 1.2141895839601928 -1.4092854060591986
Ni 8.534034753475945 4.229613818302506 7.15765689844018 0.2738147733674639 0.035858404459505985 -0.3170769264902088
Ni 6.480470677542837 8.026493678789718 6.754102805124064 -1.0222464485575558 0.780717788917307 -0.3205692559141834
Ni 7.638755022068221 9.007794655163313 8.620229021705327 0.08391617919868129 0.4853638559264866 0.028931852543001787
Ni 4.470634299115237 5.86487796268113 7.9475127226583675 0.32323728966464976 -0.9803289823881632 0.3967793247178586
Ni 5.320419090058599 6.956071842836552 4.159573631130016 -0.18699350470684567 -0.5938942341294223 2.127851661148426
Ni 3.1497636023751316 5.5122528506133355 12.31089480459103 0.313986203380027 1.521506088629528 1.5064795333137089
Ni 7.203985496446914 0.7950372695425815 1.3645003168876868 0.2444450619560951 0.4909282373881416 0.5636308072591906
Ni 1.552148209826789 7.803747045326411 7.057634648001323 -0.4124124032694252 -0.11614238622223867 0.6337296209588054
Ni 5.3340481417779415 8.530463257234487 11.041053942231454 -1.282345929221456 0.5382627608080472 1.2152257385341911
Ni 3.5152405493636096 3.288765125782927 11.930078003668067 1.5864799223977517 -0.8087767519370522 -0.7335434452243497
Ni 3.390978387387527 0.7015982304399854 0.6203550182696809 -2.03895216980254 0.9364412798662776 2.2102138655964256
Ni 7.447356132817495 0.46940286132440934 12.55531653415599 -0.20717537897135932 1.0596518857892072 0.37620715699346174
Ni 5.2428547040686135 6.451093733069713 12.44883505696542 0.06092023252414024 2.4595111134384995 0.25902373110121846
Ni 6.86047417660149 7.683000864106167 0.6269354538316606 0.2593014102426373 -0.48386130323903115 -1.2063634030475547
Ni 6.05512953189574 4.405588655132224 12.472939880820974 -1.4351974979392703 -2.6566543049848375 -1.673005257084506
Ni 6.731585724157199 1.1271401570934028 10.370354705828634 -0.0599162167396581 0.14972382172210988 -0.25298780931978365
Ni 2.386786525777236 6.997042271223007 1.9842539173965006 0.47752379105677756 0.42640820332788504 2.609480475512512
Ni 8.19292910467399 3.327422408935278 4.447560212776 0.5406878253097721 -1.683176284080237 0.8603096297090216
P 3.884196466784181 7.310205125596983 9.925699722734858 1.5246402633831355 0.3114840057834635 -0.2311745700994341
P 3.61745381096821 8.611441845590011 5.125504220052035 1.3919394585815834 0.29793223524095785 0.5853656278331208
P 7.9194875802600535 2.235941698770827 8.806026398457146 0.6439713532914715 0.5021747568362384 -0.8145763893379648
P 0.16168607608960905 4.2247654658918234 0.1784119666483704 -0.91388807715611 1.0345581760453733 -0.14292633918430225
P 6.883781427980326 5.9893251762759405 6.591123218219544 0.37040520559970397 -1.4673314023593376 0.1501521675087801
P 3.544284400923023 2.878191099310351 4.455631239126837 0.38491985427611125 -0.5088534544079946 -1.6928228060310653
P 6.828284447523695 5.7511729955535 10.773773711463077 -0.13395935979900156 -0.5536238166451497 -0.31333751405243454
P 1.824433161623673 5.0008812074194315 10.877843966061617 -0.9017010481716148 0.42572428988698297 -1.3318190962509193
Ni 1.2027059856011217 4.81231360793525 5.384903102378772 1.3420433450820888 -0.4794428624563615 -0.7352097771831789
Ni 0.4227855827924587 1.1962199263646933 7.975084488590797 -0.15000278641510942 -0.7737853234635319 0.6074040956903991
Ni 0.5823407894924109 3.4706893721547614 11.647725318554269 0.1428090968801476 -0.9827792437008688 0.8982619405830788
Ni 2.2701669956546335 9.230791108311903 9.812907985345653 0.5198279511416274 0.3227194694879668 0.1687345584966578
Ni 1.2470721111912422 7.538753127307423 11.5830081411945 -0.3732280197604798 0.8669597880356875 -1.635634272635215
Ni 4.898806734528877 1.2210075906933548 2.882351984957458 1.1788130042331117 -0.0006931694122826772 0.4428033568564568
Ni 8.707974022499652 6.441600585028949 1.2981056466041445 0.10654831477590036 -1.64487327473498 1.0712413903990197
Ni 1.9851689976511122 6.7437806258313975 9.318134547093587 -0.5852730681193147 -1.178733557145428 -0.9623001499109104
Ni 1.526111447071711 3.0310714941227723 7.360016395068185 1.1251116580549139 1.0623947386416672 -1.0888963844766215
Ni 7.730448099148115 3.382410497440405 10.592174230682112 -0.5332683929172494 0.5319170210956775 0.642792502492022
Ni 9.030472731038472 0.9164949742368359 10.601992144313744 1.3524180034481934 -0.06498720350466226 -0.3884445795999181
Ni 7.362241640783393 5.449622130254728 4.159073066501356 0.5480591780731787 1.2157697839631192 0.6035885785990508
Ni 1.7304084341478019 4.667408937890021 1.9176408862028587 -0.5241355773780457 0.7999684096168029 -1.21168070149541
Ni 8.356588756277338 6.707538266303452 8.261756278485716 0.3349010991558233 -0.1965569800255647 -0.8334428872251645
Ni 5.347723456401966 9.293847447393587 13.576349018328653 0.24298030448511057 -1.171289442162557 -1.2671877334237789
Ni 7.246880461668145 8.191263640105436 2.8350093040800926 1.502161108444013 -0.3840274243688289 0.9100375930617682
Ni 1.9998250858543969 2.9774805453390436 0.1384139845183326 -0.8937540254103963 -0.5968450892276301 0.3425308477869391
Ni 7.901824403252434 5.717021719317184 12.604203470791644 1.8371030881401007 0.31260346409988743 0.880487133098161
Ni 6.362065399299507 0.10101135134095986 4.536301716537177 0.19829273176974882 0.25636495332213266 0.4322849738236361
Ni 5.422327016492298 2.345732824162353 0.5680427761713654 0.15661154998087867 0.4858647068223052 0.07217652216424988
Ni 6.719834946367949 4.57410591172719 1.0450133234436703 0.03471246378052086 0.2981260964193188 1.9520825644024897
Ni 3.9267305813488904 3.9444400212611925 6.210455383849657 -0.18577068804333813 0.21206818828728635 1.1432461628720956
Ni 7.474521710446815 1.4208170760152836 6.380761164339631 -0.3951199347375647 1.7626704229518222 0.6910107140684616
Ni 6.748046065643086 4.798629040730289 8.779443733426818 -0.003552236127632592 -0.08345132374712079 -0.5130266119490777
P 9.05418709597851 8.20925065744583 4.295766996223608 -2.0787700731304266 0.38894003117909787 -1.6369843589052067
P 3.8993614469389684 3.7120059355574573 8.649100775259322 0.7548784592566999 0.354163546929861 -1.1335520755127835
P 1.3753406407127933 5.299998643931926 7.457817100824208 -0.24904219440847433 1.0965091638268727 0.19815954862599422
P 6.443913730263053 6.2506365670822355 2.3942949952071384 -0.6719974061907523 -0.06999339847000204 -1.0432726731002353
P 1.5103172914132468 1.367503704659648 1.7913746151959484 -0.37988152052125546 0.5315133578993556 -0.45595480663675025
P 5.692011993046048 2.25385469546373 11.929685694236364 0.8522047412137 -0.1066922965529324 0.36459502667583016
P 6.912307135007299 2.449713328725809 2.8081277806855196 -1.6490502889308052 -0.7371486460771047 0.21128451604372644
P 5.300563051369047 0.46822778354548433 8.501762676427816 0.09283533606518204 -1.0193691270097605 -0.3639363100459087
Ni 3.384991967521665 6.579325252267519 6.025253873310143 -0.2425686708689887 -0.40196112602911416 0.4766732701310242
Ni 8.84614281362317 8.939205272681653 6.261834040531487 0.15514962072337152 -0.4507730053254947 0.03942915252989984
Ni 2.6709147811727343 0.15365946212726714 3.319883405988285 -0.10713632606888646 0.5638503794691645 -1.0208169151998807
Ni 0.6097682151622323 4.231714154175073 9.241553710457145 -0.6097052330197499 0.12293395522277537 -0.13747637181332453
Ni 5.526298268474817 3.899574256300506 3.8504486030766927 -0.24353591987826445 -0.9861414753048824 -0.3752512208380957
Ni 0.5249461046857216 8.626727109296972 1.492608776759038 -0.2961995688205673 0.37855097463528997 -0.06396261889488984
Ni 3.283065535926094 1.5104190698035473 7.999974856567853 0.6133235464986275 -0.19696809942105434 -0.38315170663209497
Ni 2.5288876637987303 1.331039283189228 5.59212390503077 -0.36956034110090547 0.0337092193269871 0.5718043442089185
Ni 1.7330361671337444 7.532442867108787 4.3849822321287295 0.23679860115443088 -0.8618576909224317 1.0630529410509564
Ni 4.65072653446166 5.053741202309183 10.295358836306598 -0.09262707670911789 0.3755553823420758 0.2612924725307371
Ni 1.4394147636974823 6.731465440605026 0.06604122169177117 -0.45255040894089166 -0.7816305305395636 -0.46762221567234946
Ni 9.012744785964298 6.589836184211288 5.857778457328617 -0.6879881251920539 -0.33796533990344374 -0.17987823381830312
Ni 4.1715076100218065 5.183351356066515 2.160098292835015 0.8656760362272575 1.2998044910175355 0.9742642642513221
Ni 3.842393306113448 8.196537611239194 7.6762103949569305 0.8840146866354452 1.1628922192377973 0.7302449769787359
Ni 7.744400991200232 2.714799772554161 13.31432332827407 0.3316620233932353 0.6455682654649463 -0.724520672900449
Ni 6.440295971116914 3.8394787431184767 6.114117511139681 -0.7835208055837409 0.612400777574042 0.25203264449536594
Ni 3.480645149242346 2.761025666912501 1.9347035707077058 -1.087183515550573 -0.3316149722053837 2.9356177124327765
Ni 4.474039248899839 1.5367889254723364 10.284755378553465 -1.3313961497808877 -0.09073834432683728 -0.15671387988669785
Ni 1.3869156194642511 3.0109378780051284 3.599893337608984 0.941974808089997 -1.8743090077664364 0.7624243899247579
Ni 4.994904040134506 1.0568945626241235 6.166755444086958 -0.6929742655527356 -0.19952788972843055 0.37838308159885803
Ni 7.6280405333438495 7.886104268241461 11.281818126552245 -0.23631754775295427 -0.9938365299562949 -1.338322701697392
Ni 2.9799324792871946 8.858346967878303 12.255426507135304 1.293075399823818 -1.4449869732258664 -1.4107496493095508
Ni 6.09247294855512 7.179799249879119 9.325771627398508 -0.13247711882652025 0.05239419733100009 -0.9037062515271017
Ni 8.948633652655861 1.0109740034366852 3.1759715378775333 0.04135130925327717 -0.3001238435756379 0.5739836112484243
P 0.43431152286495356 8.353933265548585 9.077626659264736 -0.516986110817458 0.1450788667509308 -0.06512270064126204
P 3.1760686899773654 5.933310051286872 4.110984627600515 0.2535418820510408 -1.2411175186992884 -2.358586315496964
P 3.6685373103181695 7.5684631646942595 0.32731190114194453 0.5338543473277064 -0.2358385512340067 -0.3452801283973021
P -0.31650118557583473 8.186803896094082 12.942931206292938 0.3954878595999447 -0.4293698570593702 1.4506673114400952
P 0.35863096235362296 1.6086444690245523 5.2982600839739735 -0.7386131464377731 0.6183976185874254 0.861002027790356
P 9.465667875382854 4.8937918356613395 3.418577911062766 -0.8042852918246018 0.6360428424730142 0.3272785496135589
P 2.257148614277095 1.4325956115473426 11.655498411798952 -0.7384858768312894 1.2483847417846627 -0.3043317110093985
P 3.929275041106405 4.057154962228627 0.411117152973543 0.931671112171144 1.1029402641641972 -1.674169709706252
