# total energy = -340866.3671950357 ev
CRYSTAL
PRIMVEC
9.30660987533773 0.00000000000000 0.00000000000000

0.00000000000000 9.30660987533773 0.00000000000000

0.00000000000000 0.00000000000000 13.62116427910138

PRIMCOORD
 96 1
Ni 2.2241029475355667 9.069803239736732 8.7987677694241 -0.9943026709594359 0.2751607458723971 -0.538586205585737
Ni 6.092060326729089 0.553282613607204 8.965558971256643 0.6291898241069229 1.6584325014766537 1.854211208575297
Ni 1.8069248508407276 2.9070219841542095 1.7014604857988938 -1.2237687430081956 0.6506341100236279 -2.02628331608562
Ni 8.404576068593862 8.594654269791723 6.004454415480761 0.7222743000684335 -0.8525418128381448 -1.5814986671330762
Ni -0.1673393611573839 7.113153648351978 8.6431873099125 0.7591986838986086 1.9104430344848324 0.9749085827035403
Ni 0.0032666200852159125 -0.009362449588966404 10.02079079942252 0.9242570790952599 0.5556421326267592 -0.4490737632462008
Ni 5.086527656908139 0.8229165084644716 11.440729126840344 0.06851347149036588 -2.1738173292452627 -1.637992745565063
Ni 7.5327328504086 1.394353526060937 6.988719620291069 -1.0448217627549103 -0.1494147751221233 0.809620073773954
Ni 0.5746729258689142 2.8287533946480394 9.469924181752987 1.1586360150646047 -1.7570744169212835 -0.23833534951393145
Ni 8.38705172209682 4.83186158280031 4.94938638364964 0.6891890874786905 -0.12648259180598218 0.1632233988704415
Ni 5.498280000014144 5.167886040910867 6.414628357542742 0.2922215580094258 -0.8912952794572586 1.1212174652068303
Ni 0.5029077953814014 5.712946264645455 12.182333784351735 -0.4564715983721687 2.399371982054758 0.14329683514984354
Ni 4.620610844013084 0.2520276501928476 0.6062381547664264 -2.4570117440554133 1.1202707850228448 0.45702592821374194
Ni 1.8463011174519772 3.7857334804673606 12.491248087737977 -0.8758609471800594 -1.0436822498338283 0.7564175216090456
Ni 9.48883335180752 1.3948281631673358 5.591201846854139 0.13241001303401068 0.3933026790231678 -1.5182377022909013
Ni 5.29556342253217 2.2624368738347247 13.049456689980808 -0.09234734068516998 1.5272051958968342 1.5804740825233041
Ni 3.914871999847577 5.182339206131211 2.2010709492823124 -0.47976142213804474 2.089303882782215 0.8063182630942307
Ni 5.958315035433825 5.849018208423067 11.632079541615553 0.8054186340980968 -1.4532427854767553 -0.03481505079665617
Ni 5.267466767155342 7.336893857664444 0.9075470965183732 -0.9984678580807193 -0.11700190600905656 -0.4866254962477297
Ni 6.001581464995558 7.884373799980675 5.542533860889387 0.36610426423150494 -0.8468442482327351 1.3142060111548464
Ni 1.3441815919315951 5.360523559839312 0.8218630002204648 -0.5624216174424379 -0.54867341461841 0.7328299640970928
Ni 9.24273866544466 3.1656992071416066 7.051077629461953 -2.6976022081521087 0.33585832086276995 0.08210663679376827
Ni 3.5716721454814597 6.686836460706479 6.387740630795741 0.8179545617815784 0.1651100743701931 -0.11235823658945812
Ni 2.0898178728643977 6.112916439580851 4.254257074803637 0.801970013427864 0.23635945673448325 0.07771904924903389
P 8.168327775536294 5.107374463149973 0.47880274500328823 -0.20418724287731285 -0.3076795444357088 -0.8609578048159817
P 3.953978374770874 0.9098160480191585 9.19899852943752 1.9834885895175967 -0.7682448532612769 0.11618583786566443
P 6.067695621933946 0.6954717920914042 5.297189287286834 1.1011152951403167 0.9444032150258315 1.028481373723674
P 1.0871795587314885 8.857324028438828 2.3148219198052753 -0.32190134446204566 0.10562246052752132 -0.8987252533727426
P 3.324209387458978 3.1364578387434627 9.085303398574133 -1.5429076942337556 1.2025064911953098 0.690965719763139
P 3.6768833707332145 4.190124295119218 5.684589024190604 -0.3944499052537336 1.0544698273676356 -0.5938037312981451
P 5.213590802274102 7.687827504881886 12.200762733333914 -0.250173222689124 1.690099236452315 0.38095701297362133
P 2.281171079622587 1.225531621941801 4.860167636900549 0.32672190577914056 -0.19750700264365983 0.9628092283368451
Ni 5.049478042779237 7.937486622847703 9.891744415480604 -0.1977962517493045 -0.8109009973689068 0.34887658749930883
Ni 4.712867268243127 3.098840521408868 1.6738096170376828 0.4641805369806522 -1.546549404751401 1.6300426374800507
Ni 3.8747512044419765 3.4517471699313393 11.30089452066828 1.107322452392293 0.9811571347164134 -1.0062770697124928
Ni 8.729637340207598 6.067044159238888 2.381442356323821 0.27193324007403497 -0.9859177893298504 -0.0446844873915682
Ni 4.829348798119375 2.9582269519857136 7.598280234802287 0.8433804580538509 0.10807632138465258 -0.6532106125015524
Ni 0.8488326251348441 1.4088346111110677 3.286337069012318 0.3490717342292505 0.3685740659282362 -0.23468541146617
Ni 1.9590600033564671 2.178249280413462 7.110043379313576 2.7047465325063738 -0.4174335106331004 0.13055599054440742
Ni 2.474366995146795 4.799781698373701 7.288807534820279 -0.5402792770174437 -0.4636056383137887 2.265508267293357
Ni 4.086392820846236 9.112008715766517 4.793124680291209 0.23606506542251604 0.5570986625676277 -1.6764723896974996
Ni 8.488484463717242 3.0614465627125793 3.154198098590866 0.7641807104942323 0.9823323859714373 0.10345836299666697
Ni 3.272129598294111 1.4829617591986595 2.888844313640125 -0.03702954194947171 -2.096636926108518 -0.6528604282509852
Ni 4.190459333076675 2.2666993011823853 5.132890395593381 0.13290906415761625 -0.7851133468818413 1.0851189197120603
Ni 0.16272607461538527 4.922973294009038 8.349433474101232 0.12670010713342694 0.32047258243531906 1.1134897575452694
Ni 7.190417123985775 3.059324655648678 1.1368731331104596 -0.12965276200384768 0.27639770360329174 -0.4114968334336913
Ni 2.627684087123567 1.60899187086246 10.693444645289047 -0.7873391508885665 -0.5922345870388124 0.19223546983207537
Ni 0.7859301792830897 7.7164639436346185 0.29427593662830676 0.2116724955107645 -1.0824709405662518 1.0369922394081623
Ni 1.4937388134968934 0.5953066107433648 13.378939531972 1.8488715415299384 1.7177185408314803 0.37675942995250594
Ni 7.895690637654813 0.7230147041774341 3.587065278304671 -0.7922759260685517 0.10905719724068313 0.6390942277048284
Ni 5.780437799853392 5.063810222070497 0.7498121568081199 1.583347547416357 0.3076510051906185 -0.6933257353548834
Ni 6.777240869560574 9.482690989254124 13.561081056222077 -0.9750109126093595 -0.10461073143355532 -1.2937081483118107
Ni 7.458177598264256 7.113646898678235 13.404451741771434 0.4293618866395702 -0.9369223332677541 0.273211078345194
Ni 0.6825951665931 6.501029993466206 6.382509385354431 0.6279888618202862 0.2542239957197299 -0.5490264270824545
Ni 1.2765039245250704 4.037486585667291 5.411484694490666 0.26360595115526214 -0.08855136397784749 -0.8397153504974376
Ni 5.521164953830514 1.5076708085611903 3.388496656868226 1.4134734759986174 0.04768856432521464 -1.2246004948808715
P 6.307657252353338 3.682979200236965 3.2320981463438327 -0.047921763381943275 0.31272327750720336 -0.6231143073368043
P 9.645463596919155 0.8083181601292305 7.627579304181993 -0.5153601451782609 -0.5255018615979531 1.64851601369389
P 3.0552576671095344 2.0102184381383243 0.2149091671504683 1.6439661895396782 -0.08161684164154331 -0.08595557822621326
P 5.410276696521831 6.8038484673487 7.920774743397497 0.5037086769822616 0.6576892170981964 -0.01884747172380625
P 7.078225941286977 3.9178873414646995 7.606507277979867 0.1470493602137403 -0.4157224414792647 -0.09938033627255143
P 0.717553585470868 2.1079750688366374 11.639543442778924 -0.8976273923228735 -0.9569733383813583 0.31566307686181766
P 1.0384408425312728 4.621802090084046 3.0891439645234366 -1.7471910963693007 0.07605837371715932 -0.5006863452161701
P 2.0929355871907434 7.0048619352135955 8.08661294837327 -0.5756178044177377 -0.3024517203778662 -1.4908767937794452
Ni 8.614589028260477 3.6970880208899204 12.268936443049673 0.47226614220226404 1.1791091953172919 3.1587164475026115
Ni 7.760000264884305 6.090776014558832 7.09226775434844 -1.3841546724298421 -0.8121657230139433 -0.9509996372964268
Ni 9.025326950884178 1.509476290887492 1.2368019265662926 -0.48143932406109985 -0.6052029742740223 -0.3009139435771011
Ni 3.8132624326384965 4.114359183684053 13.52570756254146 -0.4084264220384836 1.1412278468904862 -0.062404530379150586
Ni 4.558712581372711 4.989152597216931 9.245910358108596 -0.4505727163892305 0.38889760797693673 0.09430395019090855
Ni 6.811935911377339 5.90268012127593 9.387066502890635 1.0104186026846922 -0.24557043380978996 -0.10719546144159603
Ni 2.954606680723181 7.92166538596774 2.5414369409249304 1.0762072190447272 -0.5367761489601917 -0.3513088510898853
Ni 3.5428495745301385 6.0288777519184595 11.801471940923362 0.18678087447540737 -0.8378998945552537 0.34008521445992396
Ni 7.5481166766218815 1.9075293041774344 12.16939387390591 -2.387939057627468 -0.4469706008602689 -0.3850962319529755
Ni 4.621839316523764 0.48011218502035335 7.156165076801647 0.0815106550809822 -0.21380291159020595 -0.797801226762155
Ni 1.8577668608849855 4.811033389778334 10.360243812631067 0.4893284970011896 -2.2326153732200775 -0.988046148526763
Ni 7.0999568754721025 2.911256491672082 5.157299772116186 -1.0457653576151023 -0.5495738149454923 0.44172040820492314
Ni 0.9402095747265606 8.634914664346265 4.570036864334793 -0.053351933258579086 -1.3728533884844099 -1.3421911835138627
Ni 2.507582285984788 8.796105148323301 6.304324555337624 -1.8229622778633445 0.08528554874238214 1.9731805227233696
Ni 8.365795425018092 8.326233026208255 1.9026042462028012 -0.7454119145271614 0.3182629763785099 -0.4325953059752034
Ni 7.528991593216985 3.11147889769298 9.96811817920515 -1.0411530556540713 -0.26747211897888773 -1.5863534241222164
Ni 7.991371894338871 7.458112451994751 11.047826391485327 0.37853503379569003 -0.4122866763248383 -0.30801018830225013
Ni 2.108440399333107 6.925532392175475 10.180403813016525 -0.48937349130651203 2.5251315796517866 0.5388338028201688
Ni 6.212376179896244 5.794574540336136 4.323684384876888 -0.6181001419516645 -2.871171983253881 -0.521768876918082
Ni 3.0633730309679623 8.365116042493247 12.422951530771149 1.5686518930773952 -0.0032113078484460825 0.16130407036054153
Ni 2.7698053273552827 3.5972187897376355 3.5668243323692406 2.0039188323474906 0.7043735085286127 2.1918564461351604
Ni 8.75631939087516 9.468824140459333 12.756234261596509 1.3224919053127226 -1.770577850724357 -1.8493577371377374
Ni 6.232785575471396 7.578298012622894 3.103678097250165 0.4763783645984247 1.6489469305837214 -0.7075619335589233
Ni 7.221901385376902 8.385711570266988 7.771310587931493 -1.3440362071424012 -1.5998481161745415 1.4455078787263427
P 3.237481089526992 6.215856852009835 0.368778141096053 0.5217269679365532 1.0577909213210686 0.10125209937396756
P 6.388578225689385 0.07706245285932148 1.8791757863665546 -0.2763452530988015 0.09064218506860519 2.4828464457303303
P 1.052075026077829 8.18382328106873 11.833740749531536 -0.9891275545163997 -0.9051668952330283 -1.3305458859654502
P 7.364069158658264 0.2209193758428684 10.879509836285354 -1.8055088582735872 -0.19238613647732672 -0.7979518934074064
P 8.172981080500989 6.817073160058363 4.351281275300508 -0.29102728059100846 2.474421197781113 1.1770502559057343
P 6.068840334955261 3.566116099353614 11.445292157688723 -0.6728628395148413 0.48947890653612475 0.3672527760136514
P 4.216890105276144 7.049421983555515 4.250061655047468 0.16562095256834058 -1.0052031199220237 -0.9308858972656872
P 8.895564888638694 4.600890137572707 10.519134633294549 1.1410828366721897 2.8127884011086652 -2.859200412714302
