# total energy = -381165.0734361839 ev
CRYSTAL
PRIMVEC
9.30758465947360 0.00000000000000 0.00000000000000

0.00000000000000 9.30758465947360 0.00000000000000

0.00000000000000 0.00000000000000 13.62259097421815

PRIMCOORD
 96 1
Ni 3.3422419653483137 2.122855297232747 13.127382985875299 -0.1564580551221499 -1.7789743023181683 1.52227433425412
Ni 5.849109591053025 3.6504626318214606 10.725379262898045 0.8715260672501313 -1.297532150043591 4.9223338077487355
Ni 8.226015411957357 6.4404669833034065 8.062285689960403 -0.023542048985998165 -2.3795783443675984 -0.9289922797874001
Ni 1.0173003896778505 0.39450569943321523 4.302300709282245 -0.5780184434394303 -1.3684717144769465 0.20826552671174453
Ni 0.8194388239235758 5.741113686082832 2.2224846143396535 1.370618328506304 -1.5671755656421849 -0.31167272475550195
Ni 9.005646626989524 4.178975212354292 0.18378663621054245 0.14472174052182818 -0.29090746718369254 0.6329935141237292
Ni 3.978759758436011 8.200196172072214 6.372634236959162 2.1983130003937816 -0.30671692341212337 1.0726408418497073
Ni 6.202248661161969 2.8394927791925824 6.095741969739585 -0.32840546412915056 0.7830479797123804 1.8535686898952917
Ni 1.9503019849650232 7.894330324521541 1.8745503455803034 -1.9348183780054033 0.17310363409863092 0.19118645974227075
Ni 4.831306591802789 7.319828968115425 4.546253434341216 1.5048399408277566 -1.2080184221524743 -1.3116187100436443
Ni 4.138049762543559 5.049262302109347 10.585965605861412 -1.4523357002814536 0.835259114498297 -0.5897655566730294
Ni 4.4359017796900835 4.150391619821028 4.768465503119108 1.7510953165197132 0.13263344189872642 2.401693173988767
Ni 6.874563424905131 5.489780977135998 13.084198585264232 0.17262489468999948 -0.14716505985599815 -0.9829934165942039
Ni 0.7879270652519319 1.9406872499969796 6.598974219539887 1.759894145758266 -2.612824195173765 -0.30439393170590157
Ni 6.230599564078387 9.071823554020298 6.667059201428791 0.8369863816020489 -1.8969280307175331 0.16414128269902054
Ni 6.50153404634826 7.752743346463576 1.7054119861293997 0.7308059916885286 0.11034146326974544 0.8962582798894887
Ni 3.167352449327464 8.83766333879664 4.188633692970303 -0.25106822369956755 -0.7589310320595188 -0.3120283083227077
Ni 0.5220698704216215 6.52304387452943 0.02806329854999805 -1.8089564505025557 -0.6649908929659322 3.2281557732413564
Ni 8.787886375961115 3.3720727742278673 6.109459488031843 -2.953805696195713 2.85514604013927 -1.024118725879604
Ni 6.318128090350876 6.230115569675349 10.466958828222106 -0.5470559336196449 -1.0104360861861887 0.40353207006065994
Ni 8.328631532986089 3.146857147875739 11.76105003244659 -0.19565709391911465 -0.042214685694836974 0.007833122891173607
Ni 6.350295102983556 6.294952204513094 6.15630735397052 -0.05659358012432834 0.9375267996209725 -0.06695075498893631
Ni 7.090238776966606 0.7045273835407441 2.662494164484648 0.8663026140676628 0.20777033224288088 0.4768280505413336
Ni 1.351209989850707 4.73006799330578 12.116259109386988 1.2386880833221892 -0.7330346239087311 -0.012583750202281554
P 4.653606185210449 6.629187570149534 12.03105003321521 1.4988191885549735 -1.2172098588437554 0.20310635110830827
Ni 4.669754844619506 1.206765583297883 7.491144371621532 -0.696080158171569 2.032139774866397 -1.1561394738949962
P 3.065527472996006 2.595903980694357 6.3470244177291795 0.26562709535034895 -0.44150443553937513 0.18660681079138827
Ni 3.4801338322907767 4.067516885885443 8.126147820682801 -0.5811207365138379 -0.48651853835622016 0.02022352613572646
P 5.493494703420848 1.9322266555284884 12.758782156106225 0.2722883094206085 1.3888104260342986 -2.027443140721676
P 7.352247285534297 4.682096701896975 7.158862668008124 -0.3992069603227447 -1.1744184747098418 0.11303649360340531
P 4.994533704227357 4.800442641024442 2.808201610277708 1.956114568380018 0.19197990217784355 -0.6134870686596853
Ni 2.8111046459374682 6.860099438322034 13.223449359569072 1.4394830126885014 -2.099298532101081 0.8222889274908742
Ni 0.6490690710203274 4.114613264334911 8.218155156700327 0.05644239925844473 -0.13062361055754923 -0.10883222571407064
Ni 2.3502395908138727 9.044915326728319 13.046477736856692 0.12047032417363124 1.3817710026890138 0.3707517903058454
Ni 2.222651220105315 -0.08466179019295621 6.825395178107273 -2.535016957086299 1.7098152268240037 -0.9808971961868074
Ni 3.342223350178966 1.797871670762072 4.168009016091611 -0.6596172873588446 1.136628914665894 1.8182910976399203
Ni 3.673052139824792 0.5832421091732887 10.81024768147076 0.8268197254816921 1.249360732544687 2.153489673431504
Ni -0.041314506850098284 6.719852752457096 4.079012683716063 -0.6942389911977721 0.03270623198376948 0.7489654362063747
Ni 6.91293859651524 5.475298375383553 4.066316207462521 -1.8105896152306042 0.19152121737387018 -0.4594797890708731
Ni 1.1100690861216933 7.863103377940915 8.420477847788758 1.4178628633155648 -0.8814093878021142 -0.8065316646566175
Ni 0.954502115883669 7.302600628884206 11.791292236568726 0.293569587396888 0.9032233983534123 -2.3035569945359615
Ni 1.621064792298418 9.253116688296727 10.386993645255554 -2.170215213716301 0.011068856219651906 0.4830964000485487
Ni 6.535404346976247 2.832437630009836 3.970576529990799 0.7272786952615603 0.581678923010153 -2.0474640639282935
Ni 3.521143050363574 6.320017530039659 2.672779976307673 -0.18624917034165345 -0.3491529810891471 -0.33752362438033484
Ni 5.143818054810561 6.065678471243186 0.7331854367513985 -1.0407766461512593 -0.31075304115471 0.48513425641418384
Ni 0.8414428848509249 1.953075645197818 13.157175633657692 0.1586360366100752 0.12584778643546068 -1.9758758101673455
Ni 7.936772910634104 1.1774839219140836 5.317891295655517 0.2758073783174605 -0.15929321057809986 -0.7418668774883804
Ni 8.137016287306405 0.8960039462087867 11.011399478407226 0.4315902617494567 -2.3006976707102957 3.0571211058566123
Ni 8.861416294884197 7.366432044577181 10.008081873184835 -0.6363146080771621 0.06464293279136608 1.361706884949287
Ni 5.9248454075438 3.436481260170618 8.715529212706933 0.9420030902247711 -0.9505154985711567 -4.415369342833337
Ni 8.786080704534397 4.315927013244701 3.949652148885612 0.49586192724433314 0.23630212113398658 -0.019662254315617748
Ni 4.787784325868063 8.711936485022843 12.485677145090422 0.6704943392826647 0.4921397411977395 0.8402722514421722
Ni 2.336092062109685 6.502818493033246 4.652074156773141 0.40444763989639376 -0.035084502407958934 -1.3548916617996665
Ni 3.0999841514584427 7.540614184162821 10.783384130585215 1.6862942608839282 -0.14603557423724525 -0.2312954119480146
Ni 1.7263149597898373 5.916645425446175 10.00770026221321 -1.0592590212261628 -1.2891570386060185 -1.4299491050561373
Ni 0.7384916907739363 2.07243611105473 10.125604091068672 -0.6580008348013441 2.705447672338457 1.078295983252956
P 8.820695611936289 7.741769704133156 2.2244466531888922 -0.43531321912699866 0.18203127560556392 -0.49677132643247995
Ni 4.113533584512749 8.07628429730981 1.3918469045365522 0.9306886936532165 1.8816973298107074 -0.9513431366787743
P 2.460469316105779 4.545703356086995 0.5734253996178236 -1.4106370349910868 0.1558168219937252 0.6121958606520876
Ni 5.370951043605494 5.616801585179455 8.15231702575168 -0.24834131168670778 0.29974743407282567 0.7754195166328451
P 3.056769035817953 6.471805620900118 8.366491064405269 0.20238207134777406 0.3578757056741256 0.6237010330782098
P 4.960700633938065 0.055460174037351456 2.9285710183132605 -0.6536880663586032 -0.7339293678088586 -1.4738740885738617
P 4.091065075110176 2.315643298581329 9.56812630703095 0.47864839157952405 0.5940621271658543 -0.653765456563758
Ni 4.166102822750415 4.211942677268919 13.002327208956485 1.0429212032980877 1.1383829212425232 -0.8093637347887739
Ni 5.558759487153589 0.731135906606226 4.728170176790791 0.07556729301335373 0.6404725961095937 0.9544623990340464
Ni 7.358455444511728 1.5301576127893368 7.683849535466517 0.28195591441735957 0.23140828337679503 0.14560568578867827
Ni 6.900699122669184 8.303891972923108 11.046981443856726 -0.8384904769514011 0.03374212944745157 0.055195157114904934
Ni 3.462160886285654 9.12349926412928 8.74577141682907 -0.7464107881053209 -1.9247267980973561 0.09085944328573384
Ni 0.7294149342000389 2.4521017974840262 3.8074322550698274 0.38267528121630867 1.094645628255573 -0.5482607525610236
Ni 7.219725894948621 8.730979803265456 13.341815775382821 0.9647817786821837 0.5409907012621715 -0.14559822958951055
Ni 3.6722423799581705 5.910902645702436 6.3964737535841865 0.47692446690988183 -0.9072983397537342 0.22593209075357215
Ni 4.565575049365575 2.696565508941589 2.398543162995533 0.4304003552064136 -1.2459905305208734 -0.46704474590232475
Ni 6.391667316858632 3.807872503824899 1.3885231660495354 -1.249456634692603 -0.1752628465334788 -1.213110491963401
Ni 5.496584821532553 1.0572950810212027 0.9279829456310555 0.0020733375892609453 -1.2308333631644608 0.7664227124508737
Ni 8.58665639531339 8.402766444912968 6.5882118593815635 -0.2670039210932176 0.7503934269021528 -0.40886119558305717
Ni 2.174968463821397 1.8878667069731203 8.332312682724579 1.2797223755556801 0.23343842643294638 1.0844452906838034
Ni 8.332084646900071 2.9405638411654618 2.03806227009589 1.2791451628959714 -0.47560626231909053 1.9267831664057524
Ni 7.25003139064654 7.947290481315507 4.3802898920225495 -0.37273462506382904 0.6700919616379234 0.012184200771017726
Ni 7.894088327320021 1.747359408737317 0.20063243371166728 -1.4153460104309816 -0.14236249626103226 -0.8999200450117921
Ni 0.9907830809421719 6.067819215718162 6.514854130774947 -0.4255306858189381 -1.0201283737732882 1.2797342026302216
Ni 0.3812461143069086 0.5206551175512025 1.3974733394718692 -0.5598564278184229 -0.9883179141309109 0.48690754626452276
Ni 5.755670748512667 0.707951643942238 9.654234495882214 0.9289267166567874 1.4508292909392562 0.05764670397919104
Ni 2.963451191878355 4.031533763536501 3.2074523163776303 -3.241322649640618 0.7072289756995368 -2.39988388869417
Ni 8.16530203713011 4.791702819015736 10.06674013331611 0.22170082628104398 -0.4072074620297181 -2.326669669294025
Ni 1.5803627245198564 2.728537062296119 1.5404694858494488 0.13157440450659275 1.3646266296992433 0.2466055599425237
Ni 5.438235573212451 7.8722806564292895 8.896069363383251 0.29079073910017017 -0.6577954036587574 -0.35080722886311844
Ni 7.750295451694364 5.565246873671232 1.757110034441598 0.6784755577159283 1.3498913803715977 0.5324016740415799
Ni 1.9703039844290362 4.090246007658881 5.243362672896937 -1.157902993553322 -0.12448047377428885 1.0886379886089124
P 7.649652538616479 2.2792413349220664 9.696805526663278 -0.018666208950935594 2.5293918975900374 -1.0061348877076737
Ni 2.7916517939692103 0.8570135432517381 2.122536047078435 0.27838979433265604 -0.5045663969968666 -0.6975469725250826
P 1.0139310440259321 7.931439664616012 5.532406922666637 1.0902037904341353 0.6179420191072454 -0.05959765705797478
Ni 2.669303593432006 2.8230183543199425 11.083462521985714 -0.06084695608404359 1.0970326404305106 -0.15521415541271977
P 7.559201430756414 8.335658759414812 8.505046562134975 -1.4459619355446258 1.6485391536223413 0.7440083493114154
P 8.634506688121435 5.429505058788419 11.953523437433198 0.7478434067867895 1.0509929245626288 0.30499351296311344
P 0.2626274629484992 9.174085986831425 12.602585993144253 -1.4099544071017651 0.7331572655295244 0.16919864261726988
Ni 9.135236128402951 0.539939502236865 8.907390178622004 -0.21125391991610715 -1.2502642181955628 -1.9882821542514981
