# total energy = -381166.6691442514 ev
CRYSTAL
PRIMVEC
9.35831174405398 0.00000000000000 0.00000000000000
0.00000000000000 9.35831174405398 0.00000000000000
0.00000000000000 0.00000000000000 13.69683519006912
PRIMCOORD
 96 1
Ni 6.64419535385522 7.6811337124924925 1.7545233980592396 1.0746167346291555 1.3975951142054641 0.48219445705956954
Ni 3.0333937640367408 8.230897085804875 4.439472595437803 0.007257195783045566 -0.15085870665750148 1.4006231023985103
Ni 6.471047872613506 5.493824900302219 2.804755238325734 -0.5749218067919776 -0.7088096899230953 -0.18352894319701296
Ni 0.7214107172044556 6.816191762770011 4.435377398281205 0.4592111087905188 0.8238683561628523 0.5643059789493442
Ni -0.026253807365447145 1.8508213602646961 9.237761574281173 0.7318830268027912 -0.2636064653758944 -0.08499501408515683
Ni 1.1351538388897746 5.147922986906034 2.811933063323701 -0.9091888719082278 -1.263361160588837 0.9164550665523378
Ni 7.3739190592548445 0.2212342295722951 3.1482314773549396 -0.8516169870310301 0.06866953745225593 -0.9414366761983399
Ni 9.201775122850684 7.169365084280173 13.425815641908812 -3.196205702697321 0.49086447402974165 -2.6987352933152877
Ni 7.675602950336302 5.890252338032206 9.437640136779985 -0.14951067727003928 -0.13065883467085884 -0.7694303889289459
Ni 3.8072419086350835 4.088309439259535 12.893241615345149 -0.0951819819204877 1.7740069310105644 0.41703344698120437
Ni 8.62139135397983 1.0783488874717007 11.680921010655844 -0.5694415004036967 1.8266543820029508 0.1058255776772629
Ni -0.05700054013053469 6.659692717866477 10.907693322116648 1.3426167010870556 -1.98018369351408 -0.024150629104274533
Ni 7.581729726666664 2.908404154293776 12.723661522485736 1.0649951523789918 -1.0238698430935915 -0.39532742276268046
Ni 4.563561935604752 3.0790529663380224 8.544920846563413 -0.08830608073626083 0.2644006791424156 0.5615183889018781
Ni 2.7849212327185735 4.904382285801592 7.883295703021949 -0.5229934933538025 -0.23352224439600427 0.023361557544075894
Ni 2.405666296776422 1.1441284597151342 10.291678717656142 -1.3390235844191583 -1.2348311714699443 -0.43173758596059836
Ni 4.015342683706534 3.7032336335015623 3.9873538453702615 2.2266151897725845 -1.120689103507186 -0.09267155679380815
Ni 5.63646428572467 4.295277858627266 11.29621766569959 1.0954485837728423 0.758887580416093 -0.733746305263775
Ni 3.7833127058713245 9.346276812281735 13.641664163154733 0.3110497464595223 1.0552730399952213 1.9557031918742127
Ni 2.7735134508769534 1.3067010488477169 4.551471932847419 0.36356812807321254 1.1921166633205533 -0.10109911873587103
Ni 5.297777630572857 5.556151255564883 8.502104699326514 0.3064119905771949 -0.3727513372343774 -0.41239620531950916
Ni 1.2464335221372729 -0.07963736006219509 3.3147710547751865 -0.9271333722017904 0.21629636743602101 -0.6218819775915999
Ni 8.743376945698872 6.994402090587864 6.77260542648835 -0.44844898517800835 0.08848502951628631 -0.4661718563790681
Ni 1.851495158699968 3.850524099789711 0.920650107020919 0.25574737434279177 0.14818938735545448 -0.42372551428939925
P 8.638021073694805 8.9129214769742 4.724216070859129 0.7663540639964672 0.14428799541851925 0.5719118163210603
Ni 4.080972522964352 6.071017484917134 3.7254156394894142 -0.1119445460908072 -0.21346789684829043 -0.22832681623799386
P 6.554280695992806 6.2499016111702606 0.3005908402864602 0.6101963137235555 -2.575696951304164 -0.08879998965354384
Ni 5.487732639449967 2.5779060217928387 12.929004403128374 -1.4372137570383507 -1.1616989702606446 1.2971230875306305
P 7.833019109776733 8.094537127466696 9.477867775028045 -0.11346201117659813 0.4302334906112461 -1.1659513177790952
P 1.3851798499337082 0.4281399482522981 12.59518500584024 -0.631303785126132 1.776032188970709 -1.0979083581672446
P 3.827006662736397 2.5393591363083168 6.595793230423684 0.5121544937567696 -0.08434889586072569 -1.0149640559635293
Ni 1.6733222641285173 2.786615087118354 7.0280236966767795 0.11240323089478063 -0.3358012423725894 0.5878994499985682
Ni 3.930837129949498 9.049599617906814 11.44230839644049 0.47554121340911 -0.6674776639435279 -1.5898652939302167
Ni 7.151967983013913 3.4647464206616623 8.860386723139662 -1.3223065287747937 -0.2232406599643381 0.22032348631754314
Ni 1.5986710124873353 9.077974018681047 8.1707100405742 -0.7257892552002274 -0.035990044941363826 0.19697195607579626
Ni 7.398737301620698 3.2169851210251705 1.379175557210506 -0.6447640243960959 -0.4882110955672947 -0.8640127895922217
Ni 0.1863529947418855 2.055796459261413 0.061220202831425874 0.34250513675532623 0.39602239194717603 0.31270296579222917
Ni 5.241019470712787 1.3365447045433079 4.624763421812975 -1.0139001334753892 0.10448166205485877 0.5556675865480559
Ni 8.645563872845214 0.36813351843552206 7.217450896779595 -1.238709423478428 -0.2850898320606509 1.0989285719016428
Ni 8.550352410616632 4.4717007489293294 5.460256636589429 0.8385460127796849 0.39871407984672624 -0.8528158924351378
Ni 1.0381268642106 9.452549798822698 5.83427653302198 1.06128479340694 -0.18805896985688259 -0.7011840550570375
Ni 5.588343847472325 7.813684838009065 13.046426882110767 -0.8037073078339448 -0.7906584450697867 -0.20134437411187905
Ni 4.385576207265321 4.852022532393995 1.5067340234879452 0.24517962612927452 0.19414991324596884 0.0030182180010335114
Ni 4.405144436823013 5.015858493592712 6.063753563452437 -2.038676033323018 1.1690965482762963 0.4656128985518046
Ni 4.282541196538304 0.4299928939492963 2.5742927776836924 0.316023802635346 -0.3228765638911214 0.17432516521055783
Ni 1.8747786379632578 3.442922838008129 10.206662200085692 -1.4101233285794619 0.13721283373929272 -0.4993761110451787
Ni 2.1098500670687925 7.871921611102092 12.721565260687113 -1.528701835047019 0.6155020422071851 -2.061182184845334
Ni 0.40458882127721996 8.881543058176044 10.7194583709118 3.100271415991841 -0.0328278451632983 -2.0753078256134385
Ni 5.297496881224826 8.099553182484831 3.9529751518728258 1.3098464486345698 -0.21798146844792782 0.5961794306191732
Ni -0.004299208349499686 4.192645255299092 8.479477237706455 1.436678453360171 0.65993173327547 -0.5468044797304712
Ni 2.4198347805403366 7.458274880026264 10.185117495117868 0.25000712942490494 0.3632583101422776 -0.6088927644207837
Ni 3.174498386356628 6.366712056573951 -0.038837928975312686 3.444697423918964 -2.171748876752008 0.75581819746215
Ni 7.743085735291117 7.087900981793463 4.054002804761428 -0.532947776353037 0.42542989857501573 0.39908817535669333
Ni 2.482367018658223 2.242120443237335 12.80692429246216 -0.10832494706034891 -0.6179944696117357 0.00583126196979641
Ni 6.486273845588334 5.660992420430892 5.382773559857784 0.9769580090334014 -0.30084066713700447 -0.5908078818946146
Ni 5.794198627759535 7.993982069313943 8.169682497960409 0.9775218519566714 0.23357675178302353 -1.2503302955468079
P 7.463609117638834 5.057240947492337 7.339708815366226 -0.05754591673526864 -0.1966492826290549 0.2424267459744857
Ni 6.076145839674482 1.353062124519074 7.422163963051483 -0.7067407232092086 0.2930024020395083 -0.7623593410147773
P 2.2447969203552214 3.093811023732801 3.1089902051496234 -1.3468577357515965 -0.42692216684982603 -0.5968317194911915
Ni 3.72939947273796 0.24872333406907432 6.5928210306592065 -0.033788152194038586 1.1532022456435431 -1.4458634622935487
P 8.290097764992806 4.142026147849279 3.269078162552141 0.3173186101873697 0.42848616890283625 -0.4756607697061098
P 5.861999595308785 0.6231624828613507 0.8301580413327233 -1.2203206365585952 0.07678548169117098 -0.06533533087270037
P 2.466195856211694 7.445949983647746 2.5474746641287043 -1.2755980689746613 -0.4954904028375273 0.4357299949494431
Ni 7.871406903964037 8.204122956314412 11.578017016291241 -2.696939891977762 -0.06642650705435012 2.012016778864277
Ni 8.367930842578328 2.690458435418073 6.996767871760598 0.08819809440348682 -0.581624929843766 -0.13777873354509176
Ni 7.670989302717008 5.055612601273763 12.42235851468644 0.24503307324908125 2.5452640887356037 0.4408428906959763
Ni 3.967278395323795 2.678292630336772 10.997038058802561 -0.004911578369004444 1.1519156656216354 0.6894636812963157
Ni 2.221195258497498 4.870486481182769 4.846364497200029 -0.8097990225539795 0.16109915343858708 1.6436985377005886
Ni 3.4075016285983417 7.30129856123108 7.107849158802155 0.8743589087132362 -0.1528381989813755 0.8829610485599503
Ni 5.956209718196058 3.4689483025705115 5.981065393808315 0.7995326076309649 -2.154699377468889 0.523424410243634
Ni 6.632768855390398 9.197844631978265 5.679721209437975 0.24092547883861087 -2.122123500415397 0.9840542537585504
Ni 9.011745247480766 7.73722743222889 2.224817860918245 -0.29755531151751335 -0.5328662723828242 0.48218160154376316
Ni 4.384303476887585 7.59086343878924 1.7394565163816287 -0.6420188575507911 -0.952118324281902 -0.9856614503446702
Ni 0.7475793639343337 9.029544756145869 0.794559959833677 0.9137651784250005 0.7748507886135688 0.2525193543237974
Ni 6.524474473543619 2.832536322144464 3.492651970024686 -1.2170797610237942 1.6626084872312141 -1.0808871410188998
Ni 8.741757957791897 3.8026376193273905 10.665150217028874 0.37348487296629224 -0.08434195388219022 1.3427308580674164
Ni 7.704370400197777 1.7673826540301745 4.91071224776851 1.6528758333244826 -0.4186067050055952 1.767550633862259
Ni 3.577532792076922 4.948862340841148 10.278968258839662 1.4692157638662438 -1.041440504987503 -3.1094427980784642
Ni 1.2443372603386487 6.44629513842886 1.025800096169762 2.1914041890890905 -0.419040192998588 1.407602876150453
Ni 7.84149774008724 0.22447782037320194 0.1732101819294402 0.1304426048949947 -0.14182102193526544 0.6483553412917802
Ni 8.989313374573168 2.047233604146497 2.6970579167590985 0.8653916722176194 -0.17723899642324314 -0.36029254264573435
Ni 7.075014586718884 0.9869368997531266 9.415738880140163 -0.07877191599358047 -0.9983997238469451 1.0745740543166784
Ni 2.334122004586772 1.2764175525068788 1.4898188752691364 -0.44397680833926767 1.5228687733050095 0.626162864355141
Ni 0.6658625870343964 2.570569105497654 4.8869215480164465 0.21416955090100534 0.19848762138937429 -0.48478767170804243
Ni 8.419794605471072 5.366954269927453 1.2384359090430577 0.18448025136668875 0.0037733509995031794 0.0755886331695924
Ni 6.192900135208565 0.40859511447360836 12.100153717926311 -0.17378009134036526 1.8935768548571132 -0.9717484398080038
Ni 1.985515539137898 5.583009609859754 11.610752390271541 -2.7487033977032986 -0.7685356450288183 1.69788710792785
Ni 5.7898282962418675 7.216437391633206 10.406882340957939 -0.5656349821734129 -0.18432675650796 0.8607965966477691
P 4.8394356032906485 1.1776312152467163 10.029959496266757 1.582717627141842 -1.8163668840340137 -1.2763807127769569
Ni 0.9224150845888677 6.429244294691836 8.531265198275232 0.22807227702502655 0.3729932780418544 0.4209608070600685
P 0.46385875197099735 4.340890269370543 12.793774928831592 -0.4152881821553234 -0.42552862893640914 0.15707357721896173
Ni 3.8295895567382727 9.052940535148371 8.716733832570823 0.5325155739116249 0.4093062535402757 2.6049671610231906
P 5.300791006908378 7.159136449700279 6.077983812072919 -0.7153634318812131 1.922621321718579 0.035762759421906154
P 3.9620190242040323 6.482043888744682 11.524202045429687 1.1976990425043372 2.231482288056899 1.57827938886483
P 1.6136817442953404 6.5854625902473405 6.440210364225889 -1.2893773821469408 -1.0706235543093625 -0.473411825770933
Ni 4.854146869127422 2.495028814254377 1.7304173232062219 -0.04329120658846738 0.46962150549056536 -0.510683565638198
