# total energy = -340882.78011836397 ev
CRYSTAL
PRIMVEC
9.17204065557586 0.00000000000000 0.00000000000000

0.00000000000000 9.17204065557586 0.00000000000000

0.00000000000000 0.00000000000000 13.42420862351415

PRIMCOORD
 96 1
Ni 5.540105192322296 3.166555329363299 9.708146473075494 -0.36360643751031574 0.3133357142802216 -0.3659201732451569
Ni 4.616407318062305 1.0928945089511177 6.20385000642332 0.1322071529945852 -1.3018307774189453 0.4095242830883528
Ni 2.6195439943850296 1.7958030196135144 5.072807145815708 0.32446987652017023 0.00614647921737006 -0.6754079745341981
Ni 3.495189547446624 2.876856424028055 2.862578308278953 1.6640691309371405 -1.3541712386938745 0.7266649729369614
Ni 5.681684812482335 3.3071902293318063 0.5134361628120453 -1.3287096040876603 -0.30344159509496127 -1.0367266444516017
Ni 5.0276632787215325 4.662817843976389 2.7817240179448777 1.3562083237285611 0.5210078303823414 0.19543237950281828
Ni 4.998496189313077 4.824988695495542 12.000705382294068 1.6827973034742634 0.4976802113999946 -0.8486293651576159
Ni 5.867638765522283 8.14218562122503 12.469801148776774 -1.4884303891214818 0.2336914229840169 0.11187204098165894
Ni 2.196547821636864 5.188715141275959 11.83141244117565 -0.4782007625191441 0.6296148274594834 0.6599607867411924
Ni 0.913284856459544 7.884873191582004 12.08090203731035 0.2499065992912987 -1.727914507527876 1.0209966353108546
Ni 8.509470818794906 0.2934631108362603 6.5096669388709785 -0.4479306507806931 0.7002913680394391 0.4797117998470319
Ni 8.587836734488567 2.4972164876427105 1.3636311373545882 -0.07102338239641318 0.17910690286991734 1.33861503612683
Ni 1.3847396718088714 1.4442570438753712 2.667229433955647 0.11343398615214013 0.3209641773597569 0.3798139005081136
Ni 1.9220653318137668 6.656727770550042 0.9772662607320489 0.0450873792569417 0.870045883160179 -1.7016190641664568
Ni 7.6617174414852345 3.8748294838319683 3.8324234708850957 1.1381553786127494 0.35934431979985215 -0.12200707253313181
Ni 7.855036543202852 4.209599797139902 13.19304407365884 -0.8632052060892617 0.5924204777973733 -0.9157842657375582
Ni 6.735625664603984 0.9604594133634783 9.142288428878203 -0.793734255781633 -1.1133257211635794 1.67178166909005
Ni 6.802911755138711 1.0293047508162674 0.3869968302263892 -0.005726103850499816 -0.876168194007833 -0.34750850350718865
Ni 1.340062661586045 7.2286870562173045 9.850832241343289 -0.23880843249560804 -2.147967200951378 -0.5620521499181611
Ni 0.2980940741829048 5.058279550559717 1.719345805588374 -1.1544188916594635 -0.23921852344983321 0.9125379908861188
Ni 6.820146019603644 2.180671019194714 7.130832388456004 0.15265050845060163 1.1604082764736787 -1.0583470509348547
Ni 3.612921861801007 4.6332380127366815 0.49682101109398935 -0.8069738944003585 -0.13836134552143914 0.7330397661150537
Ni 6.003705989224937 5.570813184567426 5.156896414902729 -0.2016768177506333 0.9144290372612446 -1.887859749867678
Ni 6.4329299776046565 2.089776095912388 11.589804379609719 0.40720514803687285 0.01916423163327667 0.708194939157232
P 0.2457006261238097 5.785383904574159 13.026570617849906 0.626213000866786 1.0402061183597697 -0.3067009825725234
P 3.799306900753596 6.55199223785974 12.754716834889846 0.2940807227053516 0.02131367387611168 1.4328829908734806
P 2.488796554285175 8.84593795963132 1.493013777799104 -0.7949311043032117 0.049401176140947176 0.20025088393738416
P 6.668642251412174 8.394902858480119 6.344710538592911 -0.9329978014023674 -0.8342144752838666 -0.11017408445394573
P 4.757115594356368 1.3528576583548484 12.94474959442663 0.365588500937351 0.6326237894891362 -0.28375748640247256
P 4.116310971236316 6.214681269279434 8.469011112883402 0.8961109556783471 -0.7370321751038984 2.1555586401453906
P 4.632595969888068 1.2588809293991763 4.0622867343417415 0.6484751546990961 0.8271375138324272 -1.5033556429727464
P 0.34940246982784245 5.987306380463202 3.9948162857890557 -0.500144356669771 0.9202235324558347 -1.731116045184309
Ni 1.1181267929016405 9.219368424466499 4.830929426253359 -1.152196430086848 0.038388627080527433 1.039436844293913
Ni 2.0050080958139764 6.911701329815973 5.147338231295008 1.708948250838018 0.4381452892591551 -0.48506766484230646
Ni 8.049456289803807 7.700973775657621 8.622705164392714 0.4523303225102855 1.3964157491853821 1.9676055997387532
Ni 8.732589880728899 2.6941126852311763 10.404701511148824 0.05925467189625925 -0.8382421083860209 0.6800495870712675
Ni 3.505407200780278 4.2611650099242855 4.987321892134988 -0.025554451430336637 0.7722449755596056 0.748182278183447
Ni 1.4118155359389852 1.5911564476382105 7.407706946492223 -0.0021401862714543786 -0.5177831527974567 -0.0851546795914727
Ni 1.274932000614521 1.0345603301342063 11.848689814231847 0.09642099653391137 1.0519095228396271 -1.777674095449506
Ni 4.068891520845839 7.209068061171805 1.9074863731298863 0.05073609290228682 0.6236349557269646 0.6351864080099899
Ni 5.615453506627473 7.9424827791840515 8.486127058023378 -0.4917715592250434 0.8226008023043382 -0.41779320796536434
Ni 6.660497479275473 1.048822853414127 4.9026015866481885 1.5225227028195005 -0.15120452003269444 -0.4356405205594303
Ni 0.7329662052222867 7.818742778174783 7.272941235364115 2.0428985560447974 -0.06430174740186345 -0.6506647061512472
Ni 5.519192939538875 4.427931053831375 7.416982631246553 0.3290119873648979 0.33768997475487 -0.20868410230640191
Ni 0.5146661334691754 0.1400460549559215 9.520945122501098 0.13624352784748792 1.2364591939916705 0.08453504372960279
Ni 4.699194157370708 0.3062553559928557 10.348144873818502 -0.010631511571917175 -0.41556226175231664 0.7845690443425972
Ni 8.086859871755909 7.530428850984404 4.7243814983218275 0.8820205390235518 0.5928182274564242 1.314929262474116
Ni 7.190705635701451 6.261752182123521 7.229903268813393 0.3312442191295263 -0.4057000242462561 -2.496901124051184
Ni 2.744568081091527 5.188559216584153 2.7535741078494396 -0.46487242084135416 2.312992943137881 0.18600825797544093
Ni 3.63531081313624 4.518651708340506 10.025977861628858 -0.489797466217808 0.13482299335087747 -1.29588253025531
Ni 1.220174917668458 3.97574027555267 3.9260846816408783 -1.1621710248010566 -0.9078231019089525 0.7583659035846682
Ni 0.24980786594679918 0.22061050880405156 0.7459657384985774 1.0260825344741942 0.39915836647299646 -0.16905980304656043
Ni 2.557256666028796 5.536188730945751 7.283116697310575 -1.6014123753378677 1.3423181960100303 -0.9644056262896874
Ni 5.674200427275637 3.232208796654408 4.877739853141723 -0.6848506080043366 -0.7319473043818233 0.45566221509699584
Ni 4.648050858458271 6.785429845575026 6.579285479354313 -0.36127110450891975 1.2799987691455181 -1.842072259219918
Ni 0.819601632806095 8.159410713649269 2.8398775075601077 -0.44258918396312164 -1.6680592259331402 -0.45692668363171624
P 9.583957042072196 5.905170756044107 8.253673610274609 -0.6092388349062927 0.23176206717178796 1.751678442716693
P 8.531868942170833 1.6137288397873333 8.430510554864242 1.9079117834225465 1.1381846891887881 -1.1173505260522563
P 1.7151807819090092 3.2202667996701915 10.694892955069362 0.12329956609231021 0.6275229779274611 0.8309309194365883
P 4.11394458473714 6.389436160631419 4.063225951308857 0.2528528264038161 0.4213202472820163 0.6038076365883923
P 7.004265564504696 4.361525479203318 10.943267231055614 0.014336471227330148 -0.8555314915940878 -0.07400174829844675
P 6.638668022422604 7.805745996510701 10.434825244401713 -0.7787118142308718 0.834577000829608 -1.0385796384999402
P 2.7500162732640496 8.92927512138139 6.2958198928750395 -1.0754189188154768 -0.06860783097638508 -0.4489678337959558
P 7.016262593733079 4.33071659451055 1.8080394391040242 0.45734834455016726 0.7243047002349009 0.38350214799297827
Ni 2.464389753997156 1.615783376902897 0.31915491402557655 0.40260673003291314 1.746772263664327 2.6715821299392633
Ni 1.29420245811363 3.893503758685936 8.63612936315316 -1.2375143747290622 -0.04639864186919752 0.2851173428644767
Ni 8.042522227038777 -0.2584002336693908 11.548377023404946 0.27881582612648115 1.1380137108285626 -0.006787198125162504
Ni 3.1275466402896632 1.9846369934315296 9.469732116079383 -0.7821725190859626 -0.558662921730954 0.737779080572252
Ni 6.358508039409622 2.12468488279559 2.4587113436032015 0.5620709189712384 0.7063350031303578 2.2453942701523006
Ni 3.747035440835737 6.852881032842253 10.585068774201762 0.7312039984578955 1.1158076070451686 -0.24121678482678457
Ni 7.508727802701258 6.365157768913122 11.835386686408569 -1.3832301037330437 0.4638339522745109 0.7801747719296435
Ni 7.636723630592768 4.007319611663775 8.664011449660318 1.5403566456771278 -0.7149613113467881 -0.7064833557827639
Ni 3.230860506672319 9.015850013496616 12.738406194922849 1.3592160002066334 -2.929624728074135 -0.44368575946141003
Ni -0.06073633627479676 5.146441205715086 10.891503902192229 1.3847213435665895 -1.1734759082909145 -1.4802961900501215
Ni 9.068139817495863 2.451879090489881 5.490031353354835 -0.8971411967150742 0.19402907139738843 0.4359624226752234
Ni 3.5233844005414645 3.029176503841333 12.027581295937043 -0.041759600435289375 -1.169521808739173 -0.4071149023159118
Ni 0.801977556611646 3.2371433545480404 12.987613292204157 1.7944101772572645 1.215131893268804 -0.6056459753487119
Ni 3.0100161108305583 8.482853556699517 8.400534491466532 0.5339204246789514 -0.0997588026578927 0.18859813018980423
Ni 5.808772608345091 8.134251806024302 4.180285037876265 -1.3693893411952094 -0.8556934710932489 -0.02758408026585572
Ni 3.2275402279409167 8.78490720085023 3.6122266211163656 0.03604326677680244 -0.3425444746336939 0.7339159980724199
Ni 3.4676459092410914 3.5728675600882003 7.720490961051412 0.0647797154795465 -1.909320233734299 -0.8510845115663278
Ni 6.559981085304635 5.878049031710521 9.35612263401717 -1.674843338734509 0.1367945152549515 2.2746781067180826
Ni 7.682088543867681 9.023793000738038 2.5675944730955473 0.008292321915779268 0.22163603448137956 0.21917188921160316
Ni 4.6579108022048406 0.7182698444175166 1.8364856061138937 -1.0003144243711548 -1.0870405622148054 -0.8738377461024434
Ni 5.692030874385712 6.079962335558869 0.7729636402827881 1.1952379825583543 -1.061754533954507 -1.3998391730446342
Ni 7.947243068304489 7.708320580253902 0.4042365979157394 0.6993547151577827 -1.2904140509415711 -0.1865733864502916
Ni 0.3680299672742679 5.515496607138998 6.162759264112036 -0.769464584600991 -1.7635505115639307 -0.7351768670627146
Ni 7.266650132651769 6.609620169543176 2.784489388214264 -0.013266635201919088 -1.77321888789163 -0.8707650207143907
P 8.540151294917951 1.4710760908660394 3.652552415233729 -0.047262532531389574 0.6790931366952692 -0.382399916067735
P 1.9003734555713145 3.5114699196793313 1.7542619301041318 -1.543722476825567 -1.105015401525671 -2.2109787687869082
P 4.847579431726054 1.805516210708972 8.152146457419239 0.42547232177717687 -0.24770444943365727 1.3302340111519864
P 8.564585611328054 1.6695223633318728 12.596096480323528 -1.7499133803964704 -0.036923869609542866 0.4173028985925071
P 6.105772458073144 8.142708427544616 1.3288516762451783 -0.6356602623226149 0.17574415704527155 1.2236800399491314
P 1.7094482564749571 3.416786943590184 6.092859141979381 1.1165869084133544 1.4289779993921197 1.4920011371918758
P 7.46629794244858 4.384611505631332 6.187795266391697 -0.14179685356554933 -1.9231800224355264 -0.21503035623940386
P 2.5832960895604327 8.807112711371571 10.69361712420876 -0.5126139498916913 0.6991775661499702 -1.330588823388244
