# total energy = -381171.9091626178 ev
CRYSTAL
PRIMVEC
9.23040884610697 0.00000000000000 0.00000000000000
0.00000000000000 9.23040884610697 0.00000000000000
0.00000000000000 0.00000000000000 13.50963637030067
PRIMCOORD
 96 1
Ni 6.125133225597581 6.38222780581912 4.208656646740389 0.388970113086085 -0.9752767646762365 0.41559182943867135
Ni 5.661868231279596 7.04363275845526 8.731170273482316 -0.02284990801498 -0.3156376229405209 0.39775480125725043
Ni 4.954929671339652 6.846295845714934 6.329453865742338 1.1001719573904407 2.204027534280056 -1.3637704523465353
Ni 8.413453136461833 5.412416429660844 4.501681516803968 0.8773588718818245 0.11719113920172722 1.1639939369424082
Ni 4.693589103005454 3.930898873064502 12.446819702216434 1.1084889618965683 -0.7880603453253073 -0.2402330807572766
Ni 6.798399253722346 8.291002531456305 10.606564148226845 0.4618233496023853 -0.9624109644571619 1.5597422492925912
Ni 9.022087841184767 4.619524301666366 11.477665531174726 0.7599389044987429 -1.6656927825834926 -1.2280951382976915
Ni 3.514182831033783 1.634954644415344 11.882778949167156 0.9117160092054557 0.02284656558087033 0.06647432957315004
Ni 8.127642754026198 8.950524480668571 4.581198720704248 -2.185235341274217 0.5908073676739825 1.500851388493654
Ni 1.1094213113843119 7.126623365239874 9.115437735923376 1.309304717198487 0.15170305693566777 -1.4620806954833596
Ni 8.24461972652997 1.3729864082731866 0.2478734016899154 2.197935048229073 -1.5395099814061164 -3.176244943304678
Ni 8.296014643511032 7.103879637610324 9.073733825289011 -4.1099878504031855 -1.3097808855039572 -0.27075644615711436
Ni 0.3647848382902095 2.023564091222044 7.3190072405426925 2.2605375535516425 -0.45817109756177865 -0.2832581781685509
Ni 9.167752924675812 8.284892000737653 0.8197886166063892 -0.6293780288583289 -0.31364218977704694 -0.4105794638257445
Ni 1.827445592461873 2.885979659356854 10.6279094689019 -0.775259336905897 -0.036015241752344426 0.15169020141986134
Ni 2.352988155901846 3.522444047035588 12.944798418478094 -0.23707139519984335 0.7521410057208788 0.38669828633277276
Ni 1.3359632380125832 0.44924123401458543 12.727766582181287 0.029374082286742962 -0.08695882267974701 -0.13627978040206207
Ni 3.0288017768942064 0.9684268148171913 5.836055278396987 0.4495023661431871 -0.20082809659709286 1.7153266435605363
Ni 4.625422532979386 9.071959740690636 7.4228022660384445 0.09492615715593974 0.13980656260839794 -0.04158116587589613
Ni 4.932379782297854 2.6672189674654785 7.593685749796007 0.10639353436559096 -0.5878907082478197 0.4908053386570321
Ni 5.203726113923625 8.948198417615549 12.423367079180247 0.1876383373796962 0.25044730228611706 -1.4993334091872308
Ni 3.5485384131105637 0.4915275834530988 0.4131586424250252 -1.0108451486991494 -1.4600847480992531 -0.0678850938777476
Ni 1.3084473889607606 2.623005308640175 5.034433952667416 -0.01918840000299276 1.292173456834839 -0.3835458567467201
Ni 5.986981694984155 5.815416084005885 13.034583529283855 -2.312348881795979 -0.1316404818578378 1.803345017853049
P 5.721238221585306 3.945242928558139 1.062515142271046 0.2925223770792962 0.7176303735385189 0.11438118055675785
Ni 0.9088463711876364 8.006724396904804 3.703774507632081 1.6039032600805216 -0.5343413142664539 -0.21322698448207797
P 3.6475437794070573 2.871764829588385 5.110438985965811 0.7892343110287504 0.19520663664525736 -1.0772171483664803
Ni 5.264074527577035 4.099233840913574 3.281963279866171 -0.164166222399685 -0.11497639093859553 -0.3888752393794335
P 2.054458269946113 6.045364031533223 12.89424531479241 -0.14990328472276762 -1.3679202128488506 0.2795730160074798
P 8.462401995073646 3.2459656080388637 5.617522577606443 1.0138304565797185 1.198896405246548 0.23816719936718336
P 6.679308517571185 0.24239515398369044 2.8897788956767902 1.3610759362335076 1.367159423423426 1.0615300766485267
Ni 0.7708009902770261 0.48540413016192846 5.5197540861079855 0.14866298455776333 -1.4387656749065028 0.4267907834782843
Ni 3.0745661444215244 1.6143154500242418 8.623903691184019 0.1257066328719061 0.47613642379094767 -1.0193377595511928
Ni 5.96613020118742 1.9872055104051611 13.434212238283804 0.13517446315302525 0.5885800210053606 -2.089415725769731
Ni 6.176915819754147 1.2058790848132095 11.025471489340054 0.8979323251578019 1.075262852853587 -0.3029965371377427
Ni 7.751217447021043 6.378120273840569 0.6493537307233387 1.0958352776882998 0.05537153479176915 0.809455780281948
Ni 6.356465734466005 0.02647373588243265 0.8722819522513788 0.43426600880940697 -1.989725057345612 0.3515770171496074
Ni 1.8462017834290998 5.670794036725122 5.108466447575212 -0.3726803747871259 -0.31018919823144 1.027087578699941
Ni 3.113361553198716 4.851382943844402 11.135831181674337 -1.8612686296427108 1.6213204271157045 1.669318809371854
Ni 6.841948323103929 5.976800553922712 11.081360692434277 1.318964094665122 0.01661652551075848 -1.3793492806213987
Ni 4.463964219791035 6.807961957384771 11.455617776379295 0.012429741122920529 0.6944300241626556 0.10140045202637374
Ni 7.154480739422497 4.96010793075531 8.817024153120293 -0.07755784108082127 -0.3533335948293979 -0.2550755450867478
Ni 2.865497381917742 3.625418489176524 3.1393691534296506 -0.5948941361488465 0.09742218410491608 0.496781610845125
Ni 6.799654589338263 9.17048512572222 8.531187002498731 -1.087255506439089 1.2740474366580896 -0.3127600442824098
Ni 2.6350509923076113 0.9507136600602483 3.5919693332577074 -1.8372375568354358 0.7036546280847172 -0.6872530467982422
Ni 3.155027619156424 6.135203601751736 7.3000405962516215 -2.809823147832754 0.16014167462132423 -0.4837977969909474
Ni 2.9176584228408706 4.337203013810265 9.008536677819123 0.7664607647776606 -0.36430269224639195 -0.9069250155747155
Ni 0.5672760113829463 4.887455381984128 0.8011136532378395 0.09445641660837281 0.08978086550957441 -0.17543433911433656
Ni 2.003478721367376 7.4806557001552205 11.275817717585147 1.4766830187775664 -1.2782977272940113 1.3339250868503285
Ni 5.39091880723827 1.5157900649926581 5.692826099825355 -0.5565499891530094 -0.5785012966131198 -1.4191340167185043
Ni 0.03382114139912188 8.498972875296161 10.592378855766986 -0.010211650425679187 0.06753902339223852 -0.003126975664755905
Ni 4.037067036698873 2.523630725986059 0.8945512368613844 -0.6180741738097356 1.2942107989798421 1.5658941278265999
Ni 8.847891563658436 3.2728722501006087 9.0579415186326 -0.3623229428122018 0.36351053536239974 1.2570812411173964
Ni 3.2270432697107068 7.213499974188466 9.258397386553943 2.8250515347467346 -0.20626186601815444 0.9292069669013675
Ni 2.411232036316807 0.17942807331384253 10.317241595189326 -0.16893356188134132 -0.5951638448704654 0.8896572296332034
Ni 4.256584622123375 4.966375378425953 5.189605434326349 -0.5835943948653111 -0.5075789585709453 0.2719278407573962
P 2.8525748094009513 8.014828695954622 5.390466517200182 -0.502531883065341 -0.7106416009255115 0.07431747976665266
Ni 7.501221051274798 2.5335995676418688 1.775706381227328 -2.511685738559526 2.1267340026042145 2.2374266785657917
P 1.5133070849876462 0.05515630862434235 1.6273709404297763 1.9137487018192973 0.42889137476105493 0.967112226587573
Ni 0.5303017622897276 7.02973176259077 6.641701985465537 0.11943391248931688 -0.15766338828416074 -0.27276730593955606
P 6.580709289268076 2.232992839674509 8.98715074334473 0.7167775386199203 0.1451670555893629 0.23211405119456802
P 0.5666908034561144 2.520981598620117 12.54240058679598 -1.4365043896761518 0.2402971012259926 0.3005786717248694
P 6.596114841789878 8.40719491920013 6.3135258720745 -0.14889978315891778 1.1134725311540887 -0.14692260482788888
Ni 9.117447195949737 1.267482834082536 2.645740728901679 0.3968793406308326 -2.1138949418580175 1.382072850200149
Ni 5.21002125282109 8.562865765982748 4.036530749939427 -0.16392376737157577 -0.16463981960199386 1.9029973768400643
Ni 4.58573177453496 9.043151634387133 9.948536602222058 0.6258954696263672 0.10959790023550156 -0.33591282824978924
Ni 2.216101191313276 8.629777000392899 7.5318927771433986 -0.13461576243607784 0.3401080972780594 -0.23169753248243968
Ni 6.77393867002985 3.509946073330064 10.903911618797293 0.967449555322334 0.4222247613741567 0.05314007435808913
Ni 0.02820259147700036 6.737432402669919 12.079290663348196 -0.41287314495592764 -0.08276561053400584 1.3343786294479794
Ni 4.806172400853518 1.7033242834381042 3.2270331162608725 0.6523562349210571 -0.19402290074980133 -0.23759230070031986
Ni 3.5665100193178425 4.813039825105298 1.1119310595752514 0.3140088290878463 1.3668143813791813 0.008514465228914369
Ni 7.612216718785084 3.9370094037831556 13.283579348700945 0.1736548786164106 -0.10103381271557439 0.1802916672066379
Ni 8.716607457296789 1.3135610355138332 10.890955816808315 -0.5339631049914287 2.7029228490340738 0.8239747998337295
Ni 0.1781505847164684 3.626230765163294 3.0132429995839907 0.0051643178097588475 0.19706914377529286 0.18979420738043443
Ni 5.353591033482628 7.009480245375172 2.004357456298518 0.6585744479166271 -0.7467735707613784 -0.6035844648339928
Ni 4.988343751704496 4.9806086690123035 9.953508100477446 1.2212053531563936 0.8808375744590443 -0.4409537052422277
Ni 3.3959228316872725 6.4550649627691135 3.502994652356925 0.550795088947103 -0.12333736130878113 0.32876798967489185
Ni 6.392335103609038 4.059939990053592 5.9509544858482375 1.2021349667885037 -0.19272243677082293 -1.0940295919381289
Ni 5.042590865048192 4.89894724111513 7.50612978274939 0.17860168109872468 0.3424711981935973 1.5938209361438551
Ni 2.0415818494740257 6.777732368104422 1.4959899147742532 -0.044959852540141926 0.9246640847256915 -0.570311818823792
Ni 3.5977918752174154 8.522593491775066 2.4263846756336376 -0.6862935110984503 -0.11400965614995202 -1.393456409446742
Ni 7.281066567633396 4.883846292088367 2.5511059612385427 0.45293710285634897 0.5251493633545408 -1.2440408629936706
Ni 0.4885950825326815 4.527783267206097 7.020512430140934 -0.7316750245570431 0.6172218531117692 0.12036696582654755
Ni 7.394074464292726 1.7622512141146671 6.793334528336659 -0.7610750749857151 -0.4196611144120385 0.6595113579085997
Ni 7.34638094129683 6.495734144561241 6.894966869017637 0.2763609368280853 -0.5328590732939726 -0.5285141660617156
Ni 2.7088388813784827 3.7657022442552215 6.889239400270016 0.31234712511470725 -0.8543354144034577 -1.4591684069325708
Ni 1.6592767719737311 2.2051816175365886 1.392357344475855 0.006443184522182452 0.5350203426113496 -0.5945922886377115
Ni 4.693072200104782 2.742696021372473 10.131551612450204 -1.4332383173303704 -0.19143739941081225 -0.6100469326298849
P 7.69162592690076 8.058063931432223 12.68041458431619 -1.2283036547640718 0.632720977188633 -0.22088887190270992
Ni 8.019166988156686 7.574325890084067 2.8318359265932913 -1.5095088070583358 -1.2118002577924096 -1.0669918710940463
P 1.2715072923806223 5.524408981336712 3.0866819791969093 -0.496939476579228 -0.5057539895470645 -0.5342163586528155
Ni 7.224761073095954 2.3280937429891435 4.181191564937739 -0.2128055806739432 -0.35504003599754336 -0.5574840709315043
P 4.265824261472879 7.625656194202546 0.18308516133609412 0.24864264497721045 -1.4147870526037183 1.0025353432818733
P 1.014791158925646 5.083084669070448 9.432725658928122 -1.359937194643374 -1.5569526023625961 0.3023578751124793
P 1.0695367143521333 1.3377631677559931 9.360841080180796 -2.5811767434718127 0.3462969996975907 -2.191854389252631
Ni 8.853115975118795 8.947441524082421 7.744412789550058 1.8178663513976756 0.6393479955868472 -0.5575074679702721
