# total energy = -340873.14495496335 ev
CRYSTAL
PRIMVEC
9.25680751019270 0.00000000000000 0.00000000000000

0.00000000000000 9.25680751019270 0.00000000000000

0.00000000000000 0.00000000000000 13.54827348360729

PRIMCOORD
 96 1
Ni 1.187296640330269 6.541795099234704 7.7182344300778025 -2.341129296362781 -0.1792578266254848 -0.7517864505949374
Ni 4.874495964107177 7.595867766387935 9.696783534056594 0.31375120455108546 0.7741180242126023 0.6243263253670345
Ni 8.171696732164117 2.2563745924001193 5.491941684928477 -0.6201133157269514 -2.03393671886582 0.28934526490289525
Ni 7.270898283178298 8.508524185748946 4.550648405963484 0.7241956854608624 0.365534507770964 0.5506246248075097
Ni 4.941654102336708 6.462778990629979 1.848526134826532 -0.40386502792004636 -0.07051996039743338 0.3901376510316249
Ni 6.678425577562461 6.007547712635233 0.31822497328351185 0.211861471593119 0.007695568872044811 1.0081565461233926
Ni 8.291831579571815 4.9849204204738315 3.214179238857878 1.0701376158118796 -1.3272127078271594 0.9276794745132475
Ni 4.852936859498414 4.380534203637952 5.99210365504431 0.15696122001081356 -0.9876399142272797 -0.17413207536314526
Ni 6.1946463053154925 1.1073641077855414 12.47585949709289 -0.015392937516302524 0.15128088179658464 0.2782656100499659
Ni 6.472767085895266 0.17622924934337214 2.5845228632965958 -0.8027732260554498 0.157377995833258 -1.6973615744416832
Ni 1.030615917012138 1.594586912413127 6.562173960890432 0.5657625088902127 0.3594625905452712 -0.14250082161110944
Ni 8.216064610390738 5.4715507894230315 8.485744108234261 -0.5191571503268478 0.9843681854545433 0.7879919539812171
Ni 0.6999581256092487 7.275304523536293 10.981633965640583 -0.21300998337526542 -0.056338269580412645 -0.17311571828348896
Ni 0.6181834883770396 3.7004643288882684 4.8586816342172625 -1.8822380328055262 0.37225228611077177 1.919711861381268
Ni 5.707886341061647 6.145483400816935 7.702627452675323 0.4225844587064206 -0.5201195142401172 0.14464949252299605
Ni 4.821361889201938 0.03321897930399653 7.737323818452294 0.2306282106776609 -0.16926009198282463 0.2354747401366848
Ni 4.460068693461263 8.447271890688326 0.4824962787309628 0.23124553254668562 0.2027409973490895 -0.9968254373812898
Ni 8.5600383193461 1.0236085137537292 8.595173457797376 -1.124077817473761 -2.1735787308718955 -1.3890238275966853
Ni 1.8936836187307529 8.777517754158588 7.96103308469531 -0.44976590421721896 1.1293377803211195 0.40285766970145453
Ni 9.120232537297378 8.662714827856362 5.9650747028987 1.5808903441251163 1.5315159074570464 0.6470278807296083
Ni 4.1063012821975855 4.04879799416425 0.6908929340491964 1.5374011625932296 1.2041890211040553 0.6750444205471923
Ni 1.3251675308596467 2.0410982777666287 8.956872101705445 1.082857120261077 0.8506147710187608 0.6830264103114043
Ni 8.856867107832404 9.020573748023894 2.006296384384445 0.2339822147515583 1.2628135156154834 0.823590162800801
Ni 2.362142874606959 4.404490821382683 6.635415672992389 -0.524094182617149 1.2942383097836676 -1.1958717594876114
P 1.0638385990391244 7.349932905397972 1.5647846207480718 -0.2252350646865476 1.521812049905721 2.522918888271184
P 0.8520465467391414 5.4112334319173625 12.03819671400453 0.16244358328162348 -1.124094272533993 0.34638801674950015
P 0.24399741118549112 4.234998676519456 7.477725909629556 1.4178322671879453 -1.263510798792824 -0.9666669115200386
P 4.109985491572548 0.7965279182283991 2.0094261109916682 -0.15600374119355068 -0.043109172484648337 0.7947585832810894
P 7.807256221882017 4.080474789342948 0.9087120936960089 -2.587258173779202 -0.3356577748161897 -1.1440619739051714
P 9.481840464492196 0.6315679063048244 4.116805907319966 -0.38306531756587575 0.9374987745965144 -0.28505357950607685
P 7.052613506115504 8.929394194397307 0.4445405910421212 0.08818472466704813 -0.3299905492280833 -0.017663478718034094
P 7.110394498373082 1.9426151030424412 10.632305193561061 1.089347355971111 1.7213389111928872 -0.541571513466306
Ni 0.41194459488117735 4.095637439986639 10.3088677119885 -0.7507564666685265 -0.1302590281292789 0.9271855655959644
Ni 3.251148150869908 7.615603279924166 3.4338775304220706 0.31847509238931604 -0.6318573436367569 -0.4851411983927193
Ni 7.694184318577576 3.954822884680281 12.105368737445273 -0.7649193884324698 -1.6072621492504255 0.06065772289137295
Ni 3.550615129486525 2.5500468095375237 7.592547349546731 -0.31804906059549093 -0.3549958130231693 0.1156109391988009
Ni 2.478704594329392 5.747940547005021 2.0452610640880375 -0.09083013270969519 -0.8115211474514088 -0.4858721630214729
Ni 6.425048243362774 4.700625349308379 9.937536434222174 0.27043454404132133 -0.4236730637849091 -0.4541977147363275
Ni 4.180485337300475 5.1685847375809475 3.8167788918511247 0.01719219550857039 -0.22804399489025243 -0.101231016328045
Ni 3.083748044495981 2.0205944492099905 0.4580833003777247 0.28551432119257925 0.2942838398550932 -1.154401665268283
Ni 3.2746604418558496 4.328196214175544 11.71269959276883 0.40573653391114634 0.18084111195220468 -0.1884613475016238
Ni 5.308399557680029 8.02406916655632 5.802359466787759 -0.9497079150681966 -0.1785147778118732 0.017880479824846623
Ni 3.947435952315406 2.8553826040931516 2.7633060658222597 -0.4951289057330505 0.4824924479159626 0.7456304582958707
Ni 7.779087756736261 2.2429614783691623 3.1299358110721447 0.5774486869788894 0.1778660884842808 -0.29966207344787105
Ni 9.205765438364347 5.813784218573133 0.7353274612896368 -0.7233636764778704 -0.03204185892689321 -0.7627565764531961
Ni 8.06771501379991 1.709639772517171 0.6602075429510473 0.9549789336591489 0.512540930561911 -0.6000949636234955
Ni 1.6835078050158663 1.8740499300767437 2.3666666764198836 -1.083792744701469 -0.055879327666123114 0.9773909828057618
Ni 2.037386297969242 7.065693375077369 13.299121075308454 1.4290037104237325 -1.4268504115261555 -1.2507488711414652
Ni 6.364055138911447 6.017535807900522 4.883244572851592 -0.7553535991209056 0.5859549246776877 -1.1153707766180663
Ni 8.636036708714045 7.875932476537412 8.882153003130513 -0.04534011869769611 -0.11725361700854645 -0.12128510676544273
Ni 4.1513911914072406 5.4572953059118685 9.641710157985388 0.20870004314600185 -1.4710458750964472 0.7265371891098455
Ni 2.1006288066369407 4.706003554451226 8.827729454944038 -0.5386198870371498 -0.4392380081027016 0.6872155086920875
Ni 6.244855229058701 4.594449767572649 2.320303956182447 -0.9943191260196682 -1.1746532164284673 0.7531223957975417
Ni 6.460575870450981 9.361594535394799 9.875295512123246 0.3670116065371228 -1.3892616546391041 -0.25816318287313605
Ni 9.090166426619293 8.113767630986942 13.378432476071623 -0.5617335902364777 0.012885597713416517 -0.6286982291824851
Ni 7.614668342369214 4.435149367739156 6.065359252357479 0.3385541225273782 -0.04441503578026544 0.9469658335466852
P 8.552216317029911 6.256907592390865 4.898323912228009 0.8166692673112516 0.8083383788480529 0.15010254521776728
P 6.262757894714926 3.349992341085612 4.329607877315448 -0.5040004971910674 0.046488630479842516 0.43972446082081684
P 7.084725371245516 9.178189408896978 7.0258631838748835 -0.39662454430754923 0.7707038563247307 -0.01898399730167053
P 4.113086522076599 6.080546896381351 13.44755583452805 -1.1575803201065806 1.3745660003001425 0.19748849070089858
P 3.7801284140162275 6.303635956523556 5.793539580625788 -0.1823449501912408 -0.6849153998040011 -0.6797562242005648
P 5.264698169591591 3.1750294230047897 12.632952148343648 0.35162972476441373 0.1419086965530653 0.35839532562302145
P 5.5681826026522625 3.874908865750503 7.943434042324257 0.667076057629735 -0.20775927649928738 0.7772210886179582
P 3.139946122675372 0.5812765969750907 6.386452910277425 -0.11737625862933979 0.5485687707197455 -0.7039770444211425
Ni 5.744765462041171 2.0148182013457276 6.657946742386003 1.0845627900982742 -0.06948380582343516 -0.21845300876770765
Ni 7.786761650132854 7.0926121712140295 6.820282449390478 -0.9516066747528064 -1.2736496869990388 -0.7969095681858211
Ni 6.41386601993324 7.865305661556365 12.033481296276875 -0.896314844159037 0.3315463237509774 0.006751974011852887
Ni 1.8873704760329524 4.356503531433422 0.13178916801844692 -0.13604683845564958 -0.013049891205422687 -1.3363722628392405
Ni 8.526973003046184 0.38769731338173785 11.59463919591623 -0.26688487901685004 0.6230523437506172 -0.15226869963115067
Ni 0.3521743146972685 3.6912260350284374 1.6334479158730022 1.8293064749138173 -1.7819302996226989 1.9620838985895759
Ni 2.196594129727988 7.894881161438287 5.6313667934328695 0.9917151127379178 0.17364870796882353 1.1724636649763163
Ni 2.044893568831289 9.276709610851064 0.9208283289997489 -0.5012414463886915 -1.2499721408764408 0.42898701979865467
Ni 1.8501025691394872 2.527062156577644 11.866851356284851 -1.0719924096324314 0.2171394321626067 -0.9406671450221671
Ni 3.4329055656372187 6.839262607436768 7.852036953722014 1.3517780558713492 0.9933349077295279 -1.2101740350428964
Ni 2.7644622410758593 0.49313327620023284 3.9983937517833246 -0.6150351298730957 0.6952802879780929 0.37463467030001935
Ni 8.075240798276907 6.209984835301204 12.090425473138735 0.29479523227387294 0.2894964457687788 -1.7098609924602746
Ni 2.804340567677213 2.741227654314161 5.102374496436833 1.2423395640318473 -1.2034899381545014 0.023692972741565645
Ni 5.432931388638248 5.341076088066003 12.033170267545724 0.8727933639983291 -0.4530988252451939 -1.0498112455497017
Ni 5.18760747694162 2.034785135068829 9.313869213097075 2.1477275741367463 2.7768806314684626 -0.23461367768797012
Ni 1.8648301498318625 5.8352785255295725 4.399314414642785 -0.10082246803571669 -0.8819002113956037 1.0453681221766835
Ni 1.8373559452467148 9.088685337423327 11.98021022062101 1.0934711483314974 1.1272027362559878 -0.8445302553875779
Ni 5.016847149454348 1.2889363864033567 4.280712494552911 0.6755403863470043 0.22495764265544485 0.3129994139867255
Ni 7.960021315638316 3.0765925323179757 8.711241789681404 -0.8149880229540868 1.6635258568391609 -0.020502233718409854
Ni 7.501263193995681 7.011559564964854 2.6324833085041797 -0.7092740311540235 0.6322111274317498 -0.7620060714404168
Ni 4.0133351647283675 1.700077490395723 11.65781505557011 -0.15604693572666029 1.1855958314829 0.25019276307314975
Ni 3.550781752021071 0.6851944433677217 9.618176576342254 -2.488202567835921 -1.886840307464228 0.17739094862007515
Ni 0.6994073455644993 7.727147809995268 3.7810790881438874 -0.8323799931782891 0.16935239458631476 -0.5666492823705402
Ni 5.872463121155765 2.314211125502546 1.4049834276301922 -0.5362069067202829 -0.028816667121376177 -0.7411143155930721
P 4.317671224076719 8.884535705374523 11.515192645763927 0.35896739607640754 -0.7377294582812391 -0.12791315360492164
P 5.429191638418437 7.733396155040745 3.4906856322140496 0.6442014670244066 0.035053392059707374 1.1856711648055258
P 3.227358155659722 3.179009850218945 9.79587580671262 -0.1748355291880731 -1.2126217252524407 0.8303596203141506
P 0.7469484573934758 1.3228255585685273 13.157852936435832 -0.27760586497878 -0.16170747644654732 1.346804513916158
P 2.351238355401667 6.822081972763575 9.670093381064559 0.046875067284983786 -0.24743731181519965 -0.010703502460433178
P 0.6778686059321805 9.312440887703717 9.924571349672997 1.5454209475739125 0.5965933782281403 -0.03976545282339603
P 7.103840678680938 6.82333164177267 9.999926390921445 -0.894719217537143 0.1417893973663816 0.9317024796297115
P 1.9640168419241333 3.836224667313396 3.409002637375841 1.7932382684363504 0.5831043426027699 -2.435454586709928
