# total energy = -340888.12762999616 ev
CRYSTAL
PRIMVEC
9.14094678394085 0.00000000000000 0.00000000000000

0.00000000000000 9.14094678394085 0.00000000000000

0.00000000000000 0.00000000000000 13.37869959935947

PRIMCOORD
 96 1
Ni 6.6199833428450905 2.3196340754232168 11.812829972421095 -0.12392100172639303 0.7095311414701522 -0.39887580223557106
Ni 4.658720085574903 0.401680623953541 6.164610625748653 -0.2727354242603561 0.7401930893303833 -0.4876917327287149
Ni 2.8013619702495056 2.2250435582379713 5.059757186875773 0.21130225665553928 -1.247137242530807 -0.25103505646878704
Ni 3.9134678362904154 4.538982823822919 5.154946436074512 -0.8202829528044389 0.2452793849319324 0.06947789228616422
Ni 3.529858864102938 2.936839942340975 2.9156603686728055 1.339934526269202 -0.05408521188017782 -0.22155658739369585
Ni 5.461514594782189 4.6439117518060495 3.171447825784117 -0.15362469943841287 -1.1388714308431678 -1.1383574673212267
Ni 5.409502607655783 3.054931833674197 0.7841067576288638 0.5088020323447688 0.13004716922878892 0.23212767804132278
Ni 5.433698693758349 8.268681066231215 12.830507116034605 2.6214880414963497 -0.36317217818637454 0.301443590828326
Ni 2.548943866117947 5.8263206394619305 11.871802790513541 -1.2725569681554922 0.1959491712382367 -1.1637743647324343
Ni 1.2856101766993118 7.996847591158271 11.613928455254435 -1.809736780312006 0.2994144762134392 1.593312886159185
Ni 0.8611137496056112 0.36702820883974635 4.831115599389995 0.1813414486273909 0.5610540476709499 0.30476597033333963
Ni 8.764677978966875 2.6207368620565745 1.3138739841149265 -0.07018314588330493 0.7311546332771989 -0.6350550246384482
Ni 1.3400719375603183 1.46712195672902 2.4523962722290524 1.7065841214812156 -0.2693207421518523 0.6046715272505844
Ni 1.8636470867037749 6.712434878485946 0.8506135440498814 0.16849210346854854 1.127470645205394 -2.009608683643416
Ni 8.140113649898545 4.150958774345098 4.019710318324524 -1.6007922252553657 1.1053517018191674 -0.3235365660726235
Ni 7.94183737349101 4.214351240201271 12.754783512984492 -0.730521113458258 0.008704212642217268 0.511617647416693
Ni 7.9471116997778175 0.26556644196681733 7.086937639500254 0.8208786774069088 -0.6774782267996655 0.3174800754658984
Ni 6.957147164489638 1.0141149166568906 0.4246719332717019 0.973202398645711 -0.44964583369958694 1.2771319891206843
Ni 1.6993934141775209 6.9276676111534945 9.769995648451452 1.4213294817079263 -0.5186591276445067 -2.097724245635426
Ni 0.2477745031719428 5.080410242009938 1.6865321020708683 -0.4287913588480809 0.30571136496574447 0.2176387403965284
Ni 6.943417462439751 2.362166900748202 7.41385994438269 -1.572390277073905 0.2670435160819014 -0.669451499840447
Ni 3.6142023799580083 4.536734150917279 0.5970308832997104 -0.39713465117474833 1.0336364355620522 -0.18877425075635232
Ni 6.262864834399673 5.979641739650191 4.961798230805451 0.17113725440087946 -0.9312232260004478 -0.6182865469308577
Ni 5.475856740265727 3.129942442876181 9.655701820501537 -0.0829054785459798 0.1791614102569366 -0.47214684301558035
P 0.0623083495691445 6.174627275220201 12.781594823958212 1.344365308347046 0.46567331947609475 1.0385477568207404
P 4.068580562045772 6.66776307161657 12.909976679071434 0.5217593638363852 -0.5845775847141867 0.846348025322607
P 2.442634655172411 8.736761527528554 1.6872149307946545 -0.07617073092530752 -0.08308211333316014 -0.33594650970120205
P 6.44497077596949 8.171613352471056 5.985871294874557 0.4177250737315903 -0.11281872116564441 0.34963660559378495
P 4.991715635491921 1.2387354016581504 13.018906599456185 -1.4035960689839053 1.3621378018391188 -1.5756702333767574
P 4.075015788572484 6.600138347405473 8.209169846373966 0.550109118623672 -0.9150368460485725 1.3753247328430378
P 4.7030993821476095 1.1411832177191341 3.762732709943642 0.47463027155906645 1.0997595524433703 1.6600247856644377
P 0.34678192583688583 6.031397780267012 3.848784668750192 -0.8379307477931891 -1.5858001227219076 0.1710747765940602
Ni 0.9059308975286436 7.816981181547323 3.0213790744569415 0.7291609998859377 1.0815358303464924 -1.4142692324270352
Ni 1.9518206592558502 6.910482631224207 5.073189808155607 -0.25963256832981096 -0.7520067941358597 1.3224512818827743
Ni 6.169426076507562 6.0846894999413434 9.317220788427305 -0.43737421542108545 -0.10393864506719518 0.808098237812789
Ni 8.79846291823211 3.008660361119915 10.464363903441063 -0.15606750455195056 -1.4383175316254908 0.5516682355806758
Ni 2.4075059967318526 5.62196563345175 7.265196156574201 -1.778279590243989 0.37880011453161855 -1.1667612152749003
Ni 0.5833185490486875 0.06283395400847108 9.35699579011151 1.0652517484744881 1.4928241473138033 -0.029141654560962713
Ni 1.4624966376629458 1.458227815520937 11.617099449689258 0.7491693246870647 0.5801437173125492 -0.45970244660464055
Ni 4.437628006027209 7.123960302111743 1.7254780198829536 0.4818635560827121 0.3153753704180698 -0.31766390934193034
Ni 5.545711855488925 8.210242993524867 8.229893286798266 2.109625882169018 0.558079024203026 -0.2489627473207906
Ni 7.223678890435463 0.8401672700801 4.8209069900362564 -0.7855527484121052 0.6998023442181626 0.6022477483004403
Ni 0.707962671027289 7.787995239336809 7.147155454542895 -0.310521127649562 -0.09061595981636007 0.06416290783115401
Ni 5.128162547941106 4.594943699954353 7.568664620231867 1.3773967848807183 0.6143938967446709 -1.1254397308182942
Ni 8.002121917445079 7.79839763676209 9.129784760795378 -0.15844371809361096 -1.0717900638136382 -0.6040534340506113
Ni 5.0703734824554925 0.8709155868280444 10.631758405277798 -0.7343145190624192 -1.0370727149371106 -0.07242000563362366
Ni 8.350711922553247 7.793580357813827 4.752301442236641 -0.42871114042944874 -1.1419935214119172 1.1562004090399185
Ni 7.091583068649226 6.388068382320655 7.010518410400876 0.6681842030922494 0.9016264861799375 2.5784426323701015
Ni 2.592006866355644 5.9936273882096645 2.86593179004977 -1.7958659358671845 -1.8530017616482282 -0.08034774512113259
Ni 3.3430727577864228 4.727258904463091 9.139805980740313 1.5888373668863347 0.12884852093499746 2.3710579656014135
Ni 1.3285726265225293 3.916795140915022 3.7421162185965597 0.28796921049097507 -0.278127798920521 0.005233737595113567
Ni 0.8023923075493667 0.2726525039036169 0.36434351277313376 -0.015498609856231374 0.1701484081250489 -0.3465800781556483
Ni 1.373107319190341 3.6721559824854975 8.823372912277483 -1.3244937662340996 -0.278307776141811 -0.6085639203264551
Ni 5.620009470842778 2.7410134396680412 5.090581373481916 -0.3409547615490709 0.3169478571115122 0.13573804896597913
Ni 4.377745663731061 6.956909499873595 6.044523265735343 -0.3896933644053547 0.9789660406023657 0.319000882985799
Ni 8.474462059937656 7.603997121785416 1.0117391845911343 -0.24814462229486942 -0.34929490598365 -1.19660041012352
P 0.2530415167013338 6.090192349897424 8.44971934521819 -0.8090418326729808 -1.18763934427549 -0.3257212324287681
P 8.976409729021169 2.0494825345561174 8.234830312149228 -0.5007881609013569 -0.15422890868131503 0.9261496681322825
P 2.2420182963915276 3.8465469649806763 10.908336031724838 -1.6802647668603965 -0.043780487520060085 -1.3465453467175004
P 4.290979796981704 6.314456337974618 3.844489337862547 1.677422669425911 0.5729867945527939 1.5571210096196602
P 6.892145892001787 4.493415204169996 10.733382881003248 0.444017431769216 -0.44230610550506405 0.2442601996387987
P 6.497019326882979 8.171832735193558 10.588705460081549 -0.4122121143331611 0.6325993640091041 0.05416337341628091
P 2.4475342026416125 8.770793272356604 6.2717470923769545 0.4689687023979149 -0.5615093900408136 -1.9628516299935357
P 7.192974450232018 4.422188946931164 1.8080911545142924 -0.04927467786541191 -0.7268212960091677 -0.9251129993376519
Ni 2.9407248447186065 2.0561371438053304 0.3083808084523462 -0.3210595652870406 -0.7040706325762133 0.8329163252977333
Ni 1.647390567997886 1.3645879567998647 7.147583250851773 -0.7162144670275987 0.7125650432004695 0.5933512171417588
Ni 7.414587563745653 1.1386785983039083 9.733070793970413 -0.49375799352745287 -0.3773399850463243 -1.4775394532405908
Ni 3.1645683492443397 1.9419301548497394 9.202056742344801 -0.13759952765475011 0.10217538251918533 1.1980613109397624
Ni 6.811330781600284 2.4413274997841725 2.793860909329307 -0.9688446358976477 -0.6871165212203779 0.12401124744735419
Ni 4.375597541239901 7.4546888972295795 10.498318864316238 -0.8536566431688782 0.41976035899406416 0.010155600376763154
Ni 7.334403178671341 6.522458581746387 11.796895474010068 -0.8126017821100971 0.12258557074442114 -0.22678261167932556
Ni 7.734365304631953 4.221389769214863 8.629087573230123 0.7800747560166694 1.2332481432535407 -0.25204010069453364
Ni 3.1948248830560098 8.81871011532965 12.608353772566812 -0.414759306235047 0.6524487946348635 0.37054430228072954
Ni 0.1461527697305231 5.194443552976883 10.835114305805918 0.6358512952874985 1.3637812509798124 -1.109743917349592
Ni 8.868336315348849 2.7577048084716997 5.7954790850569236 0.6245127303462277 -0.5741646169109789 0.9574693041811705
Ni 3.9057163134286945 3.0327650377547712 11.734471034416933 1.256272886283488 -1.2667079655738829 0.23904805931023992
Ni 1.2160110079856998 4.170374145286485 12.89071121965709 0.48165401117506734 -1.2462566396980665 0.7453545789266647
Ni 3.306024500523976 8.736496440072198 8.288264630593185 -0.8429585400250839 -0.2955223402478846 -0.2836425580911632
Ni 5.828331647751528 8.070980669470247 3.866136013910709 -0.7731111802146428 1.07567705757287 -0.8643400910246533
Ni 3.2942875248701435 8.403775118558306 3.9485626732279218 0.5084256228419567 1.5176679458303604 -0.5706594319711977
Ni 3.4029916638696545 3.105865189081637 7.227708219772073 -0.034286689097011915 0.12622393882795682 -0.5326402724149473
Ni 4.88188716003959 5.143665593664548 11.489413220625302 0.8548285519897922 0.16538955328382485 -0.3116490706064181
Ni 8.253232866188398 0.12405818729058718 2.805727686427286 -0.6728409851379702 0.2621527636485034 -1.3177711027982855
Ni 4.530691985101715 0.44271433400809906 1.7420405013371425 0.03680714152602048 0.4297706920422147 -0.3858863319544386
Ni 5.9951356444268615 5.642203689602517 0.40393935190062974 -0.0006481751069601741 0.25933406325278563 0.1911203823910257
Ni 8.14975734874184 0.10540791359392537 11.785978441281587 0.12335870146501982 -1.4310644496075033 -0.05493856101940861
Ni -0.06341257593906889 5.4543023877799515 6.0608983577807285 1.0475504745399828 -0.6439749528358973 0.10942615054432768
Ni 7.36158835436799 6.377967636138814 2.8248989940898888 0.2633521832732432 -0.010375429697053098 -0.4137648035322616
P 8.803938345347879 2.0117578472326243 3.6382567813856244 -0.19494901210849652 0.5667940354785207 1.2195955854671126
P 1.940092824548789 3.551495485109652 1.644630002073075 -0.6190853886830693 0.1431094017293858 -0.9888169652545162
P 5.107037819953562 1.3029505527237042 8.262845485812674 0.16469972630565183 0.9072800849212891 0.21901967990445506
P 8.745472849801219 2.00152912779599 12.53574814646025 -0.44357314514294577 0.7504265941329333 0.825123568726192
P 6.509807511415465 8.428382547265562 1.6968869665729407 0.2080133014916224 -1.3146484980089035 0.08959806007480697
P 1.7250794746037423 3.933916134216913 5.908716219560121 0.8147463392569259 -0.04276258777850701 0.9965035352654967
P 7.050238566404456 4.348512915957731 6.253979834138362 -0.07548681748440547 -1.1143438780154484 -0.38194251681534225
P 2.657675427957771 9.22659744214063 10.257060942097269 -0.23725882862030107 -0.6507312977231244 1.7024675282096808
