# total energy = -340889.73517474346 ev
CRYSTAL
PRIMVEC
9.08764445290372 0.00000000000000 0.00000000000000

0.00000000000000 9.08764445290372 0.00000000000000

0.00000000000000 0.00000000000000 13.30068625000430

PRIMCOORD
 96 1
Ni 6.227508210948571 1.905406388396997 11.421338681587265 0.8738338894477016 0.49805096447585195 0.032683349165634035
Ni 4.576501338156027 0.0618768615345844 6.334916896910997 0.08263242739025124 1.2784540503662176 -2.4172092673464953
Ni 2.7951412949758896 1.795891186476969 4.651768843622994 0.41539359738493614 -0.19867634036141268 2.658240932745667
Ni 3.6283056155492903 4.434824962922997 5.20172581603975 0.5297302978570038 -0.39495769812808756 -1.550356437202317
Ni 5.295961052769475 4.662252350131579 2.6439901417558205 0.6421641248794038 1.2167887121459366 0.1892938707052482
Ni 7.4246054243351285 6.267048551464216 2.3680810807672077 -0.8706999718044102 -0.7663360662743383 1.7867824855086778
Ni 5.159110216680047 4.534589122468103 11.413332466925285 0.9180928592660769 0.413279636365727 -0.0743259644070849
Ni 5.740428649708039 8.142883745184609 12.31658160939956 -1.5055199976139169 -0.42192908451060884 -0.043094002975996755
Ni 1.8593774698238545 6.2143856525241645 0.6591004896833492 -0.02494689975332478 0.11876105479200838 -0.9479641929042124
Ni 2.611061971260672 1.57004504938324 0.3083683090359078 0.481215638086068 -0.4627072948692354 0.024039814558023113
Ni 0.7729532242460149 9.212145065665263 4.796639525840912 -0.16901378029997344 -0.6198310085998423 0.09809992689823105
Ni 8.95702762615809 2.3536362700915885 1.4665467767795555 0.022381967239625968 -0.24973973469613114 0.23486050359145358
Ni 7.136245381838705 0.7006582872420819 4.916040267272068 -0.8760884898098332 -0.28430204605203296 -0.7107007362982212
Ni 0.8160222970581954 7.571634422083376 2.6493900200215976 0.36136109311956477 -0.474725402376034 0.5834409000065822
Ni 7.539945806275963 3.845327649990597 3.7915333393304356 0.12319260820080075 1.303445944424865 0.7710771805037494
Ni 7.588928209259031 3.9264257880649747 12.510385621321118 0.1905549968058589 -0.4042815466321747 0.501732012871865
Ni 8.053688516004865 9.033763694950117 7.047541794217662 -1.3228073796706121 0.33994611777889844 -0.2271495081004411
Ni 6.761779909237538 0.7519589482958324 0.47091991207828826 1.094050160763419 -0.7313623784126307 -0.5467702840584261
Ni 1.7217996221873677 6.49795650645434 9.282043590857205 0.8831482248700919 0.07586476964911451 -1.0442445500952018
Ni -0.1781905301840431 4.872285986076784 1.1612219198325215 0.7887213759480739 -1.008797007920869 0.6835198050080552
Ni 6.461651367323105 2.023145908443124 6.875324572657139 -0.062201413229409 -0.2730362433302265 0.74207410840318
Ni 3.831877936370014 4.4085798460741845 0.6930919145660703 -0.6664155412276006 0.3265815235465343 -0.6177533001352071
Ni 5.853260841811522 5.687011476287915 4.868343765962861 0.022700269810993167 0.7613692091873662 -0.5680055392881186
Ni 5.529122743555481 2.949594898148472 9.092880638899182 -0.9125976404794607 -0.43094491485597397 1.2431476617554396
P 0.4239604187249108 5.545407802209592 12.374000981386242 -0.4939598251256138 0.6522333361899476 -0.12487565233017849
P 4.261514497748585 6.233569669722171 12.569773377071462 0.36568800262969275 0.39943758827631204 0.6152603585100243
P 2.32023008950425 8.243629370318242 1.3148394597259865 1.0015225857466428 1.7589402664854288 0.6262831919830892
P 6.307043274196773 7.951179887869615 5.891020004036873 0.7942183945069032 -0.9622896083879491 -0.1432644392500113
P 4.72385749110045 1.0474237111358853 12.656892988284351 -1.1833430308929813 -0.03265892368560182 0.19564835216836626
P 3.9187739915321838 5.991538438062052 8.417565065423124 0.1862725673804211 0.26487864722009863 0.47773333596442236
P 4.696440068132006 1.0188885079138383 3.838963572660534 0.10211239049173382 -0.020869901470473733 -0.4178641704126158
P 0.2340695464553947 5.677196820402625 3.5192547922549466 0.14260006619313506 -0.13069637277701363 0.12812578383635997
Ni 2.0561340573909046 1.1099285288942413 2.7249910420357786 -1.4802887338509538 -0.1792596263976977 -2.5731021939937944
Ni 2.005897559489161 6.431362248743779 4.97038619794356 -0.6932653144305932 0.005327068639868245 -0.7450743286820845
Ni 6.181179400112266 5.642318441432493 9.330510724406295 -0.8217525953714299 -0.7946230861444895 0.4839314943553343
Ni 8.510306293423646 2.2958661150334514 10.45560289664331 0.35332099642390763 0.026431711828967384 -0.5177242745350633
Ni 2.3420949617820344 4.960245295626527 7.0520638060403655 -1.068266881151728 1.5434489114492065 0.6251933013530201
Ni 0.19878949360551243 9.192697506781448 9.095700534937334 1.2643019272355516 0.46942738720188837 0.7987065121852438
Ni 1.1795853227467858 0.9534302057455569 11.356750975746586 0.6861117341049474 0.8765952542429226 0.7257869412073822
Ni 4.027716671858903 6.894059660224836 1.593781067630267 1.0180095276580727 0.4772409697090362 -0.8761149721723943
Ni 5.803951283632277 7.603368476112481 8.17425611096905 -1.2972071626040047 1.4894176927354155 -0.636812116538871
Ni 5.594317504037954 2.7719950648464136 4.750912317059798 -0.9761846212024865 0.47418187116773813 -0.2924331597995996
Ni 0.5368898486228122 7.5054854589453885 6.817173645301228 0.33130386872286816 -1.816355314069788 0.34599412374519123
Ni 5.001185133370261 4.417885593876534 7.345330267715 -0.4179330759773383 0.47079984206938275 -0.3332674202071421
Ni 8.127698291495424 7.145532954352378 9.026643525611112 0.4886240147349971 0.6047327195058231 0.40557635418419824
Ni 4.6458491521010705 0.34632012932123013 10.235889101949018 -0.40198966527420443 0.017202994141847793 0.7150541281709105
Ni 8.015002414057014 7.390217778159261 4.565567084488266 0.29551771226219425 -0.181247603362004 0.36257079715694973
Ni 7.156011008274359 6.196864674240054 6.902803791607082 0.47044940070849944 -0.6865552494002692 0.22127762270069634
Ni 2.4449034821804476 5.083428314631256 2.732332949896636 -0.9870195070344613 0.25676938784940295 0.05319509596574064
Ni 2.714888307824967 5.226804079355533 11.679757662282519 -2.3921926906974997 -0.2783180605544562 0.19657292086516467
Ni 0.8629227207233743 3.483030533158322 3.627429566635085 0.2797059420409183 -0.4454744759307167 -1.0633427043772332
Ni 3.8399023263206726 3.026558158048954 2.9078889719870262 -0.5163731598238074 -1.6397418670456858 -0.8890635619132625
Ni 1.2860743391021825 3.3352654362186778 8.281246765291916 -1.6358687572435244 0.22582256175890142 0.8484270193388228
Ni 3.3361014994977953 2.667278139136972 7.063063490747361 0.866148862098618 -0.5746754951091264 0.06912410849117127
Ni 3.9967278046655337 6.691377928549259 6.264969298439628 1.1096529002976825 -0.10243069306310101 -0.5045005767559375
Ni 0.695163897475187 7.467181038059743 11.157333525917302 -0.3977769127444375 -0.9248695158682783 0.8566833458103439
P 0.036615027803168505 5.535338692282831 8.091512200505019 1.1860606869344605 -0.20000174404105553 -1.6172488281494921
P 8.56064275541311 1.9232636095216216 7.909213146315662 -0.8270878915414143 -0.9704109519435031 0.7293903422879245
P 1.6867849285521619 3.091334886891868 10.59020544952346 0.36123253796150046 -0.004145389626941247 0.08384727363395882
P 3.967020295323855 6.228371537160703 3.632656779658436 0.9090083804663055 0.35579362633411626 2.485276138217746
P 7.11099081822276 3.933859481133648 10.455909150257506 -1.5953124330877169 0.6298531687225346 -0.8297255862745774
P 6.46121516039487 7.945872703576088 10.216429729127563 -0.5003407889512932 -0.5981722926794859 0.43180649152532086
P 2.346820536837915 8.420938399001477 6.233100747274319 -0.3744379809081809 0.3288273821579175 -2.5788434673529457
P 7.061363192491678 3.8612855534485315 1.7547995850727878 0.23400381201811313 0.27808409016677915 -1.75340005339349
Ni 5.617427383590076 2.8221770368821284 0.5459638614945362 -0.7633857253967626 0.6106092328912581 -0.2548711423854256
Ni 1.2592294377270465 1.2889278594243871 6.9982622252647335 1.1618876892326828 -0.8283333339127412 -0.7794173249383286
Ni 6.791732784976349 0.7243688600849616 9.138316134297037 0.6454420242997271 0.46787084134804585 -0.141324284804505
Ni 2.7605991588462717 1.7205273519800153 9.287204464076886 0.24783608991551512 -1.5885440040156318 0.06278942452239508
Ni 6.724529655095127 1.818728436698945 2.6981243303142315 -1.2249663628607228 -0.25298575243725463 -0.27778764197228284
Ni 3.981469649821643 7.177303358958835 10.506398284671853 0.3542946731910866 -1.3914337225897584 -0.6818388177612064
Ni 8.377626686085465 7.061317754269987 0.43019090768320234 0.09414505601554109 0.9151790280533917 -1.425807572083938
Ni 7.5762691206958745 3.83195063752472 8.178020213253946 1.049681919060689 0.6292091073806324 -0.012341552284488421
Ni 2.729810219828343 8.175353898405108 12.410165262030235 0.9259372950111602 -0.09079979369239202 0.30030562056914084
Ni 0.1409357322194631 4.74400479859831 10.122619794152868 -0.14039380257043563 0.11244925364136762 1.3229217937612894
Ni 8.719812845997234 2.4911323289290315 5.457950130627319 -0.17566419573695552 -0.2982322829798799 0.9784479633153664
Ni 3.7183005574307972 2.808436518642722 11.840244552531251 -0.9088561711591573 -0.40230513963209424 -0.6688213224556159
Ni 0.8518712364436509 3.295152574109724 12.694706676375732 1.1972951221976993 0.11320875751521148 -0.4928617069654285
Ni 3.348324381132717 8.14261111585446 7.983098421078784 -0.6501314593555965 0.5175862062953022 3.9902559470574763
Ni 5.579341066168548 8.07577149174677 3.7087767061643304 -0.18633607362850488 -0.3409524475562257 -0.4252028701658741
Ni 3.0170343067824876 8.351835951453564 3.8700869369901083 0.9265785281395849 -0.04501693103032247 0.21665915009207848
Ni 3.3794132124138065 4.203907920288535 9.682566974833817 0.31366378704360176 0.14017345902951342 -1.3449738884653224
Ni 7.327176789384949 6.336341839543231 11.513326543872145 0.8787403256103834 -0.6360636684086207 -0.47350181438157807
Ni 0.6292539393832954 0.07104992972959527 0.394145675180041 -0.9307722545059584 -0.2815854184518183 -0.020196786662849086
Ni 4.655881911450479 0.550733966007674 1.5424804065765163 -0.9495559628713646 -0.7592567908300537 0.9880957708177758
Ni 6.145601272528091 5.6038595305930965 0.21978831337786392 -0.3925969112053948 0.5148595513927584 0.9466745275585116
Ni 7.9554874312859365 8.83915179144689 11.553228572632452 0.1477471576117133 0.802295772198399 0.14761268891637805
Ni -0.1563729136568169 5.205593517470102 5.627480135757028 0.4324322980347779 -1.112557475538987 0.42256183299860134
Ni 7.889047663529126 -0.43911133936561036 2.3962782236198725 -0.7935740760546849 0.6162918850983321 -0.09740135816930967
P 8.686034071992028 1.3197167984423153 3.4152303450440784 1.1042702958295303 0.618125081652329 0.5337545885250485
P 2.0215101324622426 3.3083387460444977 1.5002510321011886 -0.3453701170079471 -0.6140447409353683 0.204465436239364
P 4.754301099633525 1.0248136520223652 8.190881956285844 0.11103386135107975 1.4157545587233102 0.15588289934497024
P 8.43427906089 1.5927005467184512 12.682562857246554 -0.14132402769418886 0.5846619168978769 -0.7527817246286713
P 6.187040930710426 7.72212581232449 1.1558438519131562 0.7180872585702793 0.13255116659756527 1.1353780729779286
P 1.6821320546509873 3.3993878546692393 5.626575915145374 0.15431735463006324 0.13961141587845632 1.2309277226504802
P 6.716259898747337 4.110114343073648 6.114086230727537 1.1955958801184055 -0.059853996043154986 -1.0848204146350349
P 2.2746919037253717 8.64229523979212 10.19178403768228 0.5397930814096445 -0.3020362301070024 -1.08901002723635
