# total energy = -381166.2411339455 ev
CRYSTAL
PRIMVEC
9.25841393874976 0.00000000000000 0.00000000000000

0.00000000000000 9.25841393874976 0.00000000000000

0.00000000000000 0.00000000000000 13.55062465418028

PRIMCOORD
 96 1
Ni 7.598954438074846 3.401337639353504 1.6033101149798197 1.4955826838955468 -1.3135606642613635 0.7374862319221815
Ni 8.23770168226649 0.8851710444098404 2.3604780300061754 -0.1193331252453945 1.7082666513899611 1.220531981238453
Ni 3.166933112263825 2.4039286930160726 13.14369918314196 -1.2842889118804397 0.07893903769906405 -0.4361092326657328
Ni 7.964245164685292 7.104203307708378 9.287137360554619 -0.5829847863057702 -2.174337463414791 -0.13869687448398693
Ni 7.6979083675137625 7.691788555822228 6.946321424480837 1.1932644037717515 0.08414346471813897 0.7649286444038504
Ni 4.215281852741687 3.9009864707560125 11.52303139348848 0.3777097096809172 0.23623835777558672 1.5545347369497227
Ni 5.023402523688153 5.415431550094594 9.960129626659498 0.2985217891958407 0.24209918743173792 0.09784204525115409
Ni 1.7793005302610259 5.068102146754311 7.693895770861552 0.5723982690391756 -0.5450674424347065 0.3521105210555742
Ni 2.9276586593802776 6.363687576204555 11.731751228301826 0.7021973268129004 -0.019670738956049993 -0.5216804309693338
Ni 3.864934206418892 4.917301098597398 0.22529702518201955 -0.08117486900811827 0.6587531395863364 -1.9482061121662193
Ni 0.4165684528639491 6.133097515706272 12.031979375969621 -0.38297738583775975 -0.7071970940203369 -0.0845926364404156
Ni 5.780555625252019 7.747570500514356 5.853666543534231 -1.4123241928855226 -0.28384978900596275 -1.16155781669709
Ni 1.6248609253797976 6.023218657680349 1.096040682967172 -1.9828427284034817 -1.0112341566074519 0.07343893381644127
Ni 6.401526714454635 3.7113000835606043 10.733341447404856 1.5870154831862475 0.6457628979742556 0.4117793976711166
Ni 7.461068877527149 2.157080857434075 9.35192311291697 -0.016014630260701452 0.9248386626303428 0.2717180387394353
Ni 4.957667783884981 2.520658777444016 9.251200826393207 1.2562692867390624 -0.5977277489428996 0.030561160616308654
Ni 3.3503145194865627 7.188278965758041 0.471552322264383 1.5276559102810077 2.0770800870225132 -0.513289121581845
Ni 0.15546821468293687 1.5790595510408831 5.022660924722204 -0.08804228555191289 -1.573997987880657 1.4316288067514054
Ni 5.75091944185625 7.139227888085195 3.5623646058361347 -0.6644463333163718 -0.6448043907157283 0.7750729319267038
Ni 1.8062332567522128 2.9232979463595323 6.488649316570386 0.933413034562915 -0.318517001370845 -0.29802788027855764
Ni 6.167279580403921 0.5268954181302201 3.6247376154952886 -1.7450815062254657 0.036444101759646914 -0.04155082685859296
Ni 0.8068430098066293 5.3554277685925715 5.57770840247489 1.0086237155677986 0.1794051508366265 -1.2141132221963025
Ni 3.961730925382578 9.172755209931475 10.952603838304663 -0.19909954394176033 -0.3100629570662209 -2.6378392291608637
Ni 0.5594915164999426 1.6278421347060825 9.026220438971931 1.1292138531487457 -0.3626682419667625 -0.392143368607744
P 8.917352599761008 5.99251775666805 2.5286274944226905 0.8397415757496829 0.12632832561630503 0.6312068545369516
Ni 5.765594028136253 8.896289707781824 7.9173050054173935 -0.8239233777705036 1.4557755792009381 -0.9142750281818836
P 5.121060275159119 6.737579369473754 12.254466472485408 -0.7236806934976568 -0.6896827392856574 0.10512418073486411
Ni 6.120552364659328 0.7539700588111423 1.2943272109799278 -1.1733920903278567 0.1744390650806028 -0.5976141061831708
P 5.694174622102215 0.7720943301687043 5.778975213972524 -0.160297226362582 0.45106688241682963 0.5591408898086371
P 8.659848329599651 4.205180923005735 9.798863793094203 -0.42682446492969717 -0.5098608126265863 0.40196472557353996
P 1.6155099271824451 0.32942918560289575 11.580296536112506 1.1405223361830292 2.224858612092794 0.5077743624112029
Ni 5.071972163830046 2.943444255347096 0.5925746074490518 0.7590984108753185 -2.044860564867175 0.7070965638867306
Ni 1.318638880451639 3.281376368419743 11.318335265424212 1.6506610850613506 0.10074250672740069 -0.7037093925820526
Ni 7.320563185801382 2.465302719798499 4.648948744685707 -1.1079667708445113 -0.5529692137802864 0.7565275648243487
Ni 2.542730836555391 8.993021617847111 8.605880108221246 -0.6065751720312005 -0.052573403221341714 0.38019442377598395
Ni 7.533478933865264 1.3546818863747023 7.164595016759379 -0.40012972924733026 -0.7989718500314885 -1.9912918876120995
Ni 5.718302049134197 2.9706639926740435 3.0181309557017735 -1.0464819240661527 -1.1186427625011188 -0.3578319969203837
Ni 5.46004784743424 4.905579946401509 5.651017450817918 0.4045412280514646 0.5865226242556996 1.531827525160194
Ni 1.9071129363149406 7.337746802290774 3.3524920984727187 -1.4072655474156925 -0.10325807406040281 -1.4346164286248195
Ni 0.3884654628359844 8.449043499940718 1.7899967760208293 1.5146551271459654 -0.8453568650539314 -0.21828794394475312
Ni 6.638384721269361 4.203347757022492 13.296577819413216 0.35144537666774955 1.2033346435235597 -3.359511376868924
Ni 1.8309161886276013 4.946789147368259 3.2517836995700415 -0.9557368948710959 0.8077097441251185 0.14338990908428206
Ni 8.042682448574373 0.12694674433960546 0.16061126369148085 0.5043239419687572 -0.4515844454831965 -0.4537698831702895
Ni 7.230941737731705 5.999396758312241 11.221272829977098 -0.4527782086809815 0.4254409543186092 1.3812855784121632
Ni 7.758949091390145 8.803825926596712 4.863604148750858 0.3052120567318227 1.3603953652267151 0.10482259033404528
Ni 0.8248126656494429 2.9750432225229027 1.731132705289197 0.17010547070225543 0.29771471991351306 1.1315209040153673
Ni 7.514351050423946 7.811555400060796 2.5341158822755525 1.4373238002536537 0.656758734864127 -0.8166039612909549
Ni 8.860459645382067 3.216363784913 7.284666462820416 1.0016999918647715 -0.5501219741394784 0.33476457357795897
Ni 0.7339811428625439 5.99770246853985 9.614005668829408 -0.02770415078348777 -0.926452801194998 0.17056132729275142
Ni 5.504895605125306 1.6965766006636531 11.809938535011375 -0.21268936681105305 0.6735593513612336 0.9461158268415641
Ni 8.059884581891879 6.229699807974765 0.5311968773010023 0.33728271201412235 -0.009058253547526336 -0.22104956585029026
Ni 2.6541651081428532 0.29525823100211424 4.489931779894804 -1.1567827639059496 -1.3859955822933225 -1.691792307884022
Ni 3.209947703971648 0.6720951257827769 6.597663438723404 0.8072973391780484 0.3500502960924359 0.9354460058325439
Ni 5.058343778338459 2.73537991624897 6.941077458759073 0.5553449131013146 -3.875334577726532 -2.9889020256782137
Ni 1.8199820016265384 2.682014417625662 3.9782331225973913 -0.1626389871218812 2.20326880173716 -0.6984183193864424
Ni 8.51031568416852 5.467121275773624 7.322269511512048 -0.5980190549310733 1.4369553611706414 2.3406729255516527
P 3.0647572547331476 4.994127418440599 5.890822410826919 0.0787282072398386 0.6668315457190968 0.03937104559845478
Ni 6.8286636469644035 4.802709707816573 3.720364996763602 0.06132003906572021 -0.061136205189688264 0.2186849222728556
P 8.292687403349735 7.977373595817814 12.06568000313632 1.450295015702341 -1.1134635322930242 -0.7076454944116651
Ni 3.9543519693793203 1.4881974754875966 2.607939698440138 1.2155342709135453 0.12133112951202976 0.4901260532018204
P 7.704278156384831 4.381266699951726 5.843720229313027 -1.445994074334142 -0.8099358052421599 -1.9206991649952019
P 0.5698044639177952 0.0817480927557875 6.925209462907151 -0.07052407416249144 0.8450969265243252 0.867254693568287
P 2.5554426390553564 2.867710428362596 8.533885754674282 -0.6617438467835441 -0.9383050725478937 -1.1438498578943654
Ni 2.790624872925805 4.509171690146209 9.816655687387124 -1.0264566299841613 0.22115498107990297 1.44730585116703
Ni 6.696222033882096 3.9372424202023817 7.9196899728784205 -0.17274599364889603 1.316112998369572 0.7696695015229454
Ni 3.7022453546130687 2.263441518118419 4.803588331310562 3.5529709489160877 -0.4808279157293461 1.8335354253935003
Ni 5.944522138197678 4.967703904722535 1.6692883510726857 -1.274379880296844 1.0848211859659833 0.5876683078243686
Ni 8.750497461629632 3.876609066544497 12.154829272089101 -2.900968497790023 0.9774012672184069 0.450447760775592
Ni 9.009575662180643 3.948139573547217 4.082451386268995 0.18606096559024732 0.1228586219001497 -1.2339482546443588
Ni 8.600372277698867 1.1091209703465978 11.220147932669196 0.06439276445377297 -0.6378644690627854 0.21867540919115888
Ni 5.898461528265173 7.185992137486015 0.9837648215419479 -1.1763630000307224 0.7087487547781729 -1.096275707659828
Ni 3.6520832672534085 7.041940473176499 4.65882654664289 0.4927652905968803 -0.8214366067929079 1.4883751104035141
Ni 0.7181742525433951 8.04810787921165 5.210364159626649 0.2000937895342296 0.5220357574262235 -1.48931844815339
Ni 0.7346940407449163 7.08012217274668 7.140975876659115 1.5369504482090564 1.785094042062661 2.7722994398556837
Ni 3.1253535747348047 2.184698706565464 10.432530945492887 -1.3071413909985812 -2.5349904747237373 0.9229707561836685
Ni 5.473805850722623 7.7077500616561245 9.841317324910182 0.04288420095803582 -0.33573567924197667 1.9241236172957186
Ni 7.929914965362734 -0.0660495258811031 8.94667770044447 0.6224005690992314 1.0378381323482255 0.5351103312219946
Ni 6.242198666951424 8.62031490157718 12.268004125519239 -0.9440036655945678 -0.20447520643137684 -0.18962657145431858
Ni 1.2753095026658858 8.006741285205935 13.014236927703125 -0.3487480323412446 0.8574356505953363 0.5982733370337244
Ni 0.703263576704943 8.305223295982621 10.260736443462216 -0.7214528326084026 -0.46309707410848633 -0.39472501329199117
Ni 3.014354448608011 6.655568337758754 9.193977346632439 -0.14364084875282357 1.2624702733434516 0.6537672563359708
Ni 7.990789037786095 6.5546793997819695 4.581453054528934 1.125559801335926 -0.6144666589641352 0.624619431127421
Ni 4.155213262341267 4.331095354178009 7.950340878454813 -0.8960636473801793 3.12941332766312 -0.5270422095018794
Ni 0.45731380728645354 1.983605953252097 13.23984133223183 0.6060527238688272 -1.1498299867372004 -0.22626453439232647
Ni 2.479560677445948 0.7009489731907468 1.2746030856733532 -2.3309667540074828 -0.28185795538691455 0.4887767382627775
Ni 3.3147529510944524 3.644306199445709 1.943213344405156 -0.7056060953841332 -0.5725268241972398 0.5532947154405051
Ni 4.011744878117329 6.107757236432851 2.3931620833094374 -0.9217826494128383 -0.6567453651276882 -0.016212605204120465
Ni 3.96057362362548 4.379053938992154 4.0440076735810075 0.3251635601530851 0.6507873477720405 -0.07457844673752317
P 1.0469507199552874 1.0664396815448196 3.035271983486505 -0.39495666968682297 -2.0343799770508255 -1.1347602368882714
Ni 3.3899405316496023 0.018467758519068737 12.958327216897013 0.3463491930917648 -0.15828173859444997 1.0787053028762326
P 5.905562731846727 0.5794322886954457 10.024020090382558 0.5760803458764531 0.10990591839422362 -0.7541760338730367
Ni 3.890024508512779 8.403343968156427 2.617249033774235 0.77898023740091 0.6582651442063243 -0.5542462807204971
P 5.8962765425477714 6.5144608491192955 8.159684730375586 0.2220340412507466 -0.15579805294064783 -1.3286466120602085
P 7.413276944166026 2.1421562939745376 12.932255522913108 -0.07290311591762928 0.19737021995547946 0.5813634486522633
P 1.6265366983240759 4.013716920311424 13.536857736063329 0.010955470570239196 0.2907426594710541 -0.8059217989867603
Ni 3.802532495676162 7.298185599026134 7.183958989759145 0.16124647764972874 -0.17003450825500394 -0.5020711413788386
