# total energy = -381173.3906338944 ev
CRYSTAL
PRIMVEC
9.21263717090645 0.00000000000000 0.00000000000000

0.00000000000000 9.21263717090645 0.00000000000000

0.00000000000000 0.00000000000000 13.48362572726060

PRIMCOORD
 96 1
Ni 0.991463999665278 6.387056780523506 13.185434773879715 -0.3665408375482913 -0.286507538343784 -0.20706070777036598
Ni 1.9162008691542356 5.909621077878519 6.089393713543529 0.6911456969844291 -0.5581695270343032 -0.04285437616136491
Ni 0.9840846773856656 5.921155299469125 10.802447089250286 0.7821894883668271 -0.9814450982704775 -0.4635881548122919
Ni 5.546081207122233 1.247639798203583 11.286940593141727 -0.7432992390595328 -0.6340998598140305 -0.653045804788914
Ni 7.288881821661157 7.179315929187461 7.185262686405301 -0.11400425683331335 -1.7023328024040296 -0.6325276302309043
Ni 4.164802895824945 1.512420199749576 0.19569207249293752 -1.029323152898679 -1.3324811553149503 0.890060635719209
Ni 4.7878903902810075 3.853130171678169 4.378659524795675 -0.3443187929252973 -0.43724643159396953 -2.506030082935645
Ni 3.0365496611937677 0.5014023779388831 11.795300354583185 0.89684860517532 -0.10399700910895639 -0.7304000144993614
Ni 2.911607877478283 6.94958961162889 12.012454186355255 -0.33166176628291916 -0.5672712322252553 0.4144248057137637
Ni 2.9075266792637158 3.058226996179945 5.728895855542209 0.16863942767969023 -0.007674485826122267 -0.7397230916725002
Ni 6.9890289108536345 9.046956988434285 4.973826280134607 -0.15759705382259956 -0.558564962700509 -1.0651483901274044
Ni 1.3880035363461232 4.289247197139558 0.9146711422446323 -0.3781365128056907 -1.2084326268717576 -1.0115097788663419
Ni 7.802237596176566 0.12087440445649769 9.929840847790558 -0.36504111307431325 -0.8896687995974291 0.6652330908837253
Ni 7.784807286871914 5.322785310226795 10.972422085409217 -0.3388081475197133 1.7738313246646484 0.03088126295988875
Ni 8.939758743683262 5.141222659182349 6.618976626964443 -1.2038414079566493 1.0470120855380098 0.18903161818279704
Ni 0.37114858769852344 2.8922613396665646 2.506916078269062 -0.02294555305257984 -1.0686877707392304 0.3647199822894686
Ni 1.027936829758893 6.932233003420663 3.757077375234106 0.13396990132196282 -0.30442298517162414 2.031967768064907
Ni 2.0271210192747517 6.222463806931052 1.9679215348346002 0.6293690299972645 -0.2008545789596541 -0.6321288521305888
Ni 3.9276235548903364 1.272219113861518 3.6176431921702332 -0.930122022516469 0.9876180598504087 0.3392706889784286
Ni 5.352118346604181 8.032553522506541 6.16444354003371 -2.1222487131393515 -0.5942922408987894 1.1095983929106632
Ni 0.6974905938251081 3.5929008128364566 5.272717391633774 0.8809738429265924 -0.9438841092975679 -0.2466364131804591
Ni -0.2026153692384166 4.674473615519075 3.6138945701532865 -0.37068108496891 2.7940571432477492 0.1023972687220043
Ni 8.403380589171908 -0.0832730263238659 7.473555580238469 -0.0860522517050776 0.17746011129511374 0.1069846309823706
Ni 2.443117645411953 1.7729627882510974 7.634820028063601 2.256571884035675 -1.2282476047151556 1.2687743611846083
P 2.299446570567315 4.582780238928585 12.135964326272672 0.1429952447490247 -0.197195384940512 0.051413064364653385
Ni 1.9021608102851604 1.3879666857979105 1.7751194665852512 1.2390290116013758 -0.4016970737344501 -0.34479804655456103
P 8.041627970003942 0.6085831186795057 12.191516527703465 -0.028019882251693676 0.1527384401787176 0.8758506627674141
Ni 8.537277056103102 6.92191484992108 9.220696268093155 0.7456903649995287 0.9239284921112474 -0.12810932877612774
P 2.807726182066411 5.212592958433482 4.307479005867838 0.08477415632360238 -2.2950116760691124 -1.5747688046084105
P 7.2511376476542 3.5637704544742412 3.177578551731549 -0.6990587811839187 -1.2664148598134963 -0.571237415961855
P 1.5658442820210772 1.2651069580564485 3.972640184587088 0.03344413859105853 0.16425595390001388 0.4028700109966287
Ni 4.528950800626743 5.112884587606708 6.12478866510192 -1.0379054952510511 3.156266186189906 1.581446473738902
Ni 0.7818516325849569 3.2163619111981068 7.553230150529355 0.42703015318260007 1.7689027770147794 1.0983927540028309
Ni 5.64600146860123 7.739011268080461 0.8465003918420756 -0.49081459462841276 -1.1678773311572144 1.1314987925281803
Ni 6.143115363991849 6.118075416481254 9.126405849117369 -0.4077399374944204 0.025024289958479485 0.14288083065834747
Ni 7.932135778626672 3.623799997512886 0.8138231682143787 -1.2141990970418897 1.8833122397063116 2.115792415991047
Ni 1.3807900415334686 9.015634022453408 13.182037153334495 -1.3728621302351582 -0.5226332818009064 0.8589816549262174
Ni 4.965887750785866 8.14399879293909 12.217768858250258 0.7683728941987089 0.767543199208562 -0.9746838682872438
Ni 2.877180252810478 2.4082754520767544 10.068573949174683 -0.04823595218825241 0.188223777569521 0.12087758691437892
Ni 9.115296330094916 8.988438317872363 4.407864505518021 1.4872577089696193 -0.5214228064325729 0.37113539889750924
Ni 4.60735955458652 5.715575303626989 2.6331089380963713 -0.25724607037550534 0.057854449114622945 -0.11925650637118816
Ni 0.7290125527663339 1.129036308780699 11.14495819466894 -0.4684627092957738 0.36758624809367013 0.7158431997311091
Ni 3.3005746265013984 4.01331029212214 7.902995286363698 -0.44952756295416774 0.36897258691823553 0.7480290404350344
Ni 6.396582647236514 1.6870549477300167 13.542278900025735 1.749161075611478 0.003978782142089922 -0.48409167408228243
Ni 4.443098235927981 3.1609202614119547 12.131811269489091 -1.1488488537708537 1.2815684276254833 -0.5963686638118438
Ni 7.871774580654113 2.795777391808412 6.672830939386328 0.05384429951396533 -0.44371044205175836 -0.7956106468687394
Ni 4.317401015974133 1.0543310349163082 6.1846017111698135 -0.583694410778285 -0.8630468261345267 -0.24775484305561848
Ni 7.512352758660606 6.278596404496193 13.303376795962178 0.10774696306969186 0.2634295734783979 -0.761410861058579
Ni 7.574169553287572 2.3926784575456885 11.019694889920297 2.1671442881004612 -0.34051998800449745 0.49039704747501994
Ni 7.283999124022962 2.1520167398049708 8.71716392846757 0.19452400875593598 -0.7247425591032679 0.23919409796980096
Ni 9.20757931545681 4.026779167493918 12.246111536144426 1.014531339301485 -0.17585600003278745 1.044733316806162
Ni 7.923697003085942 8.687056109314012 0.7915442480286276 0.09054139782468278 0.6277692896103124 -2.4755149450659237
Ni 8.216115315791532 4.553760432211007 8.935126629772913 -0.3674445803094833 -0.5814866044936888 -1.598707574812195
Ni 5.026516115232968 1.8703219366293047 8.689643939062256 -1.6398591093498405 -0.1709289950448153 0.537094708641875
Ni 7.3573501402405315 8.032046827468616 2.8878282187165656 -0.8804290261667159 0.18808776621228898 -0.13872335684654818
Ni 3.495173158976121 7.1281489429939935 4.648129158601747 1.8049825534564723 -0.23968877821803233 -0.550049211920014
P 5.01269715965317 8.623221747172396 3.93862067974074 0.3208435926214926 -0.43632751932412595 -0.4997381223702877
Ni 8.397806943754722 1.9149571631520537 4.46816305755862 1.7735963258357068 0.8763216888665617 -0.21539185334388067
P 0.46926777863361957 7.228585112147969 7.01330513075252 -0.7122405699815153 0.778174453670163 0.5740466032758759
Ni 0.7655277609903935 1.128253234631177 6.271800242142048 0.08444222690548038 0.7347755178592378 -0.9341738239883395
P 3.705414749167176 0.3688813577197312 9.756724342396486 0.22544435248387623 0.2499521078172534 -0.8980727073904081
P 4.294682653000945 6.565487134969864 7.963766446685125 -0.24963997589347325 -0.13277562390354553 -0.06297737216348508
P 8.959519850162373 6.745253321788936 1.3414889318645213 0.4756216889380583 0.7012038525513795 1.8701181096135406
Ni 6.941906272326522 4.500833832340379 5.250833693577605 0.6812685470800331 0.42000898466976055 -1.2763706854746277
Ni 5.239807088288632 5.695528605399227 11.72217873302824 0.5122588805451177 0.9899510788589595 0.3049356631419845
Ni 0.42292268667379657 1.3763403378367733 8.838557004390164 0.2972377802770946 -0.472939771230521 0.1679136052572592
Ni 2.9239804490407293 8.34965248987765 2.7142943808639823 1.10571679846807 0.6338262944376698 -0.9817207205293672
Ni 9.131049939455886 1.9418396380732885 0.34474701243146566 -0.12638874654059523 -2.6165589796258484 -0.9766042252384084
Ni 8.120580269549858 6.840318523540897 4.738078582998066 0.3844336586683121 -1.2231928159000676 1.1372480363071318
Ni 8.955374163488434 7.764714525458887 11.526760275855782 -0.6627987704106199 0.8127843304345486 0.9203214914862796
Ni 7.6570280109440425 1.2705147760066764 2.3413907858068246 0.6073724711215153 1.0885690830441896 0.07527650124581228
Ni 3.682641110371668 5.2430959997166235 0.5026506902595915 -1.271882310685971 -0.43318074616502816 -1.3873965764059073
Ni 5.555717625479879 0.5911712346489595 1.9763216172997071 -0.8814271284139272 -0.5102073973327278 0.660281917526037
Ni 1.5048381994547932 5.720817294110259 8.429572116314151 -0.16977765504919148 0.05472644500860252 0.4951564165368763
Ni 4.832940185471151 3.161823099843168 1.881491337792603 1.6339311739011795 0.042174319375204786 -0.589692537343249
Ni 0.5457004219454852 3.392700997033389 10.10326689778962 1.011695926735219 -0.06180057824656454 -0.14117490371083427
Ni 5.62308042761287 8.759384522818678 8.517848525821611 0.6614705385174995 -0.3091119060068612 -0.07136045402085775
Ni 3.833018984991036 4.991830536727674 10.092331497607471 -1.366031223356254 -0.666434053170362 -0.37015066638673666
Ni 1.4959572173355093 8.476123571343967 9.903790273995229 0.49192068320839794 -0.4690301517634696 -0.1859640350010668
Ni 6.241764281557503 2.0700242700315 4.772947492980718 -1.599825233356406 0.11639975364868341 -0.43535538521884376
Ni 6.698821631040813 3.9786155009797928 12.418055272841627 -0.6134461881194209 -0.9124418316278866 0.4472724483714039
Ni 5.207986639906882 3.1019317463603215 6.7615661382190355 1.3277559819251392 -0.3185676521031223 0.1830903129976976
Ni 5.840148581860346 6.412078302759994 4.5586118068832215 0.20997633875526417 0.7445120284207113 -1.0001323902673358
Ni 2.7920554864389193 3.5891881201040174 2.7436753229540445 -0.8791637863010472 0.5278587918659038 0.9957612577828334
Ni 3.087596883105544 8.48358580735706 7.835280561495274 0.26799302447936424 -0.27263283724422077 -0.031697073992964765
Ni 0.6082910780849193 8.668078076984422 2.319413118852713 -0.5029910820899466 -0.005037048203275197 -1.789634610245492
Ni 2.012721667560602 8.419124985895825 5.526304439160131 -1.1308357050228848 1.3606740728093984 1.2297732973310627
Ni 6.013327733186381 3.7176491311738245 10.06413806443357 -1.0382914178355602 0.6086834766234549 -0.3232540018351981
P 6.773130761511916 7.463387592722852 11.112799642507337 0.09485802292216566 -0.8554834119649718 -0.8091665311763031
Ni 4.056664962094495 7.4218662375240845 10.100907541440296 0.11100583632662171 0.2605548230337642 -1.4437104205062876
P 6.693165071890149 4.610464213273447 7.327919449910382 0.08416069110931956 0.7729782541812042 1.4905551487739686
Ni 1.9583486836726214 2.2595374268528565 12.980335677691755 1.0471280422905838 1.3744528717610458 -0.9106022073159865
P 5.733226716220918 5.213062802923195 0.3859376339600238 0.5414702120017513 -0.03993540274235703 1.7212203833371518
P 3.323007397725938 8.287946246895324 0.2316296483737616 0.4134074201928429 0.32883895212214337 1.196600924344152
P 6.507475159445869 0.827376799847045 6.691532592604322 -0.7636816593706267 1.2724831774947636 2.4725990569707093
Ni 7.260737215463634 5.735004755172186 2.352218398135449 -0.9483974237868894 -0.4631549239296152 -0.3558658743329484
