# total energy = -340888.05291080143 ev
CRYSTAL
PRIMVEC
9.09429542167765 0.00000000000000 0.00000000000000

0.00000000000000 9.09429542167765 0.00000000000000

0.00000000000000 0.00000000000000 13.31042061509301

PRIMCOORD
 96 1
Ni 6.671029569896835 1.9245348277961234 11.231639638905664 -0.4198030393065415 0.14882419272597597 0.5940456721056221
Ni 4.476785218483145 0.3004709783714678 5.806631327167902 0.9418657933159584 0.48248499171679493 0.16968740932823034
Ni 2.6263779938500784 1.4608257911526277 4.550433552269844 -0.1808915055741659 1.424785815687643 1.0631046202244983
Ni 3.3715191010964416 4.6792878978638095 4.666021139491306 -0.16393765132864668 0.06205666012142862 -0.5467427732546004
Ni 3.5879906184673476 2.950580536502493 2.6536454202473054 -0.13853026699913562 1.493849503254524 -0.3636043806277867
Ni 5.148453511847243 4.924042674446727 2.492456306766424 -0.9571754270898356 -0.4671339631820213 -0.8372283224095258
Ni 5.191705981561818 4.439071174768607 11.208026300467083 2.089802162574872 3.0080570013401093 0.39553773900127365
Ni 6.195052328534046 8.112066173896622 12.19561950865891 -1.9326434818412717 -0.36628424145279503 0.6405659271543483
Ni 1.6783249639225553 7.112193847830821 0.23193818584096018 0.5283059067056514 -1.6786871379606314 -1.8725526871969624
Ni 2.639637476786128 1.8873118760421796 0.3797732357118997 0.942588787524912 -2.295403255080576 -0.6067991151165485
Ni 7.97261424567894 8.719074025782454 6.810356906265255 0.11657921664934118 1.4842304921075213 0.39195130720159593
Ni 9.157228091883908 2.0881593936297302 1.2100760549322314 -0.8694306181736833 2.112521458549258 0.7031337225842407
Ni 6.79650356582871 0.8731169438885984 4.91174536798162 0.3808906785120602 1.3602246439768058 0.6018962784982924
Ni 0.4801851719214383 7.4687357055179335 2.297711061504038 0.14106280361300222 0.4772743940501329 0.2232514585976155
Ni 7.721502556494995 3.991686398667092 3.7291677345540064 0.8091336210558387 -0.6668510861031225 -0.49534976349460497
Ni 7.392916563379496 3.769667361000583 12.706473373519469 2.6885321275300407 -0.1361144584687914 -0.8310946987079623
Ni 8.489142950973035 7.041394756845125 9.125824579863009 -1.0645099852124569 -0.6741319360352519 -0.31123538010776725
Ni 6.832071355789538 0.8067786048783024 0.3363334235086535 -0.1248856796325075 0.8421599553831883 -1.113752781398669
Ni 2.0791105695409993 6.542181590309767 9.063624145335499 0.6757941542290232 0.7319131087097782 0.10907545207312827
Ni 0.10598128281450195 4.662063302060738 1.3313748597694959 -0.21232658415499564 -0.1395751633238822 0.6870884961959199
Ni 6.6179006951969725 2.256940425049578 7.065890241953664 -0.11125677599516323 0.1521681694975444 -1.0387480457570046
Ni 3.2905707762584617 4.399838383694453 0.2653988275190165 0.2030392453157987 1.0125724158029015 -0.1352809068239025
Ni 6.18122899927287 5.690537187683381 4.423092497458155 -0.7616062648988366 2.0204548823293007 0.6726455812977126
Ni 5.592718944569426 2.918268504354494 9.247614476660868 -0.45957183456404727 0.0770428491176157 -0.3215223638560721
P 0.12316495428752329 5.627559190884931 12.702453694879047 0.6335642990255347 -0.4128412632767277 -1.9200756724785901
P 4.204547480698072 6.146797996257861 12.587172585418177 0.22278686025637118 -0.07155662919206386 -1.4129584840354117
P 2.5950936171011008 8.719865229496746 1.1812025759379496 0.19291346973570647 1.3385492158859011 0.6508896776778597
P 6.377884046604234 7.932353799205764 5.559363796719942 -0.6322455802141113 -0.575678482452344 -0.03622144422587955
P 4.8779709731065175 1.1458539585002747 12.65613371926987 0.8054536011010903 0.43938276121068204 -0.9663187841520001
P 4.159930866648513 6.335431874899516 8.199737911446961 -0.04878436849255469 0.8829497357060406 0.09578541983244149
P 4.628368936986622 1.5637459340794244 3.7298598104466216 1.5135498098969289 -2.9978931734332304 0.3885651643381824
P 0.3763365014172954 5.619337947692757 3.478452556656763 -0.3495970106051012 -0.611554627523663 -0.6386679388006872
Ni 0.5895549892640418 -0.006233230181322478 4.800523042632108 -1.0880918862974551 -0.5379529428771123 0.8632247464732876
Ni 1.8372568732438155 6.972441807859442 4.393450550488499 0.25311430759531894 -0.7152901554411165 0.9207842900553109
Ni 5.9621837962566255 5.504422428913664 9.024917913974647 0.8663290964302239 0.7005464214730387 -0.010795290843291085
Ni 8.806870355182056 2.3382343331190873 10.036562805651364 0.40459213589405807 0.7229535855236453 0.025170328618040524
Ni 2.85884637712257 5.1725352065075025 7.029992329063768 -2.8342632831529895 -0.1483570232815703 -0.25219102445010116
Ni 0.7249181221949963 -0.20796835101616928 8.993132441539952 0.5792520587362153 0.9799574579813575 0.3056982523396219
Ni 1.472566526729061 1.1731550337910979 11.498060665246362 0.580185112073446 -0.33156380725247414 -0.9496824611468999
Ni 4.382531939231283 7.069805336195069 1.2163674886051798 -1.1231712464990915 0.5317429574116583 0.5227723784819319
Ni 5.630687628559827 8.076998570191954 7.78927142819791 -0.039520426692125486 -0.46387868946951727 0.1577276658631929
Ni 5.330739572183437 3.1321663360800622 4.911172427360926 0.24835262454061746 0.5290055038758372 0.019696449987662852
Ni 0.8398327315445334 7.504358061252163 6.8377361924979505 0.9423334769809965 -0.9152553898172818 0.12393668545567689
Ni 5.09619768952177 5.081601345137437 6.577983103666656 2.0145130629235695 -1.2187946868323718 0.5707787311578816
Ni 0.8935354562946463 7.401974481763793 11.080965349958843 0.23970137662352264 0.0012269304285656287 0.7931120488166018
Ni 4.68391689430719 0.5004772736191109 10.264397645332691 0.9299250760143145 -0.18235703437609885 0.32843348915360854
Ni 8.250290372212817 7.096960902756828 4.568615777396074 0.11472570838037016 0.7362788418776416 -0.07291082922711314
Ni 7.56737243523288 6.399046472387627 6.801158935729233 -0.5854088223662305 -1.1605190910199303 0.06304833461073658
Ni 2.2608691607343334 5.927334455645556 2.139903207114805 0.9714784739760687 -1.754447777931714 1.1981831812296075
Ni 2.552059410480123 5.496364883041688 11.194383038258122 0.35672256590628887 -0.3619622170386734 1.8562845461645578
Ni 1.0726175963027405 3.32653871522422 3.630630132660736 0.27460307359671415 0.18276712533032394 -0.09598210922427985
Ni 1.262715656530613 0.7789164115510225 2.701030337867327 0.8088680260992779 0.059797688883922825 -0.9763316883033121
Ni 1.6025240103752505 3.444637237451611 8.04118432482127 -1.916190735601887 0.38273930168502474 0.9179002836392965
Ni 3.827861758331021 2.8877662370242407 6.953949467254393 0.9401246422551357 -0.43363583142457574 -0.10508869951123838
Ni 3.929763340154363 6.897195606341698 5.878067928272813 0.26198127106764557 1.9465935162634604 -0.8003818430051377
Ni 0.5359395697513678 0.047746870583570585 0.24502396773168808 0.6569320272171977 0.041165932715348456 -0.7687295062071793
P 0.6189495713942875 5.4982655908151 7.9335033181653785 -0.9109778454878504 0.2504161919378655 -0.4979180384424134
P 8.782734094748397 1.4610076770639588 8.038136826376915 0.6218830060328645 0.8198126980362397 -1.5383642978374474
P 2.000153895432097 3.2177618459525563 10.49349659209777 -1.1890619356546295 1.2961468396602902 0.21532269066884208
P 4.096534532254 6.544573390043773 3.588542642208238 -0.4905094046831681 -0.3783964513352967 0.03996162799460215
P 7.225044961516304 4.119888683268935 10.23816242148227 0.3479723305174846 -0.3340004417184248 0.3248948798727308
P 6.592654930704192 7.927542916851052 10.075815604175766 0.19538121454990867 -0.12854821608575928 -1.0460024133265726
P 2.4468111278882865 8.672838627122047 5.759685664023745 0.07031967146116921 -0.6753223567989273 0.41065891091342827
P 6.838501022755099 3.9094194009719603 1.583101323333741 0.7243584362909719 0.017049499283119024 -0.19753322789590497
Ni 5.2722177802126025 3.204975266385968 0.006169570112356536 0.05658021038788965 -0.9061380008970459 1.9669862209871993
Ni 1.8019891950366829 1.257013533210378 7.063507536515224 -0.09635954716835662 -0.4033675194583376 0.007693254879199653
Ni 6.984755484056569 0.7563052644838762 8.888885440889995 -0.6206244510354151 -0.8376906067579252 1.4206712792986371
Ni 3.0876224763950355 1.9340019894809155 9.227316008956297 -0.4735848610136877 -0.8031452646828877 -0.0611086943858625
Ni 6.598447996980093 1.9272358335793927 2.5524059031412096 0.13629932078608784 0.9991324882479113 0.5794983704190665
Ni 4.522120281882462 7.1163044694269075 10.326729947145918 -0.4735195549933909 -0.6521693157212316 0.12288818958650449
Ni 8.109419733886751 7.297890269004476 13.449248145059412 1.302560713606434 1.079000465519148 0.11405053669021648
Ni 7.811945325904467 4.228128989102171 7.947345745447244 0.9127704186118989 -0.3807927194816152 0.2640425244720485
Ni 3.672403869916188 8.490679886923784 12.298296833894078 -1.149095422564021 -0.5588274723332762 0.9459150236846678
Ni 0.3961029528312207 4.9377114006832725 10.32466736091142 -0.6752434239318759 -0.8174632239674565 -0.18294710255161398
Ni 9.125761829223599 2.280149067335447 5.873116993766376 -1.3536256506030493 0.6926528776575749 0.1669250160917448
Ni 3.9091920435827965 2.7964776981270782 11.497887873630598 -2.10001586988308 -2.20151685204306 -0.33642473488920127
Ni 1.1332310762538849 3.351129690436207 12.6092680859267 -0.7522397360822722 1.6903663740707726 -0.8273228903703559
Ni 3.148781614080174 8.724594263191358 8.217135298865797 0.5454952740007445 -1.144874699614454 -0.5754555678082606
Ni 6.147216333853923 8.642645565841057 3.1847977528124343 -1.8241722390110455 -1.162449475273424 0.7051461250285791
Ni 3.234549915568432 8.580222321072167 3.3625321182175636 1.3383990634612821 -0.3476874522872141 -0.6211379003367238
Ni 3.603168997767942 4.441262900000148 9.316310057082015 0.13282807440803576 -0.3577664337897709 -0.45587227422527293
Ni 7.514907444109376 6.254347135628039 11.34397874375075 -0.18470599422424963 -1.3459593923070432 -0.7830299819902514
Ni 8.080563534054045 9.208701804790655 2.0443212512806683 0.5778520930648952 -0.7226080292587684 1.573844235911612
Ni 4.607561188730324 0.9212066694150284 1.5211946345530316 -0.6139660651786331 -1.0707058296105236 0.18263137108340805
Ni 6.348564037697634 5.64018207313132 0.22034568728226195 -2.00299837741575 0.7273118624923409 -0.21249242030889856
Ni 8.157765009118602 -0.08781633684984844 11.248330399558977 0.9470463090756334 0.2874663027126275 -0.09651767001277571
Ni 0.46709393345337047 4.974224997383024 5.599227731906415 -0.3985114769176169 -0.1708958278140347 0.6598731121233925
Ni 7.515007481360609 6.100580786188587 2.309011633175049 -0.2651907791438788 -0.42059133953579175 0.9687618463758542
P 8.609078520904871 1.6109998938432872 3.8304063422305457 -0.7320054113132684 0.5251593906568698 -1.4857723826733444
P 1.8897582415495853 3.420810183067215 1.5158308190278724 -1.342688177754939 0.8178290919473077 0.7466342169700367
P 4.771267603224031 1.1319669691701326 8.051100744707052 1.3616012126093584 0.4298365122831436 -0.7108256919118597
P 8.632941952471533 1.7641387368886465 12.47641679743123 -0.9537332341775059 -0.5312675604371366 -1.0564945711071483
P 6.408695519983751 7.675394477972519 1.3451781815804258 0.5547497027194769 1.0267147687415543 -0.715159286290207
P 1.9917871435108587 3.2969731603373225 5.833478597109952 0.43189416614312065 -0.2842465102237492 -0.5610743593859241
P 7.036283762736717 4.271517873250245 5.771491878528257 0.7117335484381097 -0.7032697339414726 1.8482405928141588
P 2.6033239545888405 8.687107576865985 10.328899846068097 -0.6826497436982759 -0.3677523413578892 0.12308487897834286
