# total energy = -381166.65409526764 ev
CRYSTAL
PRIMVEC
9.22731386998393 0.00000000000000 0.00000000000000
0.00000000000000 9.22731386998393 0.00000000000000
0.00000000000000 0.00000000000000 13.50510655991054
PRIMCOORD
 96 1
Ni 0.8014687887642638 8.690643986135411 3.2150664823163737 -0.8360119335039216 -0.9186060514570695 -0.3023136521381051
Ni 1.3625143805222981 8.908768456653466 10.701460205742615 -0.7326031927982674 -0.1634792236349894 -0.45619854721644015
Ni 4.025858548927054 2.3680055361499477 11.09963079099012 2.242463469658751 -0.08813664503793207 -0.7355332219608688
Ni 1.3793173189212737 1.9406794075420677 3.9053664400849337 -0.42055045899552734 -0.055063002412414845 -0.16410503014444638
Ni 2.060929760763071 5.967137731865021 0.05782019362749017 -0.7068057721191893 0.013992457624350094 1.498378244362813
Ni 1.7383705528481987 6.074368345338109 2.6381554472397233 -0.0468293016487129 1.6801526667625644 0.013334512325377032
Ni 5.799606622819554 1.2300193819111573 3.391105174669834 -1.7060313343015394 0.47075407643311185 -0.2643626268156286
Ni 2.4581010279278694 1.2056408188962793 6.37364058145864 1.6520427959002257 -0.6567019134842625 -1.8319325996827547
Ni 8.895905581239864 5.4230030380772245 2.2361075447405714 -1.1270045042022525 -0.11321672793501146 -0.7566707752704324
Ni 3.6975599518391102 3.317643761448658 6.84734595733438 -1.4527609607443301 -0.9922748418961298 -1.6148057659256383
Ni 3.5856326356504384 2.5794402041752758 4.321256235990074 0.675821665032849 -0.9294489077088444 1.326002232458826
Ni 3.2026068405150907 8.367826413434614 1.414645935202524 -0.6350372840266354 -0.631781238983183 0.41584148355563216
Ni 1.2583195532838412 0.9449507498969093 1.4779314667837284 -2.856592028557177 -2.4078381105442404 -1.4695155544948497
Ni 0.053514729016308445 8.034840340944868 8.611355524260224 -0.08168883253005932 -0.46630169708871305 0.29692899078742413
Ni 5.086658223370441 0.6146645894200917 1.2138697373280234 0.5360366996910059 -2.252164756106915 0.6410991739499992
Ni 5.905628458187059 5.220611137559308 9.801520292479534 -3.5717659701354036 0.48079937648425586 1.4074506668433049
Ni 2.3514055986541997 2.2886229556741733 13.052320470152234 -1.626938030412798 0.061592061780184254 0.33962524410436995
Ni 2.388813128730776 5.723601239188383 7.420475639222726 1.6655662843079573 0.20460067626564762 0.6262297130373344
Ni 3.038194563528301 1.8777952641104272 1.9167935830832057 3.3185457330898394 1.8548375293053863 0.684141240642138
Ni 8.218685340758809 1.3007006054894943 2.905785378935343 2.204705791294003 -0.749671975355096 0.5457814377825955
Ni 2.0779541546928404 6.070658965197314 11.228388727519114 -1.0796252435873406 1.954089310419873 -0.3490303394683537
Ni 5.223886833952299 7.742786632396833 8.586343967519827 0.6136328502089302 0.4172792444434233 0.4886931774100357
Ni 1.8849464322923084 2.736885859255845 10.776143315308671 -0.872147245773898 0.1534912591843421 -0.33716341282743867
Ni 7.134411380051284 0.2209526421925674 8.597093788077107 -0.3732172211272024 0.2840894158205946 0.013250694362319116
P 0.5480323111297671 4.827970481461997 11.745620265240985 -0.06054228035943121 0.8265896117487571 0.08635229944399966
Ni 4.517508281916734 0.534551205692698 5.2885047896437785 0.4348347368286834 -0.1397404852571529 0.5268208375196927
P 1.4268195302765319 3.004690187181964 6.237806217989407 -0.530554593530512 1.2956089648789493 -0.8966765983738298
Ni 7.761001349804619 8.035984527853968 2.2480873662251346 -0.4694050186043851 -1.793317715524034 2.0308930469434894
P 3.5084461558550353 3.953304180650753 1.0264436170348725 -1.0379893132141091 0.6829114820000948 -0.5693656528604387
P 4.1100208779424605 6.377384102660434 10.981353237455936 2.9820292098177803 -0.5047499737625823 2.0054923474821975
P 5.344663144058937 7.965109530686187 2.7221701392346005 0.4219380833716733 0.17663658695255385 -0.14852363076642164
Ni 4.889516664395093 4.816713158646649 7.6924276446943365 -0.5109550741320297 3.4144640789557195 1.1102987614117974
Ni 3.5512424371809264 7.145115064039649 3.746384437259483 0.34767845342614956 -0.7789313864408457 0.3786414774665673
Ni 3.0561324615225947 0.20785631574025232 3.530423771823558 0.24873597602196518 0.5992398147120518 0.31732272395242767
Ni 8.940833372049644 6.697507299736575 10.632907723454032 0.437957084507749 0.9111380252147985 -0.1259755702625766
Ni 0.4189228139456356 4.6987696338714136 7.261871033531002 -1.3460259838789206 -1.205124645544447 -0.2820952682087013
Ni 6.606941214955716 3.7298555500798645 7.005571320429619 1.4798614165055484 -2.1086887150667297 -0.9863541055363206
Ni 8.792965668675905 2.094886275484779 5.414440090886532 -0.12612263736340212 -1.4899573672889694 -0.19236865297583
Ni 8.703414588411183 2.4680480721860216 8.103577369509111 -1.267180277224611 1.3954991509083838 -2.01370676497219
Ni 1.8444108428432702 8.236521738301487 5.2029232997685355 0.8372879720028678 0.677131642093524 -0.08937540254103962
Ni 3.365893385220345 4.395532421018295 12.287378002998265 1.5072156401487848 -0.24040251645560531 0.12926709652965476
Ni 1.6311491666888938 8.53652939133053 12.910760558480604 -0.3919831888807959 -0.7527822388493036 1.1618257256464959
Ni 4.109208874329549 7.262624905067079 13.036425499429514 0.3174875316650661 -0.19994903642624917 -1.3791767595992763
Ni 5.019889380836127 3.662597659915048 2.724763014407644 2.663714297155413 -1.0891002729573114 -1.9993934336733115
Ni 3.1538220325439847 4.605970539155052 9.556442838401122 0.6648145152890679 -2.227199858631461 0.18135353281224895
Ni 1.990322355694999 2.502871954403338 8.306235016663981 -0.4119102668220261 0.8513099973135726 0.9329391802502901
Ni 3.5102916186116495 8.942097514037926 10.199906796869563 1.092384343025222 0.03742472050536135 0.49328388210451174
Ni 7.729259390390849 4.679669094340453 8.86184848879792 1.97193790856552 -0.3341624212175858 -0.3956426400102541
Ni 2.03525014650478 5.165976212649734 5.184273053150188 0.5654249230451358 -0.8519270620722813 -1.215621945531345
Ni 3.600811566823593 8.14349196074055 6.927471336569691 -0.8411142877274934 -0.5994249341396645 -0.08508140315137605
Ni 5.779564897282719 7.123218648432417 5.14506711961729 0.306134311435776 -0.012460851471172088 -0.9851045493999357
Ni 3.011896719246544 4.349395852102932 3.0856063472084854 -2.1766422002885677 0.39306613753232955 -0.290588393281377
Ni 1.069417985516777 3.2344872096356068 1.728788910215856 -0.6904448142626625 1.2419940077669707 -0.05224353068574873
Ni 8.819614150881417 3.0622224886194225 10.79370012524372 0.5434399341336125 0.27787043149407625 -1.2460110993461637
Ni 8.718851884370263 3.6743163484195502 13.031765705969063 0.4411010294533694 -1.0363589766995378 1.6014221455298807
Ni 7.503983751690912 5.1539530227903905 11.487376357125509 -0.3989791605826548 -0.8613884645954971 0.9036131775926632
P 5.745119334930509 8.64018903436957 6.643796951668066 1.0598298061279683 0.9292357632567739 1.047728394878744
Ni 0.6436946413130168 6.713830417818831 6.160461951128312 -1.3552210201146273 0.8806506552592189 1.9020771790186404
P 5.9435250358941385 2.8289098596144293 4.8371507359447765 -0.39078171237352705 1.0382037432177604 -0.11536719861911099
Ni 4.5667544555769926 2.3646560212466925 0.03731987059563755 1.8652605244109228 2.3962365217495702 -1.017294760979235
P 5.819851349259614 3.8964823823745918 11.90549454930926 -0.595544882358968 -1.3087984669860298 0.452885166572491
P 0.7201493951254223 7.503383976295012 1.2402727729869079 -0.19612863423889448 0.02746478107917205 0.02112726889691845
P 3.934111367981962 6.18184809628334 5.804603213233087 -2.0563359124966265 1.2304705805084035 2.163301003094971
Ni 7.008883003346363 4.932977312313366 4.86316161076788 -0.46609729438739084 0.9641001792341266 1.9749000765176372
Ni 8.001640465953372 8.3688690998921 6.66318999704595 -2.3374402775469676 -1.8129799698396518 -1.7298420635678917
Ni 4.825239196582208 4.793524919109787 4.681274646938708 -0.9861386470914048 -0.8448441870835708 0.09020869707561238
Ni 8.679192889730619 6.4677840957931965 4.350764262736962 -0.5016875327871747 1.3077916229880702 -0.940555044924335
Ni 3.2248631213598618 6.782038721303304 9.272282174063129 -1.5521670080484946 2.560666796443919 -2.624976257155266
Ni 5.582617111896816 0.3299945773612724 10.744811048626866 0.43593825430550726 -0.34489446292310927 0.5865241669175963
Ni 6.545182803805611 7.4554111719368175 11.250820327325766 -1.3851535460080018 -1.2932000983271406 1.744050750968106
Ni 3.6742333025955025 0.4080244336364484 12.584976404398546 0.5305448233384992 -0.7740547750748347 -0.26035170588402257
Ni 2.1202798430157945 0.17089077399388478 8.538009452461337 -0.20906256869174317 -0.2517670495388051 -0.4707188523198022
Ni 8.470618688978043 6.701078270170624 13.180160288959815 1.6727278350534027 -0.7212725982767965 0.04938266419818592
Ni 9.035939295211774 4.199378184617736 4.970567543202847 2.361211926045269 0.9157228163720036 -0.1973655919697891
Ni 6.724377237472883 2.280207645504011 1.6270273256219951 -1.52182207720805 -0.2339251362613778 -2.3947337119517984
Ni 7.113751424490984 4.369243804050321 0.9035413338326139 -0.8512477766170695 0.9950508619793701 -0.2851543667499992
Ni 7.083301289006845 6.041094651836349 6.9462295427592995 0.5029640855067531 1.0646807064623665 0.6515195979523748
Ni 0.7697812705018138 4.834198918265572 9.55039248875356 0.8406088088459845 -0.38076340890557653 -0.4714012230988075
Ni 6.511623063576575 5.706133934197027 2.752853725757452 -0.20024625595169385 1.4324181354219203 0.03332663917658776
Ni 8.250657983017154 9.035376429071007 10.824896750412911 -1.032184533606874 0.2790425974253065 -0.21527332548814537
Ni 0.15559742412982008 1.2373089597997846 12.210696257266795 1.252409803783656 0.46693547401797003 0.6812137825826978
Ni 7.589954634207801 3.565775456389266 3.2750689356535605 0.5511735553324443 -0.7284032957843068 -0.7785128108461882
Ni 6.763215001185836 1.4104041390564455 6.131561081628351 -0.49687802721367325 -0.9414104509460949 1.6350645161746744
Ni 4.401327174074066 1.291657837982083 7.868791138492961 0.6515309108062843 -0.7516460683623314 0.7351107897114695
Ni 8.139884081051367 8.9736733818036 0.3709167912578216 0.2785358329922171 0.31067462250829075 -1.9648971996686548
Ni 4.422263949047857 5.994561308428313 1.6279325251041148 -1.4537966010976962 -0.28558348386761784 0.4134660413449202
Ni 6.9675446375981975 2.0640485928217496 10.296454949175986 -0.7560701655719559 0.39683048967076817 -0.8335105072383064
Ni 6.329651208460599 6.67442978796511 0.4525130043101551 -0.08512871144954372 0.8925772314934758 -0.23754447818151994
P 0.07615117518894239 1.1941159039812215 9.457572171215498 1.5357757111746648 -2.170571311504139 1.9885855444245302
Ni 6.972767297199416 1.6443257707711216 12.565097079584294 -0.8894628542342101 0.07498545236795473 0.6964169726856974
P 5.600029053005474 2.7989949083297074 8.910088885255824 -0.8100916140937339 0.9327903133772517 -1.0902703820060127
Ni 0.502176252553409 0.30111123975749826 6.7558894367734545 0.4077623060919236 0.864229533588718 0.44371584136839715
P 8.53052241005775 1.7920366098105494 0.6723528324604839 1.5441063425275472 1.366603550919956 0.5430645530720647
P 6.053154750950825 8.770949297989493 13.023217522480424 -0.5929308417748885 0.05978509047843252 -0.673412541370724
P 7.109912861957226 7.0581476316341885 9.29556453220058 2.3602611320962255 -0.3672664028604062 -1.5073105138554364
Ni 7.142143869001499 9.052446959569691 4.3576247705346765 1.0836436207181144 -1.8819770658346557 1.0334767700557363
