# total energy = -340861.27857305383 ev
CRYSTAL
PRIMVEC
9.40876789519365 0.00000000000000 0.00000000000000

0.00000000000000 9.40876789519365 0.00000000000000

0.00000000000000 0.00000000000000 13.77068286745294

PRIMCOORD
 96 1
Ni 7.3917724462392345 1.9388271020902237 4.837379547238689 -1.823427390425221 0.31263894532351316 -3.366835164223847
Ni 9.127821789241358 3.3792153323610705 8.769142632949379 -0.5874304807819496 -0.7593179830852923 1.0029132954465825
Ni 5.153304322727392 5.304324451305858 5.054749363981288 1.8453110778721897 -0.2839163805778401 0.3403474669823751
Ni 5.6562123591517635 3.1198062011519943 11.244808610021853 -0.7847783321399259 -0.05825631253873193 1.4712893585658209
Ni 0.39153645446790136 0.028492570891169935 9.340516389368752 -1.3221887722500067 -0.03515649329647493 -0.6941577443378755
Ni 8.545748382319248 7.008139356546481 11.891714070895917 -2.033995597128213 0.9386130907066158 0.5330400789565272
Ni 1.804347586934033 1.9908575868599525 9.115544288413867 -0.12099482921853356 -0.9471365547965948 -1.7419645578630387
Ni 1.8715920488959232 4.168065224596804 9.989831435622476 0.824893712103573 1.149787306424723 -0.22525563351183783
Ni 2.288927344094131 6.925615056019304 8.658771202987667 -2.0048261746531084 -0.3783977368868774 0.06512758573726848
Ni 3.915486858657677 5.733025537752137 9.511066296832665 -0.37110763098336735 -2.4858860038876025 0.4523406069229307
Ni 8.362409137070976 1.9541539844934583 13.311430297895953 -0.5942763000591894 -0.5267131082972349 0.8663352670778113
Ni 3.569705240977333 1.9619350352899443 7.217641561830772 0.8069849501439521 -0.6326968088189169 -0.6175704947004396
Ni 7.511047392970853 2.647448433090608 2.042977454921781 -0.23287972571599896 0.9609379794560612 0.6940381880408757
Ni 9.427961475345219 -0.034634614373571196 11.664622174603126 -0.7373934150980591 1.6384493734865073 -0.18285994215444637
Ni 4.582709612264425 6.689210361566464 11.35165551564455 2.4213713691439844 -0.33132572309973907 1.65376260680481
Ni 3.0660633206809833 5.004815152630491 5.263430183855016 -1.6092372706989255 0.8432318482911284 1.5000214363931907
Ni 6.753396974061778 0.8014510546683004 11.873647355370629 -0.3433754551754215 -0.2512877959095415 0.19307056413886106
Ni 0.37159080805499933 7.578414168911407 2.123810999913132 -0.4182400656947958 1.1746251914040093 -0.800682662075008
Ni 3.0172129993564925 8.398839885177376 3.4211746723030383 -0.2237944755852791 1.1373979316214344 -0.7382776174752254
Ni -0.0866284049497011 5.818306607183027 9.739384155542362 -0.12957434335742846 0.4831136264397292 -1.079869755497979
Ni 1.867583913902812 3.7256179287023197 13.419061894735613 -0.6800331320110353 0.18029912340580562 0.4582173774186818
Ni 9.204700829214858 1.1367108475533485 2.562338603229846 1.6620269036961313 -0.27322239119910363 -0.4770157410721075
Ni 4.916767905528299 8.979690152312857 2.1928572408684044 0.45122243415808744 1.250840659524323 -0.5668171754069723
Ni 7.099244453115249 6.6790959364077915 5.37462864448784 0.6915760996536283 0.3675834198801928 -0.18262597176676934
P 5.200169394090506 3.2101021437080677 6.201420332904841 0.2126780539571434 0.9179771596238191 -0.3086750755797587
P 5.7178397868627435 8.689025095171585 10.65328880043992 0.29127616337702095 -1.369820772305673 -0.05800074488450011
P 2.0959441120666615 5.747035192692847 1.2019653551700669 -0.3612960442095842 -0.0645925391694049 -0.6660571294469174
P 0.22702415316614585 0.3772407729924718 6.469796960503435 0.27899503201682274 -0.6497529929702552 0.7846040113455907
P 8.946938232333936 3.641917532226459 4.139797523251022 -1.6843430506948285 1.4459246545487874 0.10275310939952627
P 5.650934040534074 0.2766092992393733 4.201215135444758 -0.22392148808144663 0.5946347118398727 -1.2394768977720716
P 2.307170944450099 0.1991516200591215 12.4428439229698 -1.7876826287254437 -1.129167316181526 -2.705687813373721
P 3.630420018232136 4.227368686713187 11.59063162627959 0.020525373646861425 0.10206713907609519 -0.24759826287309614
Ni 7.768838216154543 3.8182754719233483 12.237275523414665 0.7900431800832911 0.3467364012278545 -1.2937999366946684
Ni 2.00211047289695 2.744528097078684 1.8673317589314145 -0.27958175775822813 -0.29191405407133597 -0.6876353698383254
Ni 5.472901340206261 3.0889078083881985 3.9387594452902133 -0.2837189198550533 -0.48757346198329576 1.1559463840475834
Ni 7.894210044284132 8.111561984368311 9.738612636600026 -1.2569922809480156 -0.45279466374121374 1.111163680515254
Ni 5.341489083284236 6.943275312784726 3.094520138255313 0.1496034940941617 -0.009713113522705853 0.8881127679642188
Ni 7.498336147957489 6.443011140052993 1.577748710062931 -0.7407975556836017 1.1086229163712713 -0.7072935103888851
Ni 6.831358022308067 4.872631376766129 3.2639955644605103 0.7972893201227431 0.1965757490786421 0.333654885453548
Ni 6.968001554009834 5.3754359167470165 10.781081504470281 -0.8598506877947321 0.9758328942900225 0.12953371992748014
Ni 5.557834285236341 7.112256778691476 8.936029707190714 1.6240694506157511 0.555621820911785 0.7248160926536807
Ni 3.743899164128645 9.445838133765198 5.546899415543868 1.4148400173288407 0.9518501582221801 -1.690074810972283
Ni 7.68692548552068 9.074041273699988 3.4860349525577585 -0.24131397252628123 -1.756639386266394 1.9170371427625823
Ni 6.139559567757642 0.6866255141297385 6.239964290211834 -1.1637627947682085 -0.5573997387478142 1.8847919095756314
Ni 3.6029087818005467 1.6115054864204055 3.137195485410839 -0.4323793333096553 -1.6921784875788468 1.7635114307958788
Ni 4.079434633904065 6.516183125596244 7.118464683547003 -0.5322175830552318 0.07372329782607949 -1.0471396122548093
Ni 9.430501842594374 5.7952363090536645 -0.03945284425613506 0.12947561299603508 0.1518411251754288 1.6969062320718198
Ni 7.100486410437058 0.3779454896849225 1.4840524389000256 -0.49578479414949445 0.3117621991455147 -2.365082464744269
Ni 3.981733991255084 2.975362801118562 9.461725778716765 1.0778522108473179 0.6482568680407029 0.8086551387575236
Ni 7.823935959158436 1.4524502703205382 9.767999040412194 0.16045174966257528 -0.2920868322037744 -0.21297964435796224
Ni 8.224994086426873 2.1440323232164054 6.824144320197226 -0.14584402705172947 -0.5752920456472028 2.6543824782315255
Ni 4.361358945954725 9.224873226926665 12.534998097124793 2.185056906714824 -1.8950030457806781 -1.0556093402887177
Ni 0.5604567633853202 4.754052678836131 11.795801094088933 -0.35158061669403323 -1.2169630329402719 -0.60794197047174
Ni 7.336298352531762 4.163003307633673 5.936513658793242 -0.26411374402961607 0.3318929084571187 -0.41679510571815315
Ni 2.009515172989857 6.3535619865799715 3.267852218295431 -0.3326850653411109 -1.3954472146245256 0.9287711649155296
Ni 4.314682049943401 8.995854415031554 7.974492235494742 0.5620737471847158 0.8286385238579858 0.20533266933566574
P 7.28116297445751 5.71264614715336 8.722418693100106 0.378075063440136 0.20442609836099632 -0.9438046622098841
P 2.3618923367504148 1.7179186478572286 4.996925901006726 0.5080435569121896 0.7501689695961725 0.6132081039666858
P 1.1203866357856307 4.75688471788056 8.067719950031691 0.7761944471256568 1.5477989608877858 -2.1564886081588277
P 8.56513985232113 6.659836189152162 3.7323094442119453 -0.07726807775454435 1.00144905219623 -0.009623639132693105
P 5.235010060474286 5.576247243408919 1.5256956442509875 0.9519704858501282 -0.367411927299335 -0.3810053497130535
P 2.345502263609571 9.188527157728572 8.909893091703946 0.8635420206033902 1.0950734598216108 -0.46028145903656215
P 8.958821505799428 3.777159157557396 0.7473873352224886 -0.41196091755430336 -2.45494123467963 -2.525703907215489
P 5.440751581353067 1.3123819472162066 -0.16249694328409264 1.105399010117335 0.6572120203514618 1.3656090482171708
Ni 8.643881828277342 7.016456707095566 7.56211536081618 0.2366312223386312 -1.0723850170851594 -0.09687093958713638
Ni 3.3115851109280126 8.261180206575947 10.476446309212175 -0.8987105980847231 -0.31330023305659593 0.6097887938724917
Ni 4.85546037591536 2.7257481969701165 1.744442904568683 1.2046075966987124 -0.21628016948610493 -2.0956295678899264
Ni 0.7560189386090617 7.999522379912989 5.19193295894269 -2.151194192529108 -0.3133693957316345 -1.5112957237554294
Ni 4.397366299519599 0.9471618156960324 10.40209822772024 0.49695567452914413 0.4258518166037828 -0.6137709184486914
Ni -0.07825366091832034 5.008221126497877 2.2900921495217066 1.1540995606468318 0.541153709202597 2.4095975164375085
Ni 2.9903133328182188 8.503540650912917 0.533038673752867 0.6985463603238744 -0.3563577263677024 1.9300235277199211
Ni 6.619670160312745 4.195651731169108 0.3485976618198704 -0.4808906506464815 -0.30205397071881523 1.4756396651147166
Ni 5.112235052199387 7.155273664110499 13.677757841361407 0.14286386137748297 -0.41508480789526575 1.240866579030747
Ni 3.864811236420831 4.762275941709321 2.966591007094906 -0.43880323455812814 -0.6607704271266814 -0.6217045714734712
Ni 4.135962509581557 4.235855395078882 0.12680854694050162 -0.3728099583864547 0.765032002750934 -0.6575583479472868
Ni 2.255309817496981 8.524221122074556 6.831318505484191 -1.7796502453392704 0.4711680240420789 1.876793464751187
Ni 3.278306299964083 1.6769999176106554 13.333422351259564 1.2757294523462028 3.2475544894829422 2.403588334128951
Ni 1.2251532628942978 2.690126602876411 6.839071329977909 0.38347617985104926 0.3844118042914412 -0.1751983118441305
Ni 1.1204901322291148 7.969583681443318 13.182151008586459 -1.3416340254588122 -0.8278553658350583 0.5557107810811656
Ni 0.35347893044528367 5.527114659056746 5.869353875739657 -0.10058309833140097 -0.6266176925043724 -0.23450054914887353
Ni 2.7467015223918505 6.21470739449468 12.84384653850946 0.1973149412375118 -0.5760024414506661 0.1729406261582054
Ni 3.342662270276008 4.247738668544374 7.780504147088717 -1.1073867299713251 0.8114776958079831 -1.9831718296081269
Ni 2.1242456849757656 2.2542184004566033 11.26371552849288 0.3574255055105844 -0.6447537399834509 2.0473331947773836
Ni 1.718840707080996 3.779087954913236 3.973943531691009 -0.6876011741662803 -1.2096996665096393 0.0653759543026487
Ni 7.966168298808343 9.195677821096563 7.663480718441257 -0.7588168750791576 0.7382804456887028 -0.11044816405093882
Ni 0.8952451770141362 1.0051386415823018 0.14305372506046796 0.42903278543492557 -0.3259202358134516 0.6004945130547594
Ni 0.17978931723676617 1.7862639356270857 4.855501774492754 2.277074889085033 -1.3332177763706587 -1.0659212637376867
Ni 6.6889845511443164 3.5485825577389893 9.249685087936838 0.12951392243313822 0.7250027547431901 -1.502462955955148
P 1.8628889388756702 0.38211921898760814 1.9561392344548352 0.17756141275966839 0.353725688061494 1.3483638879834776
P 1.083184368736895 6.7615920106322 11.344508615783594 2.354683638008448 0.45452604461002366 -0.7349431537853537
P 5.7647142669934475 1.7032880142556142 8.591777014243657 -0.433864145385298 -0.6538348763491126 0.17732718526167524
P 6.810141251393828 5.950894960053736 12.907150608604885 0.31654445102550643 0.6179193933994261 -0.3841053287946159
P 5.8225593701334635 7.7859998082377215 6.824654275400575 1.0151085519611935 0.49087630110428365 -0.27842964643165596
P 8.438940052643666 8.715322600584132 0.05008945601602265 0.4533289389781289 0.15721215967935503 -0.3569369959099401
P 2.7535040613590316 7.225651245679681 5.234456824940025 0.9305807073204425 -1.5344672767758865 -0.18283114579903997
P 9.341551353803592 2.5003423518293584 11.158218781019269 -0.7153276935472713 -0.41582091473034194 -0.14667089382839898
