# total energy = -340888.9365980434 ev
CRYSTAL
PRIMVEC
9.08968620003654 0.00000000000000 0.00000000000000

0.00000000000000 9.08968620003654 0.00000000000000

0.00000000000000 0.00000000000000 13.30367455331824

PRIMCOORD
 96 1
Ni 6.41544577285813 2.2228645084272602 11.004732744035916 0.1119589442685104 0.18280234944363355 0.4682212827089291
Ni 4.532217378230142 0.4236775317295637 5.992866275185756 1.3912123506075718 0.154962701523546 -0.6996087401501178
Ni 2.856542871531837 1.653804722413518 4.706587549830452 -0.5029412026886176 0.7207619771889652 1.1111652231771507
Ni 3.6450822133811807 4.779293220469987 4.994917840513744 0.29197961720194876 -0.766681365428899 -0.8200788072134327
Ni 3.6063056133151377 3.0068226485810374 2.825314346640394 -0.7515720205912862 -0.7318336616220945 -0.9720646854968421
Ni 5.093405496251106 4.698713154931903 2.8902765138583955 1.34354152689417 0.9122515699939516 -1.371478105403438
Ni 5.381303117885372 4.752696799515172 11.496077533508483 -0.4049662314040251 -0.16887519783958013 -1.8675493204450997
Ni 5.629124314369338 7.747230192754135 11.971457198659436 -0.10154237692087674 1.179471463752717 1.0201312019867657
Ni 2.189823500166579 6.591967473111893 0.43174281003209536 -1.5368167508446695 0.08045907388801626 -0.29988935896732866
Ni 2.9275696771849216 1.7574089623461855 13.255089007479524 0.42086259091930744 0.20627420731332863 1.2736334890491225
Ni 8.227938231781955 9.196217022695045 6.644014105629041 -1.4423420794038515 -1.5121763265881698 0.1158107139144328
Ni 8.378381623177427 2.016910405216664 1.2400158599788085 0.9239012384177379 1.405327449852715 0.9474497151616393
Ni 6.990741083401947 0.8729825238965868 4.6001309664611405 -1.0757421064828507 0.3610780146615072 0.44252644904598626
Ni 1.2712198427183115 7.727569202143997 2.7192713439797096 -0.8443999004573006 0.11697542364649531 -0.7588305019259125
Ni 7.600804442528188 3.9524681215934114 3.4508528960180267 0.740612436255989 -0.6380552449173527 0.2812740578589865
Ni 7.8491982892241 3.7400421620192374 12.506465203339983 -0.3291174025945106 0.5992824950245292 0.06120228254093331
Ni 8.291329701275764 7.346565927796069 8.985554462186228 -0.23354975519983004 0.5836558442308658 0.21053863901663744
Ni 6.973643384216709 0.6463684735950133 -0.11319749443564471 -0.7255288024499892 -0.2959601991162516 -0.23619542035279323
Ni 1.5492278860891335 6.617327696783777 9.334775649771164 0.5065392044525211 -0.04440372292635579 -1.0954169592039587
Ni 0.1036378717705117 5.217816027217803 1.3755603472091946 -0.09068846492550833 -1.2666709416883606 -0.04087256984464573
Ni 6.403592822439442 1.844288180215674 7.013125343908895 1.273807809843458 0.43262153122744845 -1.7982560333659159
Ni 3.3306154398498102 4.522927719236354 0.5833342287572287 0.7667775246871311 -1.0061551994226479 -0.1761691603978321
Ni 6.687718224423588 5.78497606887763 4.725438649426553 -1.0518089927060208 0.544990566450184 0.6072290035651156
Ni 5.503786635440442 2.9960968192144337 8.894450358308605 -0.48943751177522804 0.2325791637564446 0.7920635529474294
P 0.35179993147587363 5.65851126889665 12.48334286033764 -0.15109653369992043 0.037001774035329824 -0.25206144085077237
P 4.1134737280092155 6.243932489537415 12.523213858586512 -0.8270454683392531 -0.44073798968699585 0.25173851029371486
P 2.7453123851257963 8.520735194118426 1.3989608346001983 0.4598775387299241 0.8059256556415024 -0.4846233782160363
P 6.575924177491507 8.072059208215952 5.736198087411523 -0.5512486315447539 -0.7727645955085014 -0.6604665227330173
P 4.963768395889665 1.172896710295811 12.13285729744347 -0.46582372901103003 -1.0581015105829519 2.2637989979117337
P 4.326835925231491 6.145863868320223 8.176517878623587 -0.638413656698036 1.261515622739666 -0.18358807856972253
P 4.8978045452850525 1.2404330765617977 3.662115375796501 -0.20890650272985312 -0.693350932165864 -0.7983678978989025
P 0.28906382833573707 5.912231671532249 3.494967868615431 0.4506843022664302 0.046868125306448315 -2.685909345195213
Ni 0.5916449285791658 9.435457555685728 4.629771523225172 2.5890762008245476 0.30157960218555807 0.9395500006985884
Ni 2.1657267428353366 6.772006881810467 4.790320827408601 -0.24824926619353377 0.10432508187233645 -0.21771715904294764
Ni 6.285054228566665 5.754116585233884 9.134382616396575 -0.9486457923522693 1.4889356108926743 -0.8299451584845513
Ni 8.695693468396719 2.3845972897153764 10.21577164076063 0.24418615186775364 -0.2953449341297559 -0.35611372867769636
Ni 2.658842203121983 5.426587933058609 6.925559854753662 -1.3974326204856709 0.2632673368689208 1.5682400023509573
Ni 0.7016128576131544 0.15683616749168458 9.123992196439826 -1.2796488420052672 -0.34166258624937285 -0.4595677207989891
Ni 1.4622032332451822 1.075882492643472 11.317196150794064 1.4485842036588215 0.7881701314302941 -0.14254992968149
Ni 4.3686212113317255 6.980815146394888 1.369121213714871 0.5894215430700495 -0.027980544373326 0.755892245233195
Ni 5.602100678177039 8.195588039649971 7.878728860788695 0.8409975596439709 -1.4975212956791566 0.3171232063471119
Ni 5.225133224370443 3.0855938666242464 4.608857973897476 0.9825918102804111 -0.4854672142735703 1.3352692595830489
Ni 0.9041801438559569 7.5032993818370395 6.854971171961145 -0.08320449784363734 0.16942644235735982 -0.15450607360210167
Ni 5.289951774551163 4.5913003366055 7.056002301286188 0.34006695962747885 0.28504509486564455 -0.9080365034713394
Ni 1.0314339285733947 7.694364579537044 11.499389815051863 0.43195098752298516 -1.3909639820421915 0.4668665684532476
Ni 4.464526487303789 0.10437595426590848 10.241886308362538 1.7218958121376216 0.7488235113118717 -0.23701765914377243
Ni 8.550458467024184 7.656269705913795 4.364070914568233 -2.2357472339808395 -1.9764486519516802 1.3826243518282446
Ni 7.336476376442738 6.379877831916163 6.9356575868243056 0.09430035064648276 -0.2712323573522683 -0.12323760250612326
Ni 2.409048544796871 5.356779145316646 2.7017500654313493 0.03303224786462053 -0.058537077003944345 0.023330447195824337
Ni 2.3095619325786707 5.226996609980743 11.57081747585331 0.15731320403359358 0.00024065525589635976 -0.301605570327487
Ni 1.0079734492554253 3.3230619108636685 3.5554470027456286 0.15745332915588367 0.6093005413821635 -0.14791967863383557
Ni 1.771534334240848 1.1736966026553541 2.5466691162877084 -0.44468643281178255 -0.07783886265634982 -0.22618534441495886
Ni 1.2487410494779636 3.1956699629204914 7.912333429575417 -0.038009132253921635 1.337906697205896 0.5583613313301352
Ni 3.9819732420374754 2.638317692350974 6.843090952484746 -1.487642603112864 0.2648683628074535 0.24814925028055973
Ni 4.345506140078105 7.091336637300423 5.995913137900744 0.7515452811184089 -0.8130941483654834 -0.6433306343836792
Ni 0.9731145038139637 9.292113208981204 0.39964076632528706 -0.7961338663620612 -0.8653957859826773 0.1346270752899875
P 0.164903263731397 5.7295289848638316 7.7591022315132205 0.2939609092980357 -1.0951601059981462 0.9440193493238516
P 8.721844494742243 1.7233317298924593 7.929668369562748 -2.2732863685768785 1.1480484693567454 1.5827613358955839
P 2.052923740767921 3.4483086929335247 10.216477000386773 -0.05117189488812478 -1.453280066472594 -0.286855408601506
P 4.258226976028844 6.438679010028501 3.704341511663075 -0.347801095046943 1.096719480065466 0.14249233697067717
P 7.140539107098241 4.207942833608462 10.177204103470377 0.8326124209040692 -1.6840165205933448 1.524585241775484
P 6.343391832697903 7.826992186560869 10.008394092737483 1.5893251051560306 0.23060301386668025 -0.32006917634931326
P 2.575707935844902 8.67503261233715 5.815062929219542 -0.7864354081273746 -0.015549260588508706 -1.6143388535915486
P 6.931430882878992 4.156413404219245 1.386229820523194 0.514774704988436 1.3661980879514213 -1.0489951774063095
Ni 5.515294177794781 3.260079477235536 -0.09083414020627628 -0.5818499013703785 -0.8887532297616951 0.3436749886937113
Ni 1.2236898751268115 0.9314019352009606 6.909489290075564 3.6670942478257684 0.35100597513748577 -0.5922713538140187
Ni 6.987723307681852 0.7797396169257766 9.113469067068879 0.1802962951923282 -0.5106663392470173 0.11250118992522562
Ni 2.744094367214674 1.5212043844474057 9.124138540382878 0.7336897409942268 1.130773998547014 -0.40614688197568766
Ni 6.047677081186281 2.3882422537628405 2.049510563711006 -0.34990014366781674 -1.4619511118840305 1.3491354760421796
Ni 3.7228172072313446 6.889009318765484 10.375934633293141 0.9041114573853204 -0.5068271680065852 -0.058275081591809316
Ni 8.35101257892078 7.387905819287012 13.545934414252427 1.1817234930116873 -0.038894620182668496 -0.7723599038709149
Ni 7.550093084870323 3.8477549399804682 7.98461279394606 1.725681504432299 0.197123394051996 -0.4680505614590198
Ni 3.1366051839169407 8.518499131386067 12.521710424538007 1.0860990242371424 0.02175821761269801 -0.8133707990656378
Ni 0.36378922718311946 4.652701164886354 10.066410830956315 -1.5165927104883108 1.02910126669586 0.21809871075208245
Ni 8.981245951067779 2.52905966778608 5.665834828829423 -1.0821773205852332 0.5478789437415726 0.20327372992410797
Ni 3.8129868913980456 2.78218015115202 11.323049908516179 -0.06204354749530605 0.7330580209474988 -0.8014506505892842
Ni 1.0892170618644954 3.3269341170587303 12.753846459026201 0.48837076107361055 0.471708212816265 -0.219407402261177
Ni 3.130106058495651 8.3282247363597 7.833549485971943 0.12413414617846365 -0.5036120035033972 1.471879426741336
Ni 5.77148697499624 8.23908218670014 3.334259494928684 0.3832913175337528 -0.7450876984185232 -0.019027963165728523
Ni 3.426884303258029 8.676868728889739 3.491256549860868 -0.0931613519460331 -0.74977199126807 0.5325330574131215
Ni 3.831511671270196 4.540888938582463 9.566153604454971 -0.3595798328494259 0.13999193914632665 -0.5663422926530827
Ni 7.581261617834801 6.24422335948634 11.238424932750856 0.6697322643056595 -0.2631580649845662 0.1177027887308231
Ni 8.108008915965883 8.818931429881813 2.331708043314936 -0.17746833882522986 0.8707200264090682 -0.4937227694141433
Ni 4.784337996146653 0.483048633148076 1.0812881288505223 -0.10969328816278527 -0.5351406702392978 0.29116277772760824
Ni 6.216463458735825 5.874536744088769 0.031497579594198855 0.6947501265062357 -0.7041493083329485 1.7834626771068252
Ni 8.34241373605569 8.961648588258967 11.04735791711367 -1.9116571093975916 0.3425442175233778 0.22623239560281036
Ni 0.2414384190422461 5.063964003608369 5.286547687180152 -1.0235291719247213 -0.26716898591617216 2.8825198041665328
Ni 7.326886757814122 6.4221539610552085 2.5263282171719577 -0.10211213338141768 -0.8835125501880461 -0.934252756855391
P 8.609477797598213 1.6489962785703542 3.5113847503264672 0.032422639305079645 1.3102480549483626 -2.158393538491025
P 1.8429792654455124 3.0670145486366724 1.5105521815366236 0.1558096229048736 0.8832567254234981 -0.7672585780886078
P 4.820051372063081 1.0338972334533518 8.22978616492622 -1.063054483712853 1.2415201534543459 -0.28141623986380565
P 8.850690792430044 1.523367729692534 12.461338548701475 -1.2166208191095047 0.7944202261050641 -0.6480856325701613
P 6.457912785401156 7.836300024926464 1.019061048121004 -0.6242782457379185 1.2019503615815235 0.8756976821293176
P 1.8350712387091184 3.6598075045455007 5.809261891675673 1.537975547039461 -1.309154564773868 -0.34387013542365297
P 6.960208828450743 3.77241053352303 5.729692599210102 0.41079363671907965 0.5490251415308738 0.1744642618915834
P 2.473203547906607 8.60902331330302 9.993786967489914 -1.156017603605151 -0.7712386457822783 1.2101064150297547
