# total energy = -340858.22535714286 ev
CRYSTAL
PRIMVEC
9.44224385033687 0.00000000000000 0.00000000000000

0.00000000000000 9.44224385033687 0.00000000000000

0.00000000000000 0.00000000000000 13.81967831160557

PRIMCOORD
 96 1
Ni 1.8461475212356688 6.17515195227065 11.531402643630834 1.6194214103207787 0.4469626304404689 1.4123398766148063
Ni 5.5569493616899335 7.281348590480775 3.057880119167822 -1.2072388636739724 -0.5874399938636463 -0.8147208853356293
Ni 8.77959663636902 5.889372999336327 5.728560255557333 -1.4342029952364848 0.019681794699643523 0.048035149031355986
Ni 2.0160418151677137 7.686250892064387 4.632577292540134 -0.5197860421600984 -1.2180714355131022 -0.4751378073231043
Ni 2.3372858360734003 9.048322896876217 7.962249568799365 -0.3680025096954823 0.2804317644633493 0.04264277437119107
Ni 5.198427361990064 0.8698402781340862 12.199749214501415 0.008128285534089228 -0.349202860490476 -0.2549675587539738
Ni 3.817008199490981 3.0518276408478955 12.696981553532096 0.08986288370041944 -1.0228773972733354 0.7776486630736801
Ni 3.4701851399446055 5.102343088380745 4.886431074729519 1.0270130167082636 0.17334300380294662 -1.1354220388419867
Ni 8.083599398552927 6.306691851607465 3.2301425278621716 0.006067803460634711 -0.04010895220574383 -0.044148155272123964
Ni 1.2270290329996747 2.369011775472704 7.742820319306997 0.7036823959988591 -0.644732142716896 -0.9083578913665001
Ni 4.363015393450544 5.537063996102155 12.476419234775467 -1.2302967739347006 -1.6236544745655197 0.8826977675962345
Ni 1.5982508507031337 5.291376810634929 6.080202636374365 -0.12264419189649846 0.8728671546590581 0.8720346314554337
Ni 7.303547305816418 3.8235422322482187 6.700650592547092 0.6181317665205484 -0.18794815531063117 -0.7244304271794878
Ni 8.288222265434568 9.17587816930038 9.938891732975568 0.21449968054691446 0.6209406967242532 1.065107766697456
Ni 1.4719797234451315 8.704049243174428 10.582018070472476 -0.508030444286067 0.8598650859724354 0.3859601226151676
Ni 6.531332275491047 7.5672786193169985 5.095204752015902 0.43663142371778996 1.0779756237990594 0.3245380107539443
Ni 3.5146014551036306 9.33449842405303 2.9013031659883897 0.5755530126180733 -0.27629074571178225 0.9564069243549269
Ni 9.243503519889016 3.770051920731238 4.514100737595859 -0.896546500553869 0.04203830801797276 0.49198521789774624
Ni 0.17528203828360506 4.404929513984326 2.379319873104317 0.9601095700174948 0.1814707751164036 -1.4519536343516866
Ni 8.073175161321728 0.9157645196389651 3.720519797844075 2.0352742067303207 0.4640254994600267 -0.5135066369092898
Ni 1.5546560107606977 2.55811159343397 0.2029194860877008 -0.41814262088498305 -0.7091141085373917 0.10042034750129157
Ni 6.415598692390669 4.147637810802295 1.7656297308685196 1.8229609923117638 -0.9168499879979112 0.7056086664872945
Ni 5.649049008386602 4.235337371856085 8.205157901895992 -1.1171754339269726 0.39988547444700806 1.3329933190646786
Ni 6.133615521491621 8.207887654598473 11.291920900834208 -0.21967968208595715 0.13916764347281838 0.34104166483592235
P 4.275079776300034 6.86205630924105 10.70306480419785 -2.1105563644030876 1.423408218613826 0.16395950570551762
P 1.498021432035393 8.13536177944191 13.62899428642056 0.7633769836460144 -2.317505229185938 -4.60871141546603
P 6.647906218295749 5.4202162282252555 4.746479080329955 0.9828957146740751 -1.5424531231948402 -0.7819056385778211
P 8.765442712809628 5.212609612281063 0.4645763386102969 0.49898067537897284 -0.29903061051145924 -0.7254290436473313
P 4.72686281869244 3.907427126778997 10.954776141253395 -0.5339911300158868 -0.42768218494430216 -0.5449751398312161
P 9.51013360225733 6.873377559639788 10.90086564988425 -2.3915216327724043 0.805042995926233 -0.7134533593426938
P 3.6175030287862526 1.340222652499333 7.769147183662097 0.06973294571976377 0.8328787871915785 -0.27667178320028485
P 2.145731034706236 5.957073887875913 3.177144157250758 -0.7511326190610225 -0.040903165972265045 -0.5741502187332758
Ni 8.849016013292735 0.24484682576289957 1.2170079795816744 2.7519525007682155 1.1758266679112783 -0.46079593677913544
Ni 0.420370585489547 7.526242627463017 8.72488827539296 -0.09715581781740687 -2.6790900082805345 1.977830105680239
Ni 1.5237137776025078 4.788822822959769 8.446531870363932 -0.786608186259813 0.8327116654860949 0.29636386231257345
Ni 3.594124032967004 7.2163670681754155 6.781910543282332 -1.9864700407434241 1.4675473750248853 -2.165816313317657
Ni 0.8182421922884211 7.611175611063238 1.6303903603838927 -0.4849941312918938 -2.5758866987174667 1.955391831281381
Ni 3.631241493615416 2.782478192245355 5.756545177935803 -1.3586328740096536 -0.25124177316295443 0.7712712987924265
Ni 7.153991605177856 2.267564307345883 11.855556764096896 0.030344416619812256 0.3389230758310227 -0.07824175452172331
Ni 3.038145829481946 7.1091598312886015 1.2643277847303678 1.4522390268025893 -1.141101605725267 0.2657764764440197
Ni 5.9379439017976425 0.5133455281928574 3.9987931111270565 -3.018776701750459 -0.7857152421318985 0.6446082155445221
Ni 1.1803182525805214 0.361996745443602 3.3351582199470275 -1.4697410402420945 0.15788218916318617 -1.232898987444238
Ni 5.727429074741846 2.328136301764494 0.30683798943499724 1.1174063189908563 1.3941873740754955 -0.5052767928003298
Ni 3.7874256494499043 7.665836760819954 12.713814241677076 0.1735155248250689 2.0009646348151735 0.4461085099702897
Ni 9.37163476918918 1.2420988542143439 5.672024820392652 -0.7317339028194366 1.634954215849055 0.12771697843371552
Ni 0.06296182634181445 3.8718676363689433 12.130042793364087 0.8727501694652195 -0.40216270051695896 1.336609318550711
Ni 7.486490780775201 7.144454938870327 9.348321869077013 -0.4425367334586313 -0.818307831355939 0.341930752309095
Ni 5.5929526375618215 5.957479904362273 6.518437947263758 0.09570854384791903 -1.1577906363451738 0.3553115444913752
Ni 5.738429288849045 2.0725536447227233 5.725409378778301 0.1772935038102624 0.23320908403095963 1.3767483526634419
Ni 6.934648280104693 3.213979294807491 4.1865332459712095 0.40872878377025096 0.7745443131167434 -0.5461056538912337
Ni 2.2336666518567463 3.0864806758465395 3.6338843776743044 -1.156251316882512 -1.9229319109804626 1.1527101364984729
Ni 2.416166341353693 4.086508723995423 11.058105448583277 -0.42734382776827684 -1.1378352762691695 0.27352835247529667
Ni 7.133728549835324 0.2718676950423601 6.0984856531776 0.7687089373818891 -0.6030360485296904 0.8321966735228894
Ni 5.0033978148791665 7.018325445270357 8.563238948807186 1.110913512177661 -1.9174634316667234 1.8382505714809825
Ni 8.178002952753593 3.093977817478399 14.149553688929212 0.8631108466032427 0.025118906554814805 0.8622610970084377
Ni 6.008619097155912 5.8798929864920115 10.820047596162071 -0.5633086480330814 -0.9555394341483092 -0.4164834880150053
P 6.285135208854903 0.6072892451171109 10.121794606285714 -0.10921814829857963 0.36487219159661677 1.21160099729741
P 6.557468406519997 1.74859025758281 2.269495246217061 -1.0514940325687632 1.3665765543367627 0.5663793165386053
P 8.17143115102088 1.1192552614807307 13.416171774963221 -1.7180234736664088 0.7908937010090443 -3.8917922090619235
P 3.19167671478929 2.0423762333179094 1.5671650954381375 1.0842853680671714 -0.2526715636309455 0.33836900309976564
P 0.14370717478620287 2.0886243437874894 2.2255623739441206 0.7581108501510686 1.3760680387669655 0.8494462046319563
P 3.4526131241046936 5.421623122561714 7.730161102952042 0.9776249531934389 -2.225132434579471 0.7612357689332954
P 7.110934973135944 7.664562057897661 7.282527926739992 -0.5669362174833398 0.4518281860628864 -0.2742696015166954
P 8.74735137355693 8.416853953659778 2.7565148542792044 -1.4064988444529969 -2.2785051937736562 4.351778248345253
Ni 7.81479760009478 4.84980083386474 10.9284776036299 2.6887033630005823 -0.544802618809094 0.19773814481785948
Ni 3.0452275123835757 4.336548783886185 2.080124435856759 1.3077723397143606 1.6673182340020574 -1.6756807470341402
Ni 3.981256031589459 8.83634452202075 9.796341233063298 0.7698844457472289 0.4753437526863233 0.49383898327703335
Ni 4.7248893897238515 0.4719658386620514 0.7868675043610384 -1.2877534733902725 -2.1358213096174636 0.11503372653909222
Ni 6.387007577955821 4.542880696908084 13.13701372342973 0.6105166731774518 0.22357490337530528 -0.20653106051914108
Ni 6.810652733619083 9.030760323280173 2.0226617723441573 -1.4336350385481569 -0.9933385072739537 -1.4148515872930667
Ni 5.092419290074594 8.942144864571107 7.482637401052327 0.03210999316066728 1.8914068437889877 -0.9332178878329734
Ni 1.822532469319699 4.816554693202553 13.96119225443849 -0.7706645184463631 1.2505156720847366 -1.0998042896383768
Ni 8.576182376702592 5.507443677085604 8.115896593706296 0.0004422297437411739 -1.1726613828094192 -0.03846858838884343
Ni 7.879703584449189 6.840405244049798 12.475244619638183 -0.9025564541933747 -2.302828086789737 -1.8473697601734316
Ni 1.992766684031022 0.5116487569696268 5.381893937259181 2.1970775853247835 0.24409950569121833 1.6811188873305758
Ni 7.81870668905648 1.5669781390095343 8.217153328506967 2.5669623996446433 0.928818473213697 0.05287885027690248
Ni 9.32009900215305 9.21985069899757 7.59446567208855 -1.535142191355724 1.3252609834174274 -2.94339375683377
Ni 2.5559682040757434 6.940171992767966 9.358630910933014 1.200759683707532 -1.0873280115482369 -0.6943989138144041
Ni 4.671106368646937 3.114599678087946 3.455734729927732 0.1071224421118155 -0.6753069301799595 -0.08225344678427769
Ni 9.031723432154795 8.162243847736498 5.0954257005224335 0.12338107006252301 1.1325974249089976 -0.4092473752778823
Ni 9.027379999975128 8.636971542730185 12.627427152521058 1.5477835342688182 1.9810277866819304 -0.4108766833511892
Ni 3.193612374782403 3.3110077928036947 8.99667948825998 1.5305705128246416 0.5714243351616805 -1.7457003707563872
Ni 2.6738451765343467 0.31024852792042235 12.47093329108767 0.05536999212987239 0.9454679088449202 -0.22035562510705922
Ni 7.224128592635602 6.709875664806949 0.7483233206640449 -1.0008903514792828 -0.3309428858390236 2.526329713724946
Ni 3.5532107902833188 1.6157756553237015 10.371862048683695 0.06808666836559242 -0.1399045216388429 1.3226829382776057
Ni 0.3414107653607562 3.2303049344567163 9.770153169693069 -0.9558718777870635 -0.7029797135048798 0.62882009947233
Ni 1.992936644420661 9.55092409577072 1.014802327130458 1.4298637444311826 3.5849747555161935 2.2513864831799935
Ni 5.727174134157387 1.7495344819696943 8.426064862553833 -2.899917945038322 0.676751633046286 -0.34114605162427053
P 4.989999270829282 5.515733967202445 1.554962883686435 -1.7359551184441653 2.0200401633893854 -0.26320563039304995
P 1.4197357881188377 3.2112882553048716 5.663691095954013 0.14606874146802584 -1.8009801171652982 0.7569592530451286
P 5.995909836908454 8.1903345232463 13.610572468632455 -1.1381391806628334 0.8246515141857798 -0.4490166847560202
P 1.2855992717180915 1.9078620271624096 11.878939536813695 0.7115252890820456 1.3845045995700929 -0.5716899301182412
P 0.5805195395245615 0.8714955034842939 9.241730266490448 0.22603776309350102 0.7750467066744589 0.731764498947056
P 1.0910040678251602 7.410726215971625 6.686485338295058 -0.22806662059807176 0.1877661212068121 -0.872414897612988
P 4.0088557104180795 8.311676799204767 4.874006970246899 2.0678302862894715 1.0785273825374717 -0.9279923777679759
P 7.5187832548066345 3.7192620909607457 9.260013283293683 0.6303794735396497 -1.00004111610511 -2.3281570524728292
