# total energy = -340870.3485444467 ev
CRYSTAL
PRIMVEC
9.28107853511001 0.00000000000000 0.00000000000000
0.00000000000000 9.28107853511001 0.00000000000000
0.00000000000000 0.00000000000000 13.58379658193180
PRIMCOORD
 96 1
Ni 7.3547908289844335 8.107838993893436 2.552517536743579 0.8048761313310654 0.07732052825903458 -0.6552569535076199
Ni 7.440687212506739 1.58172784027973 12.131104944054906 0.19837372151932933 0.81013969372285 -0.15606236234562798
Ni 0.9812513283932213 1.8695340912820737 2.828472778332672 -0.03023823005925115 -0.460379160956691 0.3443347337648973
Ni 4.428643050130195 8.630809217417463 5.731370526893909 -0.24892109544957775 0.2685398981217698 -0.21489640176470085
Ni 7.938125188481347 6.651090159611692 0.5808173309489673 0.4582024650203463 -0.20002308419729423 -0.48886878375595166
Ni 5.353131301092577 1.0179301514812982 12.886893811508926 -2.2464643632880277 0.3787859734642315 -0.2784432732784108
Ni 6.834057345431112 5.655221132239796 5.213813956585287 -0.4171013241046623 -0.3037532127981091 -0.6627764018131166
Ni 8.836496483935164 2.900188601683856 10.168327567338451 0.7547041384623646 -0.08062825247602887 0.205137265495408
Ni 4.508219019046483 7.197615760918497 10.1864210302965 0.3773343286193695 0.7528622001576195 1.6254380488285038
Ni 8.743917723736894 7.000086562592703 4.2271684652419665 0.09882317821750078 0.20683085114774702 0.6860145464054508
Ni 1.6453403538034341 5.883359328172999 11.461314551989073 0.6193119028715786 1.4172242012903011 -0.1917994107359213
Ni 2.5255857025236947 0.9812234851570714 4.870362070029584 0.2626795826862508 -0.9215234822141807 0.28682481247388664
Ni 1.2069393195452365 2.7866995711370435 5.175358735030849 -1.4675201213313758 2.143523306247412 0.5590313608139662
Ni 6.765943508729848 7.8920075083384695 9.184494242846267 0.5018045179810132 -1.6383730117226172 0.9316325456237246
Ni 1.863371455014239 6.468169379185856 7.132050508432816 -0.154414799439876 -0.5598669693413842 -1.613273388441512
Ni 7.106401319291569 7.8699649463865 11.663795205810185 0.7008595818380834 1.791662439308798 0.2534837751195957
Ni 6.631293618709145 2.580770996572709 8.639729262172004 0.7254069321601442 -0.6363686012435492 0.6622644951737046
Ni 3.1916794409366975 0.3029139909372555 11.022680562655088 -0.11827948716989951 -0.7628733045367184 0.3691242820047514
Ni 7.2454875649388155 4.280609844600128 12.893101925062473 0.8056202085859416 0.7836799568694245 0.36130915683570675
Ni 0.025464495674786536 7.763269665460253 10.379678148089035 -0.3952821713470418 -0.567178672511449 0.6355995842880086
Ni 2.782318901982799 3.357114669060424 3.6109809433039657 -0.8067440377777396 1.3173252735101184 -2.182242062973848
Ni 4.753889172675379 1.6734620223147885 6.541168775723548 -2.571563645862081 0.7223668597822397 -0.7271586247439283
Ni 2.3427577328850244 8.060821049115047 12.714189642534343 -1.1297357870904867 -0.257669273955853 -0.5477066798297664
Ni 8.916443696000117 6.9666746792128755 8.182879299640913 -0.41194189139090986 0.8992070781051674 -1.3515867657961498
P 1.4819748062335132 2.440719518738934 11.382230480244766 0.6339113979523083 -0.333177174486181 0.28243696781883615
P 6.752151825756952 1.631520827594389 6.690957033238927 1.5908847363336667 0.12424984582072149 -0.9266752016184492
P 5.869307774996039 7.516300160811031 4.738829694349793 -0.5996383357020513 -0.41923405417694903 -2.217904292262148
P 5.450582627617073 9.225280871374318 10.901200523333268 -1.0118478789320509 0.24415632707108276 -0.5446869191668361
P 0.525988430322671 8.357945503148875 2.8010193474889142 -1.4249868759548556 -0.218897552504294 1.6849385181869818
P 4.756265128826833 3.462696220540678 9.392638210900257 -0.920834426566956 0.43012113340309793 -0.9174238582235105
P 8.367774165509774 1.8350641649285522 0.515467399489512 -0.04823338108509113 0.1916466872081409 0.37976067867267504
P 7.614299070979807 5.844276705697318 2.7173977563600524 0.15335524782711007 -0.13738844008520854 -0.954041252336228
Ni 2.1484026634803137 8.268596558343987 1.5266966121374115 2.2003799102251396 -0.32797300457742223 0.6194952225269783
Ni 4.00837724368427 5.73593867383823 4.316482141947731 -0.2237191422626534 0.03579027022573192 0.2687913520109435
Ni 8.679089388901312 4.310151518155125 3.7938321156394275 0.7279842059690171 0.16084538555656816 0.9488658787828755
Ni 4.68081923993944 6.1450300615093445 6.446448870665353 -0.007181605350103761 1.1111557100954539 1.061728565812578
Ni 0.167507693001148 0.45910619276710213 11.456506025105995 1.0464215031418622 1.2991185206941045 1.153746291072471
Ni 1.4329521484523335 0.9635244680444798 9.456862347511386 -0.20561909022783298 0.40539380585974694 -0.5556593590179397
Ni 1.9472260012188882 7.59252566031062 9.147654857096393 1.233597041952527 0.14341304901273366 0.9461489940723448
Ni 1.0104310398782703 3.6743140963582994 7.9008384547373325 0.6082903549500943 -0.08691074305063097 -0.4092694867650693
Ni 2.2193008237965635 7.726525874821159 4.890193879031254 -0.4190605047135621 0.5276610740328009 0.8855856306669908
Ni 6.9995018546335555 9.053395293542541 0.18543780897378356 2.049336855470974 -0.09787161293750886 0.9337843018594048
Ni 4.135630113967828 2.4300462782148227 11.16656048545947 -0.39222332991606 0.44834536972060846 1.0848291563857833
Ni 3.5615582710300995 5.382589444939125 8.553567439798403 0.9252351267378128 -0.12108918870455275 -0.09498606385959771
Ni 6.613947282587785 0.41369016217520055 3.9435257061518976 -0.41642512397324416 1.1379180657909629 0.42071012450184314
Ni 6.851505773418355 8.800495179593401 6.126550505676685 2.150483539615329 -0.6471309819663759 0.10428522977333654
Ni 6.641419275588976 3.155390423154718 4.607800353136443 -1.7610223458254382 0.26657480397559896 0.8878134915562451
Ni 8.546063687656018 0.07857082809127833 8.209911369510936 -0.9406398913286573 -0.4399751433790422 0.9136955015293297
Ni 4.526706927849987 1.8894884105228038 4.057561392235119 1.3180050731859625 -0.6484329886072511 -0.26545508854885896
Ni 5.622013432591736 6.346605810155586 12.962800041900662 -1.5861978723809587 -0.814616498547281 0.8916480348109871
Ni 2.75519958997284 3.788870450957523 13.080476695164414 2.2955937738248275 0.8267801304930084 -0.6119873441857073
Ni 0.22086925508234684 9.187005702746983 0.7961940436468191 -1.1952798915398835 1.0328753890263114 -0.6511393317948205
Ni 6.262166555991788 5.18261932291086 9.232757708388426 -2.1966875489752167 1.5687729920362918 0.49998546249440345
Ni 8.112692998062228 3.224488054199944 6.616843907255242 -0.15665191630051084 -0.21760763004827685 -0.9226156868370948
Ni 6.431991734348476 3.51703693642648 10.881205367346185 0.5663831731933472 -0.5683991751821114 0.17186924747089755
Ni 5.80669761797373 0.16341009674776089 8.002649103935024 -1.3603341729714764 0.45425633588840475 0.8930168901340555
P 7.836757246738439 0.9840542141656401 10.052403181736397 -0.3805268674147382 -0.2265005616625325 -0.6505477209574086
P 0.8518303981214611 5.543235636445076 9.210941604757142 1.164067470492821 -0.2283029049785939 -0.1522401603860604
P 5.0599513055133105 8.125510167769878 0.29063326757942576 -0.8983560429587818 1.513716160271464 0.02038807673804876
P 1.8714088691828308 5.187798164834733 5.078614626704559 -0.2885163412436967 -0.3925220921034014 0.9244249721316918
P 4.1808568105539115 7.523929207516091 8.211921651160957 -0.6982008040589975 0.39508959572026153 -2.067609942748549
P 8.247166547587314 2.1262394475050286 3.826528427850203 0.8009531421275754 -0.802606104349966 -0.5566338071160672
P 3.092975168785458 0.8396629039239741 2.616986693832827 0.04212726818735325 -0.523090423942983 0.07203742548322432
P 9.219637975514615 7.8586605925096595 12.660506027021677 0.34893546576170226 -1.074866902966749 -0.19339349469591854
Ni 1.5592119433132134 6.258249940773375 3.2154065186757332 0.419578067779929 -0.606944125334845 -1.0590780155636084
Ni 9.1324515220507 0.31020891880851775 4.826444933650416 0.3654658593165577 -0.4508969324978686 -2.187315106621381
Ni 3.977833213627878 7.633733649812407 3.0573051989538778 0.17923468669703327 1.3404932269861494 0.30192387289885425
Ni 1.3592696645210982 2.2700868865339006 0.5038085084056958 -2.6667618257324848 -1.7532954094948257 -1.1972107900140092
Ni 2.327434671923887 4.116427562103144 10.047350562483071 -0.13398429949966603 -1.7001931303532072 0.6072449444047155
Ni 6.785322401090148 2.2795350246674184 2.023632481753451 0.42636526590509144 -0.2035840620756752 0.3580068319353512
Ni 8.160360618350781 4.706091617284793 8.381881405159033 2.0741731977883635 -1.1348661663385167 0.5125938952870333
Ni 4.532674661464773 5.022697055544803 11.064803666518335 -1.1520442207797 -0.298720278359892 1.125757519169029
Ni 3.7233924406117787 5.285008183312597 2.02447520370092 -1.6254699305077036 -0.30673003603824595 -1.6848439015906467
Ni 8.998618366957059 5.305732832086806 6.148094673701573 1.534476789857583 0.39852073288899753 -0.259736698007843
Ni 2.966093541650565 0.8195814339048264 0.07996298989877114 1.1405141086529131 -0.7056063524944494 -0.054855514387299076
Ni 3.828639873258234 1.2814106951673843 8.888748029001855 0.28298461279219006 1.1227534422353824 0.20355063773457846
Ni 4.150210688631636 2.4945126509804556 1.512447371983787 0.14036423488408084 1.8417318451613638 -0.2907580860900218
Ni 2.803489042535406 9.040986491298423 7.315118858010248 -1.521678095431018 0.4190427641017493 -0.2458861652779959
Ni 3.69091794618233 3.7515512334379997 5.685864469838457 -0.338827430793423 0.13585040617412736 1.343333524648422
Ni 8.697085400532837 5.29776038546923 10.844392896724589 -0.8553417441807849 -0.2777508751970765 -0.1775940657698167
Ni 8.645668224442769 4.238640806643579 1.3236590935933041 0.6489405243712888 -0.40369867754551125 -0.14472662561783461
Ni 1.3459049111691672 6.029907561108407 0.7129158524304718 -0.040732444722355654 -0.3769080397152283 -0.349192833188147
Ni 0.5372482350216726 4.207827625304405 12.622933436053192 -1.2190379131914295 -1.0532822348174375 0.10507610110574807
Ni 0.2847769069092394 1.456980861249659 6.808837870234445 1.6478392993418394 -0.05337944406240484 0.7743483950558535
Ni 5.686071437893837 6.631943294219308 1.736565932724822 -0.5034394824812749 4.016839096862643 0.9579133336971245
Ni 6.015401235074333 4.64917076151577 1.5039301260455462 0.7339039138875618 -4.286412321344934 -0.6874448510940742
Ni 5.725460335967166 4.147695516299433 7.033105856342817 0.0666116264819627 -0.5126558588732203 0.1389321304232446
Ni 5.153031243962279 0.3990808161673711 1.7662737375888466 0.07623166607023 -0.7707982158107499 1.0431415468390097
P 2.4798485466081983 2.093180245116433 7.218171494060064 -0.016057567683494926 -0.021261480481937576 -0.3415587136816569
P 1.7524811265080795 3.924968189258019 1.5845502163174536 0.29553082488831683 2.237777891257623 1.2240389659504467
P 0.5292637230017657 8.45987030961478 6.488680563149583 0.9252328127449679 -1.0554041662564468 0.8241848589620063
P 6.971426591515785 6.164019148563547 7.325103442493585 -0.24679067937013627 0.30785412234036014 0.23999139706011569
P 3.1745001642322364 6.113056745330593 13.031126415304538 1.343145834117648 -0.9155320405174362 -0.1384780736049615
P 4.9490424148497185 4.018103814179287 3.3530514127982887 0.37279761709128056 -0.9327615170218452 0.14650582900544445
P 6.690673960338071 5.913272244876661 11.285635797285815 -0.2433302316253616 -2.2291083885080836 -1.8631203381394688
P 5.374032290362401 3.282791790697743 13.195136997845264 -1.143446966028992 -0.9431919683265498 -0.4325847644522421
