# total energy = -340868.8754929165 ev
CRYSTAL
PRIMVEC
9.27152365923650 0.00000000000000 0.00000000000000

0.00000000000000 9.27152365923650 0.00000000000000

0.00000000000000 0.00000000000000 13.56981205526767

PRIMCOORD
 96 1
Ni 3.800916632116624 3.9594689531604104 3.8748459051146327 0.7483920802014079 0.040655825848149335 0.5574686443125367
Ni 5.814218659035349 6.664241192548907 2.115588254124816 0.020836220019060887 0.8926088560623595 -1.7850071387758097
Ni 6.883169673737546 3.5427603355758848 12.277490311151233 1.905309569913009 -0.5646718469291953 0.3302247767260764
Ni 4.7069484382707 3.2347881440016235 0.5232708713659858 1.9096827592800403 0.3567400494077856 -0.5218344400486947
Ni 3.5569735808925405 4.027772265781285 6.668774967473789 -2.0976036608971618 0.11326275068159848 -1.2219409457708375
Ni 9.229152501994973 3.176164301772522 4.265711078474992 0.8309442891730271 1.2905148381854936 0.1268579728675299
Ni 6.158507407625487 8.826416070119645 12.351052431824037 0.19243755854055244 0.5402134567765148 0.588263003985574
Ni 5.422969644607729 0.22705589856931788 10.110988413626627 -0.46847505059094796 0.9351942948330538 -1.037285345168549
Ni 8.538776329282125 4.735245127576919 2.4777664070453436 -0.9159539585462032 -0.9890403941192322 1.5549096037906383
Ni 4.960867648634198 1.6517775163953432 2.5515046866620583 -0.11426213848039032 0.4247716961657265 -0.609401328626086
Ni 0.9833006818677142 5.140763016461377 1.2462661175772396 1.2682753100610027 0.48488923028291336 -1.6638025075393152
Ni 6.918661065174048 2.394871570954572 9.895419005352679 0.37949251261295286 0.6595344978370513 0.9528009521712235
Ni 6.879887554466772 1.1492145924623318 7.801379625829932 -0.4525738059796593 0.1229180143831754 -0.06529573588401658
Ni 4.7222742663910084 3.0215060205415183 8.531299772841583 0.9346993574745064 -0.7851930510798413 1.5658190516142902
Ni 0.6534699468110349 0.9669179000839374 3.8926361041450295 -2.447626960406404 0.3258449024908259 0.34682587561786726
Ni 5.3508093782675274 7.570161740422619 8.321334073288698 -0.37494834488569617 0.46518018188976007 -0.6458006931907265
Ni 6.749372320075019 1.2565324753979392 0.6471792182087187 0.23876446663155007 0.9373319100013471 -0.600359787249108
Ni 0.25761483957629516 3.638470271260055 9.941257416863145 -1.5799614045529435 -0.5161037082125047 -1.3997712959211763
Ni 6.101710055499048 0.04471933864045925 3.8237282882008374 1.3735722689283054 -0.3954179255939577 -0.24061360402514687
Ni 7.552110084433363 8.057398836235324 0.7990449166025558 -0.3359120569188409 -0.48094798624697815 -0.9169122086944145
Ni 1.7571947370413783 8.514716726153148 10.59506484712462 1.3712688176061094 0.4355096514085209 1.4515682259878098
Ni 5.3718001071630965 2.4852781952746676 6.275644760955661 0.5599914107343904 -0.021752304075427054 -0.9569255158625585
Ni 4.268562999061688 1.1902039972535474 0.2362031835200108 -2.3212942639147247 -2.8672253399013075 -0.7556323067035889
Ni 5.304702092579513 8.340884934605874 5.874005150294267 0.6201431405236223 -0.24772604670021206 0.6601927002463405
P 1.6619761920954872 4.297035847311817 3.3839984781040773 -0.7318331474014622 0.17372764083587502 -0.11815401733562876
P 1.4319404259170545 3.9877285563731735 11.52375532922741 1.4628479126666871 0.21697822399439404 1.4106596606989061
P 5.40525176345957 4.169765646097382 10.76817438700186 -0.6644936416145395 -0.9989106020450926 -1.4245456746523788
P 1.495895394080322 6.81503324853722 13.121505824677406 0.8589358892899466 -0.7057526482643265 -1.49368572398315
P 4.780592148349105 0.47681590355182935 7.822697639500242 0.3472771042226729 0.3375454787572058 -0.07781572272789823
P 8.525332620404662 6.803684903939969 2.7714307837646386 -0.0910029108421336 2.1043494642614275 -1.2866890366815003
P 5.387774941918868 4.675972278712354 7.208337759694587 2.0554182857783636 1.2928781962113476 0.6449252325643087
P 1.9329735484950443 1.0901457171117697 1.3621787026710594 -0.9993926838878336 -1.5946745423934021 -0.6695723416890276
Ni 0.33938689418771445 2.6011351512283047 1.7791246712536972 0.6129934168527185 0.5955104295766066 0.3575998263049196
Ni 5.2503153365276525 2.0415245440380327 11.806062089826089 1.1771109339403407 -1.1135134116943533 -0.021372809248821255
Ni 3.268759005606467 4.614882211268491 12.662167669818617 -1.003656087149878 1.2819252967442696 0.6274790120634032
Ni 1.8674146067898452 2.3822344846097567 13.30407417269036 1.3170717627384154 1.7722799210171285 -0.3551189688645948
Ni 6.203863699921038 4.337765649448848 2.5185703813692837 -0.9220968382191473 -0.36610837799656304 0.23925606155598797
Ni 8.156529964040724 0.15991338067358718 9.744210657965334 0.06701194724417492 -0.3146647175042903 0.42611098380244034
Ni 8.567898184167719 9.102976340537463 2.5037526327293107 -0.3346411606262172 -0.16156786554488947 0.428167866331469
Ni 4.059536504825552 5.36263057055633 9.222247071393639 2.4705737990105647 -0.24953944575986703 0.7443996712125631
Ni 8.039569696806797 8.348042550642703 7.34190610673003 0.45274658411209767 0.27899888867156464 -0.5050610772450979
Ni 5.556377594288978 5.373793484686306 12.479680911211265 -0.44184484959792936 2.3990269400105135 0.7142761123543053
Ni 3.726762988253212 6.528737878587447 6.336274033688345 1.9336714088851539 1.171079640144596 0.5383175253053826
Ni 2.1564358046085657 5.822878261857108 7.846051679701236 -0.9320104977884336 -0.17133702911651139 0.1752124529115176
Ni 0.5895446475225314 1.049276842124283 7.010965570326706 0.23849321524803446 -0.6184762943441606 0.22817100738641996
Ni 8.909655806879549 8.57792070092395 12.028972690299469 -0.14503027290118248 -0.31210929807228827 0.3639342531633797
Ni 5.375749776116062 5.36951931241561 5.044916789383758 -2.3116994211374378 -0.9542762511651693 0.4401332662234613
Ni 1.0145920732204292 1.574063607560245 11.373170955362445 -0.6885527394462722 -0.1710171838832474 -2.1606931331584787
Ni 2.4586132940804726 3.75348351858759 9.087364022345215 -1.5320411838328971 -0.771406281708394 -1.5797989108331503
Ni 1.500354996818294 7.838229295439225 4.011371868103116 -0.6685940369361582 -1.1245311029610956 -1.6548054462470274
Ni 4.050830544386974 0.8452198844111265 4.8925411572049144 1.8951154029888262 0.2820728996111981 1.8518568494105074
Ni 2.6255841583385595 6.134327274692781 2.394393160349001 1.4079615450414527 -1.0800345632106174 0.9185839399698825
Ni 6.93673126421003 6.898560402521401 4.302851873917908 0.7669778136233952 1.0115213488305677 0.06556775859848063
Ni 1.2653033365000632 7.939548502758475 1.215709030874935 -1.1355914745403153 0.686920603159488 2.9013472212856803
Ni 2.9479735687434796 8.475507453847776 7.924946780612878 0.28329263095091206 1.009606905416674 -1.4860204941284085
Ni 7.643110086248741 2.254166932386038 2.951989992664663 -1.8387377955300461 -0.7383362386273026 -0.1734648740927916
P 7.74789684330604 1.410319233432749 11.927226992905485 -1.0457165066550376 -0.7123642400435731 -1.400679923778375
P 8.98787037797629 6.347692841863161 5.188132156479202 0.36137214886315827 0.021463054969782392 0.9212064651943941
P 0.9933231986239468 0.5211959044371747 9.191810514495064 -1.8825380805444483 0.6341692795993853 -1.5474719165656703
P 8.161555129703885 3.3084040395099366 8.311183609510046 -0.7786125696488462 -0.6579851510720605 -1.6225288456015088
P 7.427306108433691 6.962580271348214 12.264110575784981 -0.8168829259839544 -0.06427423659803769 0.6715940001047467
P 5.807849122484441 2.8679046929739838 4.120418890146066 0.2861293290687589 -0.0570833752765533 1.1515366850156619
P 7.403571008622446 3.361761656468418 0.9015035941432129 0.4386746794000639 -0.10959147247759836 0.7468913272861654
P 7.5016729973344685 7.1142345790093575 9.138562301512273 0.5090827968099813 0.09889671176791355 -0.45211640672726655
Ni 3.537021262613713 8.216136587746384 2.469664949930084 1.5573634646477694 1.2173402137740323 1.2157469011449835
Ni 3.397902054540383 3.003509993692446 10.984721940990681 -0.4380678990540004 -0.1931358701591577 0.00700677033513632
Ni 2.7782119759528987 1.015398695753077 3.2361417864127335 -0.6904131896937787 0.2674011565316362 -1.4572264527148515
Ni 3.7386027235887433 7.238426634467021 11.608783542844185 -0.5535420555646209 0.14200871246603933 -0.5202023037619106
Ni 1.3970609550225617 7.7674226715101335 6.401056948887996 -1.5794500121341637 -0.8456571699031694 -0.3287055118680726
Ni 9.196498196707784 5.126531228097994 7.150381467147676 -0.2610929549254213 -0.36507916540110025 -0.1689217348067994
Ni 9.172651838616174 3.930337826751453 13.092331122108641 0.021381808109885755 -0.6450548161636375 -0.36214605091470536
Ni 3.6054080189448614 7.457725976590211 0.3497209341289696 0.4206628162036755 -1.0771428434851191 -0.373510326887589
Ni 1.9028410975628003 9.196108792726505 12.94250608600717 1.1149516868027767 -0.35605999262162547 0.136891445844132
Ni 8.418608114964336 5.472887526398252 11.0361102863867 -0.3162657434428231 0.6288218992445429 0.3596333117951806
Ni 2.9600821782565596 1.2222927396155463 9.185052501115212 0.9586723233503361 0.766053759147229 2.3693448395650485
Ni 7.397099485314537 4.646303403948299 5.164208844743672 2.305712350316068 -1.8366528879765591 -0.4282527127357914
Ni 2.957476880191341 1.665258311366261 6.962561728301487 1.105223146661103 -0.8269966173791886 0.3463833887638099
Ni 7.526641209753095 5.541125938355581 0.4277037171416171 -0.30339351546584525 0.38785965363072555 -0.2942992664740609
Ni 2.071369577746 5.6521617021600585 5.236644475327777 -1.9340699298751527 -1.149145044855034 -1.4150032823795824
Ni 0.6342639861629907 7.527781607126838 8.750723353377849 -0.930127678943424 -0.09817937398591478 0.17696183150245653
Ni 6.873341858971953 4.956973608821416 9.103660578961708 -0.9113534836597144 -0.28257940693397143 -0.3091350459353127
Ni 9.011707464544536 1.1898887654591794 0.036055100057018626 0.6680201667105592 -0.7641066627231872 0.06865256817139144
Ni 2.7974503869327156 3.045955027651773 1.9777049401158764 0.018528654931806797 0.5947784365065886 -0.7460554616484313
Ni 1.5175258580879911 6.213728600780086 11.000069093614727 -0.2529093906733645 -1.0694205351401969 0.1319886092258759
Ni 5.775880909926171 7.2592782905121345 10.58899848938771 1.530579511685706 -1.846807459912058 0.45781885642868253
Ni 2.1256821616109494 2.551792103886335 5.0924110949669945 -0.33241484239885977 1.1491661279009564 -0.7873980291509601
Ni 8.088393538840398 2.2926993834858553 6.068922240275421 -0.7803686331080044 0.8207974305470122 0.30651277782111724
Ni 6.900813382698796 6.2832279399148865 6.83177576542751 -0.19359172674965366 0.08038322634475834 0.5978213370979704
P 4.52736830223789 5.144749771507797 0.9694981650360738 -0.5611494355982336 3.2686604182236225 1.006365258550925
P 3.4395868235838813 0.8552461097767047 11.702225663913579 -0.459777265706634 -0.449619865557658 -1.0596241178750654
P 7.84522929557887 0.19978185829012332 5.42199428034986 -0.42760967983515386 0.23393567778433905 -0.31723607777589236
P 4.673608040254593 6.930361727659122 3.845291070087951 -1.1270101606292073 1.132422075673398 1.499082212408373
P 5.430423949392197 9.008796206208313 1.223832739646268 0.020973516927873557 -2.331304082742243 1.2665094764098317
P 1.4291311543378329 3.4444265587797678 7.023422789118265 0.0008646619931404464 0.20691132667669526 0.434086288698433
P 1.9993576557796189 0.17705179161151122 5.2354095084157235 1.2201360313516147 0.6440096627285747 1.9192932857866107
P 2.997177543234993 7.133973652250818 9.395791445716636 -0.11345044121237235 -0.8820963865668099 2.0156371492256837
