# total energy = -340887.586483872 ev
CRYSTAL
PRIMVEC
9.08969095091123 0.00000000000000 0.00000000000000
0.00000000000000 9.08969095091123 0.00000000000000
0.00000000000000 0.00000000000000 13.30368150670009
PRIMCOORD
 96 1
Ni 6.2873753927780855 2.337004918809505 11.261006885898675 1.7588649331628032 -0.2142849934329471 2.9605057339237075
Ni 4.844677869573142 0.23346961373802147 5.7047116775506135 -1.5830202459839255 -0.0019231851646418492 0.8032967026590875
Ni 2.5134994424808617 1.8894921782258975 4.734593534880274 0.6887699976634009 -0.9565737889500945 -0.47216895450276747
Ni 3.6655631963152557 4.647058904792848 4.732199310358719 0.12598945421964755 -0.5570133019426728 -0.17001445365034593
Ni 4.2107083043476985 3.05907176597463 2.567676725760379 -1.1012505351666002 -0.4781233723139895 -0.22097834629272264
Ni 5.605239556710878 4.932693344296824 2.494506533833218 -0.845888312077369 -0.5999052162101925 0.2892046255599729
Ni 5.2017936364784445 4.512604200454037 11.798728443563792 0.4015158109615795 0.2644438736755252 -1.469725613623127
Ni 5.692482407727909 7.811016611368178 12.294038413548103 0.6114942065993727 1.7350680878535214 0.42395717068423117
Ni 2.026210215540667 6.4025690425945925 0.29958529673891493 -0.07983918091583024 0.5574645305474786 -0.44594267381638686
Ni 2.6440910282864127 1.5116610062916502 0.40104351498927876 0.14723499386198513 0.2441344726942118 -1.1128186996201739
Ni 8.13918171350069 -0.05288018442140828 7.011930997247697 0.9007571962011068 0.2784823540464623 0.8700469116014434
Ni 8.779504972502016 2.138449715890562 1.092853508832838 -0.09308833261625259 2.301179752553037 -0.3027345417256077
Ni 6.978582740130456 0.9346292634011385 5.05618406375371 1.1248668890339595 0.2105250121698826 -1.6356630689906217
Ni 0.7701513107908898 7.402507733434506 2.2088502790716418 0.45481580793630055 0.12160572332965508 0.5053989202004908
Ni 7.7649137003077096 3.955306176000488 3.7418066126567595 0.14460501243830579 0.20637987965325746 -0.2654106084641687
Ni 7.71492040164198 4.222588530048809 12.462768523452139 0.17793345138710645 -2.0681393328894573 -0.21683321377609752
Ni 8.224270307829762 7.318909848374741 9.028968805936804 0.06265238472389854 -0.5097541118453931 0.47112611506054985
Ni 6.698565729458374 0.9095962553056081 0.15885688790208743 0.6184408131205349 0.10143978990474144 -0.7520394471460081
Ni 2.0359180051724852 6.694175408866457 9.21596555820423 -0.4628001116933577 0.10612973918124304 -0.903866688364366
Ni 0.45600978341864795 4.837715166522607 1.1889369929921025 -0.5799040904979175 -0.7164800619841597 1.0951732186242686
Ni 6.359629343886064 2.2766857315466362 6.808690967759242 0.9503064678841441 -0.6219583393554902 2.327556699884669
Ni 3.3212911623217125 4.21934351048087 13.196333829310381 -0.12314298590978794 0.2360951473295031 1.0609505499959728
Ni 6.3716913634005055 5.963291561754831 4.511690686542054 -0.38895417224648493 0.5365375505868243 1.5075786799151585
Ni 5.43225365363679 2.7154360103277413 9.357091186523183 -0.8146743483684098 1.3810210118968667 -2.335550773833739
P 0.31984349032733495 5.576616120802083 12.435376740628653 1.1893488707674291 -0.3863097926451024 -1.3366576552901432
P 4.255165981397532 6.365064978904629 12.366210557440084 -2.0316893175925395 -2.2763148709905567 0.5229757527419897
P 2.3588656248624287 8.562906733610077 1.2051802702131313 0.9421427011264291 -0.43724797425586626 0.5354366042131617
P 6.694948032573109 8.090933635442928 5.852461872427309 -1.4692545875239793 -0.7536119338394505 -2.045936571540173
P 4.678309261304262 1.477492859076291 12.702953600654567 0.10180848609806982 -0.022828824969057457 -1.0654831477590037
P 4.0239969683672 6.2251655498565865 8.114833159112347 1.6137418434374984 1.2168051672061688 0.6335825538579799
P 4.550671824965323 1.3627718731744425 3.8474642679950444 0.8997043294565602 -0.4771494384364944 -0.8147841344733968
P 0.11158049777657407 5.794795965869991 3.6074664384203454 1.0195143943383733 -0.2373310766191332 0.6261682636717797
Ni 0.6795879957733884 0.32642988018427815 5.043105816822754 -0.29132707121961443 -0.598950051385775 -0.6562779385729665
Ni 1.9896514796800193 6.685194794487958 4.341469867368713 0.3133334002873765 0.21349155099737427 0.44175820342139405
Ni 6.181616841873403 6.04630770661194 8.88124497116304 -0.20611197070385145 -1.2067968910405475 1.158788738592385
Ni 8.636596855843361 2.5659015091732122 10.163746695030722 0.21525455643506802 -0.49107916114370903 0.17722974045186252
Ni 2.647272420019686 5.175824390244265 7.011944631783697 -0.8899660191228738 0.4008218702183484 -0.1333191551118414
Ni 0.23577112341477835 0.16168559963750107 9.18035124120383 1.6891283878986136 0.9385339007292481 0.9946662249464417
Ni 1.6867284485283671 1.2603310593630304 11.422739751927644 -0.8440443168900947 0.0528125158153413 -0.45989579356236926
Ni 4.165396196375215 7.07258832100336 1.147687067778476 0.8620145282152701 0.3064790963697044 1.0514025012962216
Ni 5.658941449168538 8.05764718822222 7.875233457988841 0.24861616261464928 0.9000144044978112 -0.508700473769898
Ni 5.729368372452551 3.011869002343515 4.688509712170204 -1.1684406598598522 0.5961503771534507 -1.6558012345013935
Ni 1.2158733823131973 7.278487993980832 6.712399329683715 -0.7669454177235631 0.7442461763538344 0.002288281813544446
Ni 5.18657749430273 4.393374727981606 7.428815116161479 -0.30674443421594916 0.6163073117172998 0.015326860165057476
Ni 0.6272322865034369 7.397626569546598 11.220257802640775 0.9153615763778429 0.2653026221313947 -0.3141929200741944
Ni 4.918686130979755 0.6070913499246146 10.465527152065595 -1.363633926768671 -0.7625704285843189 0.5522205085397199
Ni 8.178649150374618 7.972285903173153 4.047379288637695 0.09710105332007148 -0.6508716799557307 0.8712794984569641
Ni 7.558368659292917 6.516681019221785 6.84027400694905 -0.04803823435514953 -2.00822440170138 -0.2116807230408806
Ni 2.612358918169674 5.1083243473548645 2.459491227447741 0.4711412845692015 0.7089521290382306 0.09482691257391411
Ni 2.38223521956599 5.469821345161418 11.284235590396909 -0.6810649157096593 0.3635493590201352 1.1835317498650197
Ni 0.9805685600296103 3.189190687865523 3.436672968735015 -0.06458791118371457 1.6400167179736271 0.13018240925507257
Ni 1.2913359942264488 1.0876451160809355 2.5079301890094996 0.9198841468385448 -1.0150147066958066 -0.2386405394591761
Ni 1.483937449758837 3.1989621053320065 8.03300230991815 -0.8014390806250584 0.7947873796364956 -0.3368235129895167
Ni 3.992483010826458 2.6776138074644504 6.420555722485455 -0.7833565120917347 -0.6036227742710958 1.1454614253558595
Ni 4.139963241890359 6.885822446878863 5.742014859076847 0.1517781331479773 0.37984603929762967 0.17170469686857526
Ni 0.6751340473468052 8.98085980014624 13.176723730666483 0.47780429841167393 1.0367459277253113 0.3333682074510646
P 0.28704243258821677 5.773035246414398 7.878799343637307 0.6013319213543902 -0.18652273571801425 1.4457135669792456
P 8.785567796176569 1.9105893502628353 7.861118986321905 -1.3186923290609742 -0.6606593554701138 0.9585231993669815
P 1.8665861577463272 3.533199120829738 10.19989275893511 -1.283691644616073 -0.6545704689635565 -0.3265100468786506
P 4.2763449606504675 6.467787573126702 3.4831830979373426 -0.29404961235710003 -0.11785139849354541 0.09715581781740687
P 6.820513019440088 4.424025164909032 10.239816498280495 0.7329518343869378 -0.8609894293848656 0.14361050973552042
P 6.315298922505562 7.9373814910138085 10.12142691322565 0.6971309680335864 -0.7912968499847339 0.4568377234623358
P 2.583371894634218 8.631624795048788 5.705097080434872 0.5206527610357679 0.23579201426678745 -0.8890517348387205
P 7.448056173364319 4.164078191228573 1.4627930113304335 -0.8974736403538286 -0.893685634066306 -0.1346684700508842
Ni 5.530013276754956 3.205661207353214 0.49521725513951265 0.6788851344495211 -0.23500165715500818 0.5938847210477256
Ni 1.5187055165581849 0.8060737683048828 7.253286826607971 0.197125450934525 0.5102423643357213 -0.7614450567306241
Ni 7.035202423292061 0.654681334378122 9.312190841537891 -0.4051755192013538 1.4498964947123416 -1.269723355361439
Ni 2.817776837541822 1.5817061625676698 9.130702441814362 0.7589631708490348 -0.6893209850708645 0.27854688873581057
Ni 6.508463938859273 1.4884641157107519 2.5739295239698614 -0.4574763854875992 1.6824440338999023 0.7454365971175098
Ni 4.296187755375429 7.155468120500473 10.293031183318432 -0.8615666420445742 -0.007953707629437916 -0.5860212591392487
Ni 8.49889713193661 7.174601919353447 0.1750129040927178 -1.2750373113751847 0.03348296224879395 0.6694029059906987
Ni 8.000718455577953 4.040976510532215 8.213546290781428 -1.4869478910386842 -0.2575607734024467 -1.592418913590006
Ni 3.1037112368377926 8.257156808661145 12.323811695326212 -0.21442229034175975 0.9747054655537989 -0.4568423514480261
Ni 0.22761585294879794 4.896989039358829 9.957645230920452 -0.1460602568275936 1.447683803331739 0.9740146101343614
Ni 8.911659985102203 2.5504944834935013 5.730667289248793 -0.1398088766012431 0.4069966315704926 0.1580904485192503
Ni 3.460345250137771 2.8441732992373265 11.241371336120912 2.182685835379486 -0.9523001012754051 1.1810601483960756
Ni 0.9363108561744403 3.335507438524112 12.439074426791782 0.9163630210591638 0.473403855351133 -0.09382418234101261
Ni 3.28266906667977 8.34230903082488 7.756392115307869 0.2785779990840621 0.36264715892083993 0.8371108229950551
Ni 5.880284506588387 8.255284332383846 3.2736239154975393 -0.9970907752275345 -0.460551167758181 -0.006918581496704213
Ni 3.088613260640743 8.83926059894356 3.4576137980924893 0.8155189557568923 -0.995444240763047 0.09195833277686744
Ni 3.6529103469074933 4.583694671156704 9.57016262543652 1.287256479149196 -0.03553701656434525 -1.4096870123729914
Ni 7.5396529862106005 6.323834142041402 11.430323280850702 -0.9777949031123999 -0.14060180481618367 -1.6084829090314041
Ni 8.221334337744484 9.162135501108173 1.8725462679163487 -0.20213113167923252 -2.132391200889992 0.2037434704716749
Ni 4.687189889085429 0.5165943896489784 1.3547138623985935 -1.002926408072705 -0.6562902798681407 0.7955623101293073
Ni 6.338041328553135 5.706807760218307 0.2990044655053258 -0.9791853557020233 1.208075500642655 0.006295860311040771
Ni 7.833595402983755 8.85584019471925 11.495803594474008 0.1134121317752692 0.11361756291785595 -0.20837274171357015
Ni 0.390759438969205 5.051586498214596 5.802201336855986 -1.269677075504536 0.3449551409577156 -0.7294222239671244
Ni 7.55016066862107 6.299355605076529 2.380866312151616 0.04232704290298517 -0.03100364747036596 -0.6222041368177091
P 8.508204975179103 1.4807833270975626 3.5840913899023836 0.10131174896730939 0.5687221057391689 -0.08468493904390577
P 2.1451033694584374 3.252700356552332 1.4690321750039161 -0.9977505202987205 0.05943644888976214 0.7165145147665208
P 4.778404934923719 1.0967075376754323 8.11042920398443 -0.14715708943619818 -0.14224731083940662 -0.7248580016352096
P 8.621198919854319 1.6184830510043133 12.279563990130775 -0.5834087612170662 0.4912956480298894 -0.26399624461514537
P 6.496374650272833 7.84772078227949 1.1049664306150107 -0.18216420163900238 0.8005798179485567 0.3553755649600912
P 1.8846746421726546 3.5862101967967437 5.846342692670624 1.1745794257677384 -1.3553444330663689 -1.2372708912596886
P 6.824976057557337 4.246912542272353 6.033113111640454 1.379398131581463 1.5436592276877996 -0.16071400218502646
P 2.1577562188662 8.739646678929429 10.151732850876813 1.134499012807085 -1.2538023132558083 -0.4167737655619145
