# total energy = -340862.17418568477 ev
CRYSTAL
PRIMVEC
9.33210141484422 0.00000000000000 0.00000000000000

0.00000000000000 9.33210141484422 0.00000000000000

0.00000000000000 0.00000000000000 13.65847372389108

PRIMCOORD
 96 1
Ni 9.523222891646146 3.3766622653584584 1.1694886888874982 1.1792122965540595 -1.1170764464552632 0.29232363080492885
Ni 3.9417770009990627 4.544453444991498 11.11002076050726 0.06937993325571923 -0.7024904325732869 0.5891011836161532
Ni 0.897030521260575 6.3958303882220315 8.338198120258243 -1.1370372058479064 0.9374509520777146 -0.47198872017116134
Ni 4.212202636929333 1.912446215144665 9.81264402008577 0.40395861607511724 0.5166390118906845 0.39697832810254213
Ni 5.104510181644104 5.7904756311123355 13.324510704518055 -0.1543834319813083 -1.1355541935444766 -1.3159325069276497
Ni 5.995408579039339 7.9283107605708905 13.180208419736848 -0.3217213672407556 0.3293932819637166 0.7138709064960866
Ni 0.24243773045996592 1.6711833962577414 3.819469546134486 0.9972162450618052 0.6719814653511523 -1.1418837353069302
Ni 4.935309850183971 5.626165320814031 3.5906352199638274 -0.6697129810319498 -0.18109513694453974 0.5909593198708145
Ni 3.889414579741393 8.579766098862708 0.7148193739534554 -0.01603879863041754 0.14271602294570906 0.1348294211087807
Ni 5.773976475741892 0.9085239374111623 5.511904003822981 -0.011231092829129045 1.1282041809373087 0.12750949040859977
Ni 7.421810954162049 8.624056252362779 7.919469527653493 1.730851735779329 0.8515835626899333 -1.0339272273295934
Ni 4.546506507311349 1.6903981931512615 0.9712337927608838 -4.509251889216111 0.721929258024189 1.5480738118157273
Ni 2.2762208619180053 6.860578372726255 10.119972518005227 0.9991263176003244 0.4258122216150989 0.051225888054511774
Ni 6.559851403375266 4.85362596615824 11.60716233557816 -0.032256803151176704 -1.3785895196372386 1.4240985598126312
Ni 3.8287372560883246 6.202581231315273 1.4141847878993008 -0.8485483754080354 -1.211870706019029 2.01381500841528
Ni 8.673787021010456 0.9904159272993154 9.339363695222273 0.3060461225973439 0.9583519638964398 0.5681523492786279
Ni 8.650634077303403 4.121681252826785 12.539625912848937 -1.4609782064478 -1.024540386798055 -0.2593890848604371
Ni 1.4947600182723129 7.9403118430405675 1.4658818303233094 1.2675165775181072 0.9438892515038906 0.40830737996211613
Ni 0.5947348256551904 5.792015427852224 11.345793504108869 1.4148258762614538 3.2460470516994806 2.2964481514053223
Ni 7.660115496888095 2.1866233558593913 4.910221428635384 0.4678366456760007 -1.0007247724356958 0.34908304708316007
Ni 6.231874697778974 2.9697919740711423 6.82739341995629 -0.9450207940051724 0.5257620572378752 -0.555097830087515
Ni 0.6026129857025483 4.275754247830194 7.4081786203582345 0.8208079720699734 0.147046789110579 0.3033986576721678
Ni 3.146681957129265 5.7357241918824755 6.888432829145769 -1.4504996755139794 -0.7867683659867611 -0.8917663055564061
Ni 8.865655026902042 7.271676105972174 0.4786257525762746 -0.2024556048981868 -1.2177207370419028 -0.7521880569087305
P 5.565338683537702 5.294586424056545 9.957163742830849 -0.6406859976719804 -0.3473043579161825 -4.115514950869002
P 3.913351419970572 7.442677533012904 3.0767490552542474 0.209722056652613 1.1507260161889086 -1.5668896589706498
P 8.522364342819948 1.8672041872962992 13.16660501544754 0.9294216540153348 0.7319077093931395 -0.1317446115358699
P 8.92136767258165 7.915777748318341 9.788099660051943 -0.5248084350753542 -0.011367875517309453 -0.5967203907243077
P 3.9601892371675502 3.9187267104080017 5.747854990562363 1.8121302202448468 0.476072917542864 0.8415225789095054
P 7.770224961942318 4.617262500534598 5.808812277259047 -0.3359051149403054 0.0401644880340276 0.06685665261323324
P 8.460371192861883 9.348245989386067 5.733608604482883 -0.791752963685546 -0.1892121096247193 -0.5479365364523854
P 1.279020496861726 8.34001508041131 12.897122854974258 -1.7635006321626017 -1.9879209142573375 1.309442785438248
Ni 7.8663456069171875 6.990117273007437 6.045677809940907 0.613490411093795 0.02001552388997843 0.9287547098552972
Ni 1.9317543330527238 2.7236204698194824 8.733268902467284 -0.4156949306754389 0.02792732253788739 0.2613248684305693
Ni 0.5345353055965604 0.11962914174731606 7.449699939356942 -0.8636289238902416 0.5694618121186709 -0.4103848313164351
Ni 7.067928334929811 6.822083454229037 3.874444955799239 0.5416674156142219 -0.9889455204125808 -0.8014799611653228
Ni 6.576415883455887 7.016209828672459 9.20906236225231 0.49963065025814607 -0.5467515150053487 0.5565908696932738
Ni 3.424311975381923 2.0781003480523266 4.64882553407188 0.16310152858059654 0.4947802641443801 -0.16756470655827269
Ni 2.7826646757181237 6.3174034076037 13.182025379889918 -1.2343676015699643 0.554074273919007 -3.055013058374674
Ni 0.7364913131597798 7.981531735162315 4.3775002835614565 -0.6531933861103718 0.07442058100342022 -0.1666581355836033
Ni 8.34861927795178 5.330235051610332 10.13281162318546 -2.0523681860981298 0.6091043662109573 -0.8303542209975119
Ni 5.776262840598091 1.599083580425135 3.1362449348632553 0.020593507880635502 1.1560649119033188 0.16741044036859554
Ni 2.73508962250629 3.3290218874364474 0.32654142839268635 0.5617528735101874 0.44851686230146626 -1.2384458854043963
Ni 2.5233349084165058 8.245004955509453 7.019103713333305 0.04851337421935516 -0.19067969530918127 2.1958059177012115
Ni 6.5441548087298544 3.3946358927586138 9.241323436978341 -0.29708865629374 -0.48213892123128577 0.3248884521148276
Ni 3.5122390352802944 1.443862736942901 7.443963496593247 -0.23851044163921503 -1.634876311423268 -0.8182170714143456
Ni 2.24076820849475 5.9117742858097495 3.6930195714345353 1.486225411050363 0.6581386459307891 -2.3921572094738734
Ni 8.034024805840339 5.249577698744526 1.9722696515147042 0.8858707660075775 2.31944898317587 -0.2066681003176376
Ni 5.578049005717873 5.773183247118313 6.51017476091602 0.43032553610442015 -0.6437816058781687 -0.9910481685778803
Ni 4.352986719462429 6.6307287139174145 8.362946853313908 0.8774313769909727 0.635364585459067 2.738923435498399
Ni 1.4350905615762624 5.630850035743874 1.2355814310142477 -0.8420843649502466 -1.1639283738117956 2.0479371469099696
Ni 4.687915840641854 6.913482055868249 10.963233337108887 0.24830480202181754 1.0267628483706703 0.8523708344779191
Ni 6.0956073523495515 6.616310617171184 1.6439616563168002 0.6654737461396216 0.9242897321054082 0.15158941417593894
Ni 6.752549966296245 9.298617873854381 10.428231426439634 -1.2592985604836893 0.41627034356293474 -0.014501536050284702
Ni 5.045717942484718 8.69657601276081 7.223365683165776 -0.3103270093608849 -0.4792356315415618 1.7451658384091557
Ni 6.229065735241359 2.2275819491404305 11.368849393960804 0.13733830357356347 0.11947890679463939 0.7790540280616389
P 2.563360291552158 4.97007192809964 9.131031062735623 -0.058721939321240806 -0.9504872164363823 -0.5794937424333763
P 2.262679982708439 2.001371809898601 1.971709725427472 -0.4966859658075253 -0.05105105303954433 -0.5571248878198728
P 4.849006575938573 9.236746041215218 12.042444209741785 0.4492982205521811 1.1404932827173069 -1.6460259002821844
P 1.0691042067583545 6.6586876898732115 6.1329002961795105 0.5352944222083426 -0.7140485697245316 0.043020726535900104
P 1.936933649359622 0.17342030773757316 9.055063090850387 1.5865038336571515 0.9790316037329783 0.9629478107972382
P 6.046772465441446 0.8785240308674037 8.394826245090476 -0.606436075350175 1.4439500473209197 0.5756252606169053
P 1.2200789440790774 4.56914618543844 13.11340550468946 1.127448790828523 0.4200624636155153 -0.45763862209707634
P 1.1205987425808142 4.089056226144052 3.359547191292059 -0.00755184420532893 -1.2710994097733594 -1.3879835592576288
Ni 1.574017555920038 0.4869705176963259 5.228149327386148 0.7506266259588814 1.5491320778769124 1.6192586594906695
Ni 2.9477308862341913 8.359649821870256 11.701979285979922 0.15218822410220242 1.1409627661545576 -0.06059370242265694
Ni 7.813731218920264 4.9915917540522665 7.972328416708509 -1.025584254681537 0.5952309506629748 -1.4166027656562183
Ni 6.455630494338436 3.9389120458527245 4.217654450598684 -0.38623625909468967 0.7195952105743736 -0.651252203223601
Ni 2.544528110818247 0.23428240699942818 2.981753861714714 0.6498362967126807 -0.9921537429372334 0.5111867305268615
Ni 3.115298099939897 7.608229012804573 4.9321294700084914 -1.1138695094821913 -1.6187035583181477 0.403216338592454
Ni 9.182647849087127 0.30000559790860454 11.734390607539362 -0.509086139244091 -0.9469501498174014 -0.4640226712465492
Ni 1.882751468318448 4.482124339381094 5.4010927647394285 -0.6413434287503214 -1.6466938728834866 -0.06032296525977354
Ni 1.8506583714185858 0.9500079280040545 13.162097610445322 0.27390964707411536 1.2706525520439278 1.7700371477295387
Ni 4.309620444006291 3.4631428495314793 8.154190543421253 -0.7800711564722437 2.734146840045362 -0.5164664908685622
Ni 5.624289568421804 4.084119544474955 1.520106005821026 -0.2853029765127216 -0.15133153252886195 0.9362093663611296
Ni 8.164636897788716 1.0559459437083967 1.9467015599513888 0.05585901595114896 1.6378857876735535 -0.9197087976029451
Ni 9.368589970555506 5.719906279918165 4.277724254447106 -2.1606489101841047 -0.4694433280414883 0.5520991524705073
Ni 4.254943661588062 8.978433472972071 9.587757172830099 -0.41385633480480344 -1.0504203398886103 -0.261044361075673
Ni 1.4731841997109631 1.5908433348413673 10.95313973617638 1.5664062915763282 0.020884042537860806 -1.983439481447216
Ni 6.4850639423239445 1.8041005172652242 0.21338503221377514 2.3103647614864147 1.2180210418911412 -1.1110492664245768
Ni 7.746166804394239 7.52159911500829 11.589433209236095 0.7390175809650434 -1.087748129804791 0.19281782469810663
Ni 3.874968486690801 1.8821262175210385 12.194572394802206 0.12643194107370484 0.19411417491202698 0.03084501040531462
Ni 7.373946605805146 9.189422954742637 3.6878421215479276 0.1916718840191215 -0.7128139259864821 1.2313501548998793
Ni 5.4425655568105755 8.037813639030611 5.16495140313039 1.1292539623580615 -2.318468878650788 -2.0585385765749002
Ni 1.6874492490918385 3.9558031494842307 11.056438633589568 0.3088532530288358 -1.817335161484554 -0.6328006813866327
Ni 7.8643672014089665 9.162434517338044 13.514321915249207 -0.7474281736262417 0.7289684242591574 0.7638868334028973
Ni 3.433140143357285 3.702623237040714 2.5664268200899003 -0.08692308434580513 0.654747360861053 1.3965908413106658
Ni 8.478792761131825 2.4818910458598658 7.222218767897094 -1.46577717049834 -0.7950871702651017 1.6167096678165707
P 3.7203169013972532 0.08299411106985519 5.514294888215463 0.9578372290435503 2.715200895070479 0.9480084158785868
P 5.13205854513593 3.635618748601921 13.147045864010373 -0.7594295689624921 -1.7667427932489832 -1.2935916773386045
P 8.666825273325868 3.305131707714538 9.827613644027924 0.9538347927523767 -1.596011773147587 -0.5068094273947723
P 7.553094957415103 3.309863083151651 2.0257836540917813 -1.2469310400572717 -3.132208888130386 1.2949559046759826
P 9.014782008134897 7.369803152759626 2.6655468024720443 -1.447822128681816 -0.5964080016902116 -0.5910112561546724
P 5.8142164972109835 9.409184611879843 1.5720634138755976 1.4876845120943927 -0.9912762254282863 -0.09334055783637472
P 7.279197779743994 6.034099471667088 13.212839045680452 0.899803831148902 0.2118797264255641 1.2956724711270333
P 0.9015649893570108 2.402820150241218 6.260498119358287 2.182159530562371 -0.27569964909500255 -1.1979175862730465
