# total energy = -340854.57303744514 ev
CRYSTAL
PRIMVEC
9.44646017556573 0.00000000000000 0.00000000000000

0.00000000000000 9.44646017556573 0.00000000000000

0.00000000000000 0.00000000000000 13.82584932976174

PRIMCOORD
 96 1
Ni 2.4931381557016756 4.011174887942153 8.006591190723704 -2.672668678135223 -0.5990768067716263 -1.097583370727658
Ni 5.339375552932028 7.078213849459706 13.301628837343657 0.8851552279977918 -0.09478654625428191 -0.5112700342692872
Ni 6.874415913807611 9.315286804377042 4.007256496187797 -0.09682285995802035 0.3031970831843229 0.20233656282181928
Ni 9.381582063133248 2.5049084453013095 11.752829706964167 -0.4539496032812634 2.8125536593900398 -1.6434648244232277
Ni 4.438003752524719 7.43084076797074 6.333193248290301 0.26218875909276135 -0.19723935080457 -0.9201780239298798
Ni 5.4242425527419105 1.0477824894159222 5.568195272766716 -1.0547536771566415 -0.46011485155171084 1.2297892381706628
Ni 4.9387039370664665 0.14395649860894644 10.208772699681804 -2.180592443185567 0.009292223935203351 1.9920855871579883
Ni 8.887088203043314 0.24253503562097206 8.09734427997944 1.4273237516181483 -0.6612820766557773 -1.3431692311564158
Ni 8.004958842374734 4.01452838136741 1.656461383666803 2.0145220617846338 -0.3134056482862086 1.4945421584461744
Ni 6.180318346462242 5.995092151863822 1.2253239885173084 1.5838512265256528 2.9178678446485233 -3.0813527247104675
Ni 5.46273687867972 2.496104344252466 13.451210703092718 0.6642802400521528 0.9017663541919115 1.0967590750541498
Ni 7.835290967977437 4.115813329270523 13.350986592687228 -0.8595933203682874 0.42433229463546274 -2.9328188095314007
Ni 6.916962771236786 4.187842589460902 7.9243550301220855 1.387670141782268 0.12766298526732853 -0.7265055645409617
Ni 1.364815145317469 4.934802548940745 0.11222394899169798 -0.9058772910364915 0.06364637320605168 0.6308348159095136
Ni 7.466784549613284 7.997685067903049 0.5610403946915261 -0.158451688513411 -0.27184710811813184 -0.6259625754188768
Ni 4.090232314635042 2.1227046594255436 7.473176024688014 0.00776138911297373 -0.6134091642338984 -2.6093951148875574
Ni 1.3112537151168857 1.814683926700603 6.582694103775454 -2.1244776024698706 1.506547667547483 0.6279014443128025
Ni 2.59072953760683 8.97016037538616 3.2693160170528417 1.4699693542028167 -0.4803301501573211 -0.40822613310221956
Ni 0.7279952456754883 1.8007220582991106 0.9795148097380432 -1.5019381937999294 0.9342509570831781 1.4042984943675685
Ni 0.5012830311455174 4.607199303904374 4.738671360511012 -0.014491508747955685 0.40973871309200405 1.9960857094563174
Ni 1.4502017004467582 1.6400094283163027 3.9723045928823013 0.6746556697492059 0.9373938735875341 0.5753838340300607
Ni 4.160740694708614 3.0978911010299175 11.741602588834821 -0.6426384934126609 0.5064625855783149 -0.25932069351634696
Ni 2.208582430493181 0.37722455662378584 0.15500980186780047 1.420213108715296 -0.6231772993642558 1.2678824454979583
Ni 8.044048295314772 6.62324397948604 6.728916808223047 -2.340112939283125 1.7018728320484755 -1.6500396494272682
P 8.479737939708297 6.082698625176028 13.611397165233875 0.7673583368912655 1.2197997310581186 -0.5265806964844286
P 7.541326568257517 0.16011844762661445 12.08597707958162 1.151014493963605 -3.30024436367749 0.5852874662970178
P 3.181293899485111 5.447565863353065 10.109986340542015 1.2157145052451515 -0.16091403401097448 -1.0939496306298127
P 0.9233168724529833 4.356443013838328 2.7747371388197326 -0.24426277074195993 0.14985109132859353 -1.7776334720195577
P 3.0159052716276493 2.70469163530345 5.547152337684738 0.9707081714689477 1.3196302674942113 -0.4889744560958804
P 1.697434460801196 2.598617332001448 13.019235406909928 0.6164363810959964 0.17426962938227408 -0.9733885465145882
P 2.9890678777652404 1.4678760277669156 2.2761775221939375 0.10369181916371174 -2.7145056687756672 -1.818031159110314
P 6.886479043678183 7.604570620319758 9.342652255373174 1.778289360436002 1.6769704123798408 3.1694132650948257
Ni 2.787933843932645 7.679622747823044 9.90301344956533 0.12087630136279827 1.2029677471024445 1.9175734748820266
Ni 3.317445732550544 6.015392595162068 12.605883807312754 1.1591746611768938 0.47089522999666644 0.0861700082298645
Ni 7.6044950486369345 4.125495951132181 5.681248620977394 0.805432775165484 0.1361478828098881 -0.18210223805281542
Ni 0.48881086954166736 7.446021229757749 9.343730096499433 -0.04846915124498104 1.1633647879988418 -0.6439387002813233
Ni 0.10965167783762059 8.683819269170979 1.3820332086025842 0.9542119735861372 0.7624462443016289 -0.8560999625030482
Ni 6.033369209213516 6.30436926381569 8.2390307941656 -1.6461153746721975 -0.25881752862768326 -1.7387771612739926
Ni 2.7797626557274415 6.522582497966214 8.013006281949316 -0.4765750539902632 -0.8956646121695478 -1.0268309826044444
Ni 0.25743966076567754 0.5531412645444841 12.570545543778827 0.28805354267466515 -2.20039250863063 1.2369183930162764
Ni 6.958517750328915 0.20962451239772487 9.279301458308947 0.564631480609563 1.539837025728232 -0.20473514496098288
Ni 6.99979878207081 8.983442098642247 6.79615198978436 -1.0236759819152306 -1.2534644703004154 0.5614253149674395
Ni 1.9325851983643556 9.111649458550945 7.5721276968839755 -0.3555647981527618 -0.8911836935800589 1.4161942173638902
Ni 0.14592136236233644 5.570908296180051 7.611407023677105 3.1956022647853675 -0.2241325756509882 -0.928817958993065
Ni 4.905490182465893 3.4849692604477474 4.163613363301912 0.5980979877981248 0.8999845797011403 -0.2670980234689207
Ni 5.413927018036613 0.18795527699435313 13.327469629638841 -0.09492204339088169 -0.8387930957934844 -1.8008700739499952
Ni 4.033119015341793 4.99959582050085 5.6719438575298495 -1.5613227064058337 -0.04696762699879008 1.1076078448431959
Ni 7.725079115040893 1.8338413482961555 13.436085030775756 0.46666576529635106 -1.0974306471998778 1.4657573730039983
Ni 1.6751502608288547 8.304430528480358 5.365618764438243 -1.7241198163721339 -1.794547217055761 0.601835600463686
Ni 0.5438468922033283 4.173701238312706 9.327692840758422 1.178223964498861 0.6557099818846385 3.1240618335432195
Ni 8.011835865511598 1.3845393545341917 5.8497725290259615 0.9250453793245101 -0.14449445500237051 2.195304552584761
Ni 9.320746858460982 6.899543498346157 4.1778397325932835 2.951243591895491 0.3689913559713129 1.8709804576138358
Ni 9.090574405503766 6.340416956522114 1.891030219272228 0.7006569789089739 -1.1513006577454559 -0.8444610927125392
Ni 2.8963792087832085 0.5726888249526088 5.703314607715584 3.8335981172196947 -0.07583545907307586 -0.8196342634768465
Ni 5.189668049260274 1.4481801579312514 3.02433529284652 -1.4049919208901673 -0.3006426921935854 0.6822329678758315
Ni 0.6461359988419481 6.150174691476339 11.396979656180745 -2.3145474321091943 1.259891713982998 0.06655454799178216
P 2.5742076784497185 6.921024749188507 2.194106674648494 0.5509115599203093 0.40067454600720676 -0.8523556649692675
P 2.841750328562755 0.3510663632607462 9.350767709462296 0.8363076103674694 1.6493145983357853 0.16213736489511432
P 3.8986392057588115 8.315945763650465 12.478023132499004 -1.4980954230150716 0.28502684003319945 -0.20089365972770562
P 6.679677133633886 2.416508469319466 4.623322522434595 -0.5004911984862284 0.7958883260101584 -1.63756722799187
P 7.958009934421137 7.943358474413887 2.8657944040988292 -0.08956180752023286 0.1419871151994845 -1.5771630158722
P 1.6959513665258006 6.21731068520395 6.114053316379164 -0.5927688622757274 -0.2262668483851716 1.339108687933797
P 0.8788542728642524 8.296306572576919 11.427839352861392 -0.15223244707657654 -0.21656967570206576 -1.185324065878752
P 5.983340755184894 5.5798824335152455 6.138082277578674 0.7503070378359337 0.31891115148547017 -0.18139801289693921
Ni 4.50751080780089 4.649056569727792 8.137646658428782 1.392816204759582 -0.2898918814349846 0.7878747116770624
Ni 4.9831023007247985 7.063477371309281 10.766368914928684 0.3263174712518703 -0.18524566877780355 -0.4917862145130627
Ni 8.727972024860136 2.5798283223596563 4.119121479686087 0.8461238251269427 0.834851337536917 -2.8444921599698496
Ni 5.769567357400203 4.597526128503069 10.532587914116686 -0.3379260020250761 2.0825434241299297 0.7154881303845355
Ni 0.3761306565149274 9.21587225562379 3.6377326940436427 -3.003018410474938 -0.1644557286156458 0.5439626394063019
Ni 7.3276570815367075 6.117272670067409 4.092133887104068 -2.291902441016169 -0.987806521712131 0.046758339201461406
Ni 4.267155070583318 4.853317381937177 1.8024205318705506 -0.6567582206434948 1.18114885145514 1.5301601647601002
Ni 6.345206311921003 0.5083083637099219 1.4260952782723548 1.6765042713766996 -0.08245990636812896 0.7322748629245711
Ni 4.774590581356637 9.109958542147787 8.010006086141255 -0.6479704471485356 -0.078309117424549 -0.8637744483291704
Ni 2.627372357315483 6.317839916278835 4.292165519013487 -0.24188887119314473 -0.3624306720346597 -1.8726737861558587
Ni 3.3126091448498913 3.3620802577176963 0.5115173262917805 -1.1681334130320786 -1.9281458510812342 -0.8690552371121355
Ni 7.355467460815459 7.078194956539 11.795067665139808 0.2954056121643622 0.4842045455110629 -0.16963110216899818
Ni 4.891008758744995 6.511832426084686 3.5084474930086866 -0.24271419530791746 0.5049235232259691 0.3851222000949045
Ni 8.757000997524402 2.404520911131716 9.062623273965759 -1.940538825428948 -1.3221046971766328 0.6094208690101118
Ni 3.6265055759142966 2.516640949059533 9.46780368535773 -0.9437403846308521 -0.26131586956950476 3.1063037382288505
Ni 1.5512127009996393 7.495822968737904 13.275083339106153 0.1260745577342861 0.5389716139496138 1.1309133523383557
Ni 3.9602395737196585 8.628888102219234 1.298422588019628 0.5382540190572987 -0.5297796630377005 -0.12482603003916568
Ni 6.363740267133268 1.5641071193812612 11.385172525385736 -1.0727845665164233 2.1048749977475945 -0.3020161755023444
Ni 8.326960336421873 5.814286900710531 9.516898829103491 -2.2390403029098147 -0.0019764070000804672 1.4009781717450838
Ni 0.6768398289267726 0.6920722462457215 10.124296783330527 0.953739661935409 -0.8479876178085589 -0.17627071897270288
Ni 2.9581968453321705 0.7851444415180787 11.841411999630822 -0.07398349346600161 0.267998423796003 -1.4892138042547256
Ni 2.8449526786223664 3.267917940920622 3.09237247889179 -0.2145791276345982 3.10619549478576 0.3860547392115029
Ni 1.9939777441974402 4.56289540484957 11.627968283312445 0.49067806905054856 -4.077360551286469 -0.25296364095006757
Ni 6.063862383232473 2.7723755237315233 9.419938470749905 -0.37126781071031545 -2.142142623849801 1.1104599695800104
P 4.944088419467582 4.671586377669308 13.50615415044292 -0.297034663127353 0.4383957147070644 -0.32665685686916
P 0.009658061064740067 3.4627039533961113 7.366274211459103 -0.13799213510747846 -0.6962056280058397 -1.4980509429303814
P 4.711072581944165 8.653562256660843 4.464435893237991 -0.26099551011560856 -0.06435265524445692 -0.060157129105870594
P 8.036698949160265 1.8757363999609855 1.8224961494123988 0.03195289875751271 -0.5941911965445509 0.4140910765234288
P 7.82261381818393 3.930568241751399 10.995366228218007 0.02044489811791318 0.1712634955660986 -0.9286534083907425
P 6.33467350862759 4.72324906933897 2.588046742866624 -1.3340688115170445 -3.015725573628961 5.471270246220545
P 8.914974154004888 8.798773245204647 5.73117410858817 0.5122326552928728 -0.6487245517057408 0.6156452526532689
P 6.259781970950302 2.031461298877496 7.534507168528804 0.7200335836633729 -1.477067655810495 -1.3871068130796302
