# total energy = -340893.63018488255 ev
CRYSTAL
PRIMVEC
9.07436091745734 0.00000000000000 0.00000000000000
0.00000000000000 9.07436091745734 0.00000000000000
0.00000000000000 0.00000000000000 13.28124445315999
PRIMCOORD
 96 1
Ni 6.311717118020677 1.9431110550797612 11.272841744937935 -0.5099150629032895 0.776222986370747 1.5346256567306218
Ni 4.424749134026873 0.36118134355774334 5.889860060091467 1.2031438676689923 -0.3886579811623049 0.7462565219156438
Ni 2.7867816140057076 1.4636490465184564 4.560473443049918 -0.6344112204068623 1.0562534016306195 1.6166515608851255
Ni 3.502884806950336 4.126438592750034 4.755682002854063 0.17106552062267957 0.023283653118288932 0.46323102858318926
Ni 5.155198891604911 4.623640976933296 2.6059658980757234 -0.980134864099486 0.08837935717635748 1.309386735389332
Ni 7.291149190849487 6.2791946084405765 2.514950057928291 0.4889965675830676 -1.5826942301030744 0.5549229950725475
Ni 5.170398446165923 4.959782528935424 11.544270399389973 0.3083616581043979 -0.6652649725629252 -0.3037056473896253
Ni 5.881719450899416 8.04356797624377 12.542740481454011 -1.2961440114468128 -0.6823692363433796 0.3358498362223377
Ni 1.7751355598684828 6.572831853837463 0.4188489072802691 0.913444561860788 -0.15074634944935328 -0.9777455379317032
Ni 2.742126683859594 1.674546268937846 0.4704312045618309 -0.7698782750996419 0.493706314353911 -0.06259659178529865
Ni 0.4479358638115333 9.217009885797616 4.931060361713625 0.5069809199756301 -0.8994783294886831 -0.6708188125016189
Ni 8.753273744731377 2.3452776572227383 1.4099633123728692 0.2029140325918441 0.9171873167326721 -0.009976394486421528
Ni 6.864309401332545 0.4758368013689919 4.621953145799954 0.2791117601003451 -0.15464182784901753 -0.12046518196730865
Ni 0.7167365833376792 7.347038179829352 2.533410937808245 -0.12833507163368865 -0.2089332422027305 0.5196993959835631
Ni 7.5649680319709995 4.045540665041724 3.9840010715095358 1.3418749378250245 -0.3612981010921133 -0.6541742619664024
Ni 7.455631057101965 3.6915407707255232 12.619426998253804 0.46640865498022255 0.25706532182326697 0.18935763406364808
Ni 7.988913100350651 8.72579657982944 6.745916214253427 0.49271232587175795 -0.06561506689664828 0.6411282274157216
Ni 6.830806860771795 0.9938875297934032 0.42003674112626094 -0.8301729582246412 0.1272976315081098 -0.6964992479868586
Ni 1.785307918473196 6.723339204254742 9.260268271796303 -0.6982185446708105 -1.264232764560513 -0.047484161623892414
Ni 0.1409692896417097 4.958294333742584 1.132414908908326 -0.8000527418004932 -1.0730288213167456 2.1468366868913606
Ni 6.571389030449283 1.5969332598869 6.834554571836689 -0.2668519688963856 0.24192538085803497 1.2128952906288015
Ni 3.364627843791186 4.459640051810211 0.5064800108000851 -0.10414356198914967 0.32518695719185287 -0.18433832647218573
Ni 6.060484361258781 5.599361636140941 4.967371416982812 -0.3797889608074491 -0.43109943815596724 -0.14761217469574578
Ni 5.353573495938214 2.9952832051390628 8.998388567352952 -0.18417531853176022 -0.32274723740210864 0.45252418368864644
P 0.1931287162785434 5.503717871918215 12.427207532940642 1.531581213477343 0.18682149790535565 -0.42897647827569346
P 3.9093798792578522 6.303550193181923 12.630290823161532 -0.07880842565847072 0.6724015836077065 0.9036556007948244
P 2.376584202437957 8.328720694169286 1.445451323105529 0.17964092099651643 1.301672654574526 0.20023648575968095
P 6.350092590401881 7.5950313897385415 5.698955469677343 0.01973707341761117 1.0942519923615799 0.599286094568955
P 4.627751662435469 1.1202570801317027 12.607340856928543 1.0405534743968596 0.6569495107186943 0.02058476612988713
P 4.055849139060416 6.143296979123733 8.111440566270364 -0.42256029033670445 1.2226482562505072 1.3215562808723305
P 4.788168214990435 1.1087144930262656 3.6992784782921944 -0.11919351434373665 -0.9067833477905287 0.2061024576221547
P 0.24268107901962857 5.480124533495152 3.6363114877854117 0.37665504316415777 0.08341044320685635 0.11747241788757187
Ni 1.5128320827696113 0.858539806749035 2.711804706805492 -0.4679497742150973 0.4983389280299159 -1.214591704494618
Ni 2.0220942926314316 6.220537939376468 4.845263186538155 -0.36618422553982094 0.360159873722612 -0.08612090015948394
Ni 5.8592150357881865 5.484516524186215 9.244914453099447 0.37375381035696276 1.3885944533687502 -0.25959065934828196
Ni 8.594545023309752 2.3660851668396936 10.200341211518884 0.5979115828189316 0.37359285929906627 0.28148874497295395
Ni 2.4470193919917325 5.0676313086116185 7.145814226163417 -0.575166575812932 0.42571297703307326 -0.821626868426843
Ni 0.405992352711886 -0.14733495383547082 9.093455202220406 0.22216825283576577 -0.20004031058847485 0.6940685270581788
Ni 1.5381767728525404 1.3279873505858428 11.39907971704272 -0.33715415685605804 -0.4971266528893697 0.5419042142153764
Ni 4.249795455258927 6.925053173411 1.629621830272054 -0.22159309705858612 -0.14664595412773454 -0.41980895284381253
Ni 5.881882789396191 7.946798991265483 7.873281241303125 -1.4788980241510143 0.5757039363736408 0.5016579651008198
Ni 5.619769873876891 2.6850852510413725 5.058706674635049 -1.9144007335809996 0.5761168555413433 -1.1137694935692173
Ni 0.8681667962617379 7.322083687266495 6.7089009885759205 0.14784460242152606 -0.34846675365539986 0.8782304758535003
Ni 4.93488248253816 4.542924536443624 7.013334001173545 1.1255114645964939 -0.5742412357851852 -0.7343674837875417
Ni 8.079293735232847 7.047584269075087 9.210862006266222 0.11256752438678677 0.3380573853966178 1.0398888442296672
Ni 4.569666678110074 0.39859311880797604 10.276907039318285 -0.15515990513601666 -0.7050175698705148 1.1448754709454025
Ni 8.223367363749375 7.063391805818539 4.674626181265536 0.38967356691101274 0.3905927362911724 0.3927198099365043
Ni 7.302174539381803 6.241191184857581 7.237999751434978 0.3330234225171361 -1.9353233426662797 -1.775554478003342
Ni 2.392237475045566 5.213419991344286 2.6197652787449357 -0.08194542862555565 0.9364479647344969 0.2828642851642419
Ni 2.286820624099133 5.234000641937943 11.516273273606636 0.09079105194164364 0.11046770443496459 0.060794248469237235
Ni 1.110220836940969 3.3081490213507454 3.693420978310623 -0.8787994609830929 -0.014474282356775073 1.3510936282098152
Ni 3.599608420123964 2.7675711919127743 2.734302769864069 0.6906307050212235 -0.19960887947801106 -0.8509181611917925
Ni 1.1064822002370067 3.4756435754326307 8.276327149020407 -0.24236298261608583 -1.2208965636667233 0.015070264069561141
Ni 3.534245798331147 2.595675572778895 7.296808869762743 0.2308110161124283 -0.08296435680837325 -0.6235161707609133
Ni 4.11420635421377 6.877585191375984 6.058518854680921 0.10108369211690334 0.8296952472572743 -0.1508067703736435
Ni 0.560192060592375 7.626401455480284 11.518265095831199 0.8114946650888476 -1.2123959823948796 -0.07047368054053024
P 0.21129014224774292 5.498772345210304 8.064597807703558 0.45785870852768246 1.1755788135665302 0.2565151057467518
P 8.546750364281186 1.411271835219256 8.022854839980507 0.205405174444814 1.2823749826871786 -0.4119488333694454
P 1.8502258965803478 3.2739023831935756 10.399281148538249 0.02690530903127624 0.39934220034902834 0.38054435091623495
P 4.1298959242651065 6.120865158899958 3.948035749391855 -1.454448118638766 -0.899389883539935 -0.8524438538076997
P 6.920751926329258 3.9940345923919898 10.396491689987766 0.18063336681677278 -0.4556570728906733 0.36888105564569373
P 6.196690518847311 7.868087984541771 10.097597667303004 0.19711876606630568 -0.5106493699661528 0.9943039565110167
P 2.399651227926967 8.619145615796262 5.741335457537818 -0.3048616153709395 -0.9508194029648206 0.7713196355318588
P 6.971232596193681 4.016148809983146 1.7382755057629127 1.2605846262849645 -0.23983147444348374 -1.1761418851588519
Ni 5.194917369404045 3.0142576938477648 0.5105770847608594 0.4616035202820954 -0.8518617560519844 0.12430126788394723
Ni 1.6504719893853894 0.9667098188022207 7.2932626095105375 -0.7996418795153195 0.5670632299795072 -1.4094813241200888
Ni 6.751859920663853 1.0244862748559298 9.260454296195407 0.8138878479113725 -1.7743031220947443 -0.9476052669028971
Ni 2.7116368311282506 1.5754088757563205 9.337976561637033 0.36458037138781085 0.0034612190757230717 -0.2557126644501145
Ni 6.4745202275007445 2.134462104051736 2.7636810133812486 0.42035068427989536 -0.08954175291557483 -0.8340836061329571
Ni 4.013889294111091 6.952702751170644 10.483563812874175 0.25102734315930314 0.36049694534705656 -0.2133174873133552
Ni 8.08201604351243 7.067257483575548 13.687119027815015 0.47502956388001416 0.9792226366978619 -0.5011658559557498
Ni 7.660139929425265 3.7039000503148354 8.268172020850866 0.12629053039983412 0.06486841853861086 -0.7342728671912064
Ni 3.115690900345073 8.62398225017299 12.470318006856138 0.10912995946014754 -1.052113154210001 0.1911005848966838
Ni 0.27113464515784286 5.0052360028435485 10.209253141390151 -0.6987703034092224 -1.160340142239905 -0.07592210524961118
Ni 8.707085247587765 2.1502968638779847 5.8089240200672405 0.523132332924512 1.4363457526111005 0.11573280948864584
Ni 3.7782916612349404 3.0173974227302187 11.724934573492394 -0.576972004452787 -0.6646152547940682 -0.7367115585396861
Ni 0.9890418210557433 3.2864522243624594 12.67159549925157 0.23816617092591885 0.9154086275656944 0.10549699069325057
Ni 3.1594111713151953 8.261770059213378 8.297258069946038 1.291933315799575 0.8690686068485742 -1.0688844601310687
Ni 5.586503266700372 7.667145336064728 3.602139259387884 -0.14022025310704883 1.081869045316195 -0.010780378444955628
Ni 3.092233677335989 8.297278033540087 3.673817636389337 0.542904887565749 -0.7617132227903463 -0.38642343540483126
Ni 3.5241097371701615 4.449612882980409 9.39318678841919 -0.4471999432622556 -0.1827254734591111 0.3128502900033709
Ni 7.572590495153836 6.156772405107674 11.519035509074321 -2.329843953256949 0.08787722072895833 -1.0612912211648433
Ni 0.6366989050457167 9.117736377202112 0.1372415421708657 0.1364193913037199 -0.02400381911376511 0.4758700575034385
Ni 4.384549715098347 0.38860133998580876 1.5876129837736968 0.8920591542064765 -0.41041774143689963 0.2748840951722427
Ni 5.915494222288125 5.426050416701678 0.5010943775869744 0.2576587324328917 1.2102457688210964 -0.9517838237606189
Ni 7.742226598415661 8.884298442227765 11.32426614833928 0.1293912808123449 0.5502137625223363 -0.06926346228251297
Ni 0.10361196055706864 4.806289713771534 6.060046069625767 -0.24450676843196603 -0.8158897088327497 -1.1019264781877023
Ni 8.213031666647888 9.113743658392055 2.0879178919595915 0.23939438690606513 -0.2603257377420936 1.196438944844991
P 8.601949701830222 1.678148790227829 3.5649652323940684 -0.609523198915931 -0.5480128982162755 0.48509980363182253
P 1.8161244481980894 3.357322983240968 1.7036250585442716 -0.3508090286353313 -0.9548496071701362 -2.412028494476504
P 4.865490844491559 0.9371455508859362 8.170037344552322 -1.1803165853618316 0.7433863994567004 -0.8470224256818123
P 8.567503427732548 1.6575227678295126 12.38733660587785 -0.584845750773909 -0.32808356201335753 0.18350348927571625
P 6.467451300334758 8.021190602185587 1.5653145566556224 -1.4052444032206057 0.3534806619302235 -1.0718294016920058
P 1.8535561870423725 3.1352461481534193 5.945548505694735 -0.16397133278005954 -0.07055055652505268 0.410408485465519
P 6.978083738697302 3.8676196702490304 6.1050694188257175 0.5109013380759588 0.6216770606696455 1.3413015818200575
P 2.1730825841781045 8.562113257338972 10.402840112895758 1.3507588705782156 0.2703610104909086 -0.7098900674714678
