# total energy = -340876.50466167054 ev
CRYSTAL
PRIMVEC
9.20632997661774 0.00000000000000 0.00000000000000

0.00000000000000 9.20632997661774 0.00000000000000

0.00000000000000 0.00000000000000 13.47439451087374

PRIMCOORD
 96 1
Ni 4.3488308282463315 0.6944537099892096 8.681646325189886 0.2057018797496264 0.716932833250862 0.44422286291180274
Ni 3.778332983816348 2.847895263584677 7.201309002800497 0.430419124259491 1.3112127328544774 1.1240153396669417
Ni 7.543629804649982 0.4432424302740009 6.30489787747286 -0.5073724989870939 1.4249647644676686 0.25275949535906145
Ni 7.632047395953648 2.539814643490355 3.5561078334451204 -0.8534321858628978 -1.5486885625815907 -0.8189449507193057
Ni 4.085308844335864 7.932468349662646 0.6818364350119424 0.603721247522173 -0.21799740928752778 -0.6594465661089353
Ni 6.278376282613676 8.314954527120173 13.12556933383767 0.4862758262177948 0.11233869620543233 -0.9394384148213887
Ni 9.013494006270209 1.0317994112201507 8.157842985455051 0.7090153781759982 0.14366733111538482 -0.6441127639653423
Ni 0.6774873648191215 5.156603410355341 0.37023623503888337 0.2452295055306035 0.9713398915156756 -1.1729758287260446
Ni 5.1088041460853875 9.282282010820586 10.84717026600182 -0.012630030059184701 -0.5660553575402831 0.9240123100743055
Ni 5.021914805526871 8.64297605753975 5.646835868510749 -0.282182685716185 0.6546139206069823 0.1798206411074903
Ni 7.127899570320575 7.435446223287073 5.646498916840434 -0.8048154532964591 -1.7513454848573062 -0.03072493988768257
Ni 1.095111341186343 0.027564672024396643 11.643870395272334 -0.613858078845859 -0.09221749997552504 -1.3230079257171925
Ni 2.450135785005452 2.8240324567688604 5.134174949720815 0.6827369040954435 0.7318575728814944 0.3604632638956437
Ni 1.7063195759479386 3.7186023161384867 2.349880694857737 0.7748950115879429 0.07435784608628485 -0.09546120372380333
Ni 7.45057222313213 2.9271709694068204 5.933355264236767 1.1214406369612298 -0.9874121144871899 0.7079694534099872
Ni 2.5510003341852694 4.131708746477729 11.043909533615244 -1.619654095156875 0.06722432036529713 1.152508304900312
Ni 1.520029492646223 7.83174189542968 3.661437452573113 -0.5246544259959932 0.8802680751088195 -0.03492612245322372
Ni 3.207540536833084 8.221639168368199 7.5596064693676395 -0.27570736240448646 -0.5063088336092699 -0.3608252752207528
Ni 8.937983689332198 9.15515180274975 2.41944832591627 0.7819817432313952 1.013943070898183 -0.3844621979134024
Ni 2.977170546496596 6.968317049739802 5.21546684176698 1.0667296185715953 1.1882787776317019 0.879007463228841
Ni 8.436358398061598 4.36951745128458 2.004518121645618 -1.228162244090201 -0.20294154339566983 1.2139057341711867
Ni 1.9409981286261706 5.287278055395348 3.995319732537036 0.4615310151729471 -0.4676119312597043 1.732809887946964
Ni 7.666304149102434 7.894418588640359 7.968379480274705 0.001510008886623206 -0.49723438211182747 0.4793428465433874
Ni 5.931997330592735 3.5789514995531784 1.4941624678351122 0.22924290029436 -1.0358748379742675 -0.8138891334629532
P 8.754032013797154 8.678991219678435 -0.34724342638822686 -2.1987212915757937 -0.4113957890794528 1.2965936973897216
P 0.6262854410587647 6.660227223315689 7.716394868857131 -0.023742337922262335 -2.126046489618887 0.5714469608694998
P 8.172974509097982 9.095476373050627 9.819788051814935 1.186849244274027 -0.7061051465077388 1.2442210973252765
P 0.18822341255762645 2.2097493078573875 2.3725448375348885 0.21831442630731432 -1.4186797027899052 0.4731511159103786
P 2.960525502236181 9.348383458713164 5.282110542484191 -0.6223632881033927 0.23958927652569062 0.02458565975916411
P 5.070413750860868 6.747825451268041 11.995121337018169 -1.6099216983604596 1.2937256318133075 -0.7050111421126115
P 6.251889671807694 7.270376730151429 2.2083996599101656 -0.6098443297007755 0.4458701687072386 0.11483446604409256
P 5.5089572704100265 7.519012078791381 7.419702478713105 0.5147001429967587 -0.24514388779533264 0.6515854181933036
Ni 1.2059463455287869 0.7355572106028577 0.3630865993239285 0.13603603982237214 -0.7137053274524999 2.274521269425244
Ni 6.001993055986506 4.724016386180347 6.301273345434516 -0.690629676579959 0.6759952144962358 -1.0830203853118185
Ni 5.4686427522593855 5.895438994996437 0.5357706478289251 0.056149807718690395 -0.04693831642275142 1.0827123671530965
Ni 3.8620829659164575 6.090705249843452 7.40165991359056 1.7902241642003751 -1.9643436411580297 0.05506017419893744
Ni 3.994801416169856 2.9603874072893306 3.2323451511864225 0.3918132389618349 0.5107627556155655 -0.9774475470753101
Ni 8.532288354473947 7.126757985426608 11.633468163242553 1.3515726247287625 1.921727606259716 1.5139601579614699
Ni 6.829439564856858 5.686722292326153 11.998948408311895 1.36841103644234 -1.6834297948519397 -0.040588462945323645
Ni 6.87179788822089 0.7424914182007253 1.3450558299224402 0.045045470275412745 0.06258039383538255 0.22057725419956203
Ni 6.951985020692248 9.188957445738822 3.9104171179472127 -1.6044717309894818 -0.4550808886722292 -1.0133928548216675
Ni 1.8370954906156365 1.723038270846674 10.037075847519757 1.1669381071723965 0.421801557793809 -0.31015217434591746
Ni 0.14013875206418144 6.517621174867774 5.4386430060055195 1.0599478197630712 -0.8294882734527907 0.3540177653806161
Ni 2.878994245615475 7.38930409837933 11.81060255156806 1.146655959884593 0.6377636818188629 -1.0014238553852497
Ni 5.557032724573681 3.2031491175232287 9.081310593402673 -4.159403681832153 -0.6797477395601326 -1.811075296617771
Ni 0.7992014890744706 1.1318169780592828 5.264930610462974 -0.22229757932477842 -0.0789737475917414 -0.13639188049989415
Ni 4.39403390751549 8.219761077091029 3.227790779839284 0.0347595149683724 0.8544644837821542 -0.5556763282988042
Ni 8.796887478969849 5.894177727815199 9.85142560413845 -0.11911920946237549 -1.1449160943753507 -2.889264064868901
Ni 2.0673918303138037 5.11109652220311 6.582592085462133 -2.330762094195844 -1.4552564734726745 0.12167719999753882
Ni 4.7604274205000054 3.846146809049876 12.784182053828896 -0.3132845493273121 -1.328573335620112 1.626460062335115
Ni 6.690359540718533 7.592303670249991 10.18239776325574 -0.1647632325537356 -0.6184819507711155 0.5756769397904473
Ni 5.374572474464626 6.316306361348693 4.264268847858739 -0.48694251326751614 1.1376226460377312 0.448046607533267
Ni 9.184004440311773 4.069796178639625 11.467032450766064 -0.02912828482452403 0.43043018000308453 1.1123067929807615
Ni 6.324941898691763 4.48850005749122 3.4961875153735837 0.8214116670922434 -0.14475490775260877 1.6001597338776894
Ni 2.296629442086114 1.032001950475532 7.426318147300236 -1.570316939484644 1.2393779103003622 -0.7610095118551022
Ni 6.749703542545212 1.3028889982180414 9.29492046035637 -0.6404947075967807 -0.41759317613941627 -0.2494949656751768
P 8.012213578304083 4.911061388524847 5.057129016973821 -1.6542063792104478 -0.15187377818557715 -0.30827064105248847
P 3.9310015507247913 4.95538066013416 5.382845282413969 0.31056560773425224 -1.1992933835746509 -0.3180200071297684
P 1.2828836435842568 6.0008975027414895 11.372105984300832 -0.6685030198842488 -0.8812535789505405 0.7851596267387445
P 2.436593273884285 8.701454664366164 1.7808705933218267 0.13517009227765106 0.07818724713470404 -0.1888778662137521
P 8.809951260941935 8.535915648411226 4.688913571323855 0.7977217796744712 0.4761217685029284 0.2831954432514155
P 5.747299942344698 1.5947388588925002 7.283058449437227 0.5565587309037575 0.8840049164434324 -1.1918325564212313
P 0.716043473979862 5.9526931599607735 2.3948849174034303 1.036573663813505 -0.3076296650343799 -1.4135719492496945
P 3.4262092820064143 4.30146426147651 9.139452248558772 0.4522817286605372 -0.38060939982621544 -1.471011422314086
Ni 8.58574030523499 4.637421648175112 7.324734583763816 -0.17449434379857046 0.977269112515917 0.4254759213216028
Ni 6.601555283563685 3.1624295208618256 11.451510578740034 1.13921595866678 -0.2861794655804039 0.040654026075936434
Ni 8.326287519091728 6.915178114191618 3.2046147652258052 -2.448416546187235 0.025821074828161983 0.72828553925952
Ni 0.40989710377443017 2.941983954039015 13.864343236069173 -1.3270304166130245 -0.07378628985353099 -1.041108318459065
Ni 5.182104943873786 2.4975115581050633 5.230476841856681 0.29765044233448096 -0.5647749481659629 0.02411771898381008
Ni 2.9481706076579304 5.454446591723124 13.288447720483283 0.4489611489277365 -0.10901888780357999 -0.432560596082526
Ni 1.1384363291783308 7.400600265031724 0.026194770151636806 1.3390994319624163 0.15517636019624886 0.470414433705506
Ni 4.439789366572051 6.923666350258046 9.514740917386437 0.588813220062089 1.6803167031442543 1.077141043712906
Ni 2.830541331930428 6.498251056989504 2.0890837845651253 0.197303371273286 -0.9235829358463706 -0.1192444221863301
Ni 4.865121802872483 4.830616478819366 10.816852901370197 -0.0848363770201055 1.2056357808529108 -1.6917601690945057
Ni 6.129288977993564 5.571946978833567 8.502046481746603 0.9140107187769033 0.5116952947321639 0.4307142869024066
Ni 8.85634195675401 2.1555792633727178 10.216325850431021 -2.1189857261173635 -0.521838810924069 0.9151463750432433
Ni 0.2600327849200371 3.424027381846172 4.306362949557797 1.5300809747827329 0.9322825205028975 1.2704095827951862
Ni 7.981068564624334 6.784475850162241 0.7668900334103228 -0.318717033196793 0.19426227045411706 0.0811715265740086
Ni 0.9345805686371949 3.717911841404233 9.029622575429402 0.6271874489649133 0.6881758157228277 -0.9972710095591405
Ni 1.0686523493697317 8.245584832152126 9.336488880624415 -1.2954554700202205 0.9433866008358591 -0.5919767053917353
Ni 2.260402534362257 6.267429956493303 9.311291155989041 -1.0679521781247865 -1.592942904414276 -0.09539229815908087
Ni 2.2801961434108704 1.2216247251612466 3.1205480853809187 -0.42153699127851274 -0.14843955569304756 0.08451987422095121
Ni 8.038727808099434 1.3568657097771197 12.672533209933013 -0.8717520672180084 0.730709061099348 -0.562074004295032
Ni 2.8848678840215287 2.6557775735258584 0.5756276113890001 -0.10179614480289566 0.937096139841457 -0.7940098780405229
Ni 4.08639519125109 2.3379106248647106 10.8170149327745 0.5999011024451345 -0.40966157999716546 0.33734878936536744
Ni 0.5242636562243382 8.480125289883508 6.765951793991675 0.9691529111666857 0.5325248298830055 -0.41650817060535367
Ni 4.403442776560923 1.1392741051892255 1.1684452817619864 1.5014820800991173 -0.2504521873821235 1.0617072256563391
Ni 3.3984706103489857 0.47570394911372654 12.59137665093476 -0.23911002289642688 0.9268101845344167 -0.7529079657938904
P 7.25999199014825 3.9971766492556897 9.501832722387803 4.848954009305004 1.3548872909242924 1.0205130108062166
P 3.8998473307152532 4.4796159492438195 1.572987063497543 -0.16570631319329526 -0.19488653430167727 -0.3073954375363867
P 5.830884210508587 1.6567895216774553 3.0672977532422747 -2.4739794822580037 0.1952709142242895 -0.4483206871302602
P 0.46467568665822245 2.695723838484897 6.892328003652707 0.4856289366624152 0.5574061665057175 -0.23630906311252203
P 7.62190202052501 4.111546884237514 13.460097898152856 -0.2260580748084752 0.19807547355262017 -0.7473762373423838
P 2.875145999763233 -0.11367331581671711 10.14681161608527 1.7318786343819463 -0.8888884697879789 0.3890284771278461
P 5.580545690857475 1.5121120490267779 12.590972493056977 -0.46231700140935217 -0.6700495384357621 0.5404643964450563
P 1.6092572409714134 2.1973944132791368 12.261928139397728 0.6420774787028684 0.5496769161822599 -1.8399367009341538
