# total energy = -340865.1683888118 ev
CRYSTAL
PRIMVEC
9.23671733910514 0.00000000000000 0.00000000000000
0.00000000000000 9.23671733910514 0.00000000000000
0.00000000000000 0.00000000000000 13.51886948747585
PRIMCOORD
 96 1
Ni 7.4021666630600755 -0.031215485987149152 0.12310696766880423 2.452293769754454 3.4925148005125597 -0.6138609070593364
Ni 1.7744380430635485 7.624235819474645 7.165785213247935 -1.1587532573687591 3.600407030910864 -0.3193022162763017
Ni 8.606782381509563 9.00966951504632 3.3492318318813687 -0.24820684299137252 0.8451519481319767 0.1176757921476296
Ni 4.352396594188668 7.46945614831422 10.211140131268076 -0.4479931285875124 -0.3243582906429704 0.12068835372170827
Ni 3.932162905633752 0.6858872190422666 10.41500464163084 -1.227610228241473 -0.04687995238099023 -2.4615381711708575
Ni 6.230396711194492 8.462892800001113 5.557674585265846 -2.063419558816285 1.0250111557868864 0.9151666867582173
Ni 5.561492120510257 9.204647379731252 11.663147466506084 0.5660697557179863 -0.367182070676716 4.129029954636302
Ni 3.0081863677575895 4.808773557390045 11.906460148951679 0.2988593750409176 -0.3502804098253709 0.2686244874157761
Ni 7.429008563423636 1.3355554223565231 4.731131559428578 -1.2244608839792137 -0.4423063626153802 0.5404903645869852
Ni 7.669615811383171 6.3361940707141855 6.375417790567545 -0.5420767352374987 0.15688640090882014 0.7264464291682522
Ni 0.345201063219982 3.660354026762961 1.9835693296091441 -0.5724036683558142 -1.1568411279477109 -1.7315405343162373
Ni 1.4423780574923064 0.15058712519517425 5.444630097382335 0.4831761042465485 -0.1299615514935181 -0.8054281471797935
Ni 4.495122349322099 8.466855351706538 8.031032855428435 -0.24058403633879208 0.31914203654935364 -0.09690050727349118
Ni 6.271241474927343 1.3984297567594006 6.9874842415796605 -1.3946627710500175 0.30145207546875824 -0.9801968276856732
Ni 7.045500062702692 6.1271302122046025 2.0426603046214797 -0.8625089513531855 -0.4667608961133187 -0.6940860105596757
Ni 3.755621528603901 7.8603355494102916 5.758240663894329 1.0619381107202226 1.523377594620628 -0.4545247590584431
Ni 4.740606583996004 6.525870059690693 2.3453078114151276 -0.6953574210729314 -0.9809874419077687 0.7804213407228108
Ni 3.8506858226650755 1.7353574923277508 2.944207321970169 2.265051639371912 -0.9975690004155335 -2.280845411871059
Ni 0.9448145720193815 1.2345149722267925 7.79846801718898 -0.47410499518321575 1.1450690750134473 -1.7639135513303041
Ni 6.763253693325767 3.67783913254005 8.947991335528881 1.6054947729373574 0.10975756574181743 1.4464005657439412
Ni 5.600572671246056 2.269202803206068 10.47112139368479 0.1410913428580925 0.6569384549751008 0.13926765938579241
Ni 0.8834125703480772 5.660648280318527 6.803100891594315 -1.5628175457838054 -2.3532777587998566 1.005233716049643
Ni 3.081590559839221 1.4049601158636806 6.6355477641321805 1.7536764469833284 -0.16635628807246836 0.13248508924632021
Ni 2.3666686437553794 0.7441099426319681 12.097522569189222 -0.5279102139291295 1.1263761265896344 2.2001994187832175
P 3.278794473384312 2.7708027341225154 11.055109147891955 0.86478129232713 -0.31573172531622395 -0.1718949585025104
P 8.571608962175619 1.7961720387811877 2.4207699441027475 -0.42141049300297745 -0.03701077289639433 -0.009714141963970368
P 2.4355837912476472 5.982621770639594 10.133906396209591 0.7473728949082741 2.056302745265846 -0.4017484957976758
P 5.1471976411548495 5.508270155646238 0.5037779488468426 1.162170510580424 -1.28519676840669 0.851526998420385
P 4.599848249639393 1.0624626397863053 4.914946851302305 0.31483749563672875 -1.52679639049419 0.7469085536773459
P 7.021152075999888 5.2348817981236335 11.176279175950903 -0.09540926743994536 0.09384552249725128 -0.4101637164445646
P 4.982821020759138 2.923125438491232 7.968237956794011 -0.41344470118868154 -0.9156423408430554 -1.150131320027703
P 3.8674042809094136 8.372945647303121 12.563369014927666 -0.8565730454847248 -0.04917980415876046 0.8976934696741186
Ni 8.946656629884512 2.9722001173045838 4.378301891421856 1.7728363077412308 1.0013510931657852 0.5377997051286996
Ni 4.679468752438394 3.9764437281880927 2.0498529363534495 2.2673746310781335 0.24038451873347633 -0.3587097715396468
Ni 7.24349833393232 4.388669182876798 0.6800246745960338 -0.45880230338787437 -1.255525209484186 -1.5471615844141033
Ni 9.199447107912711 3.398511565817939 7.161782943658283 -0.1954490916733666 0.5906286760042732 -0.5841448680521424
Ni 5.357397615887667 3.0220137334989015 4.555156393166891 0.6691504236602605 0.5854013661670627 -0.13940264230175992
Ni 2.431722843432104 6.074351609769162 5.214714349653641 2.2783984929924634 -2.032401770278532 0.03246917627229892
Ni 6.774919667227755 4.008938499516038 6.697924239474633 -1.0761149164412371 -0.523132332924512 -0.6270313830030233
Ni 2.356951617195687 5.8941247825517475 2.8089097348588914 -0.10026145332592411 -0.0017707187471775955 0.43623161717621
Ni 6.282510269987062 1.3236862406747694 2.76547407193403 0.5912071742155625 -0.021072247289266936 -0.9577909491866473
Ni 4.864637223391014 0.6386534179792439 0.8396369962279718 -0.9887452314763165 0.1983482675980326 -0.23428817602775134
Ni 7.1013360185518755 7.0914804412332515 4.06594844212923 1.769708046524894 -0.3165578207619451 0.6991518551183572
Ni 2.5641496588183323 3.5655760709369106 7.898561703799349 -2.0875642743832885 -0.6486440761767925 1.0561950375888585
Ni 2.0826950082504485 8.43971787639059 10.454398317081822 0.28931981098159854 -2.9573921279953903 0.7144108381599568
Ni 9.080542846598146 6.5915523561412375 10.675432037491314 1.3789667004709991 1.7322347321697844 0.44227525226712866
Ni 7.093512519030906 3.802359317949951 3.002121539203318 0.12383769798396738 -0.6692095590329701 -0.4484371581034664
Ni 3.8968971191271873 2.711687743645298 13.16501275418127 -1.5966797457488888 -1.200553481233997 1.5153495821098288
Ni 2.969595363036681 7.92151032783695 1.2068066677840497 0.9312062567195833 1.1320870609314828 0.9862718302351595
Ni 2.4024055028423095 2.283935367239062 4.376260576906939 -1.331326987105849 1.8403398499098433 3.293926134768946
Ni 1.4628466229450432 4.152070670208999 10.352763946032141 -1.4042038777712333 -1.510677116334824 -0.48638715498467844
Ni 7.9110913107653404 1.112895116037181 8.604719822544943 -1.1557892896444288 2.9290295176922974 0.4979041544853425
Ni 8.955172883200136 5.184449321872758 12.491219169050224 0.2228431674156033 0.4596906195300986 1.0688461506939657
Ni 8.039176869038398 3.2840778756582134 11.411858878704697 -0.3804253088398674 -0.10678228516357739 -0.9018283177780986
Ni 5.4223779218262935 5.7469931132843115 4.928722491426949 -0.438928961502715 -0.20177914765645247 0.9949081657539188
Ni 2.5621822380415122 3.6488450770544283 2.4094549654567174 -1.0802963015124363 -1.038930594081456 -0.6748256196681669
P 2.5793532954316913 7.753309706494743 3.872804989492543 -0.4176805936469 2.0503336721666043 -0.874428585608907
P 0.5240072833224915 5.95205747321942 1.0368963300766352 1.6428133068821578 -2.215314420047785 0.1527183855740596
P 5.178519349390512 6.269551155668386 7.37978886814927 2.371587098632006 0.7294049975759438 -0.8114154751114798
P 8.537590132499432 1.4427567629000513 6.51266155400594 -0.63889753831299 -0.10843781848912938 -1.2012744185604216
P 9.00564230632006 3.0669318895443243 9.335008865137683 0.3707772442271421 -0.8670109529885971 0.284605950445697
P 6.797069315222187 8.291117569078487 2.3670048602637186 -0.5189468340882547 0.9835462037738802 -1.061882317781623
P 6.318034684576965 1.7007475127467926 13.132243652350642 -0.4496918564461739 2.118262989018726 -1.2487534379779914
P 2.4126397855686776 1.673277515609411 1.0914881001106187 1.0529407923176188 0.0621186237076156 -0.006191730633008691
Ni 6.973647639121086 8.337144131195357 8.056691532310726 -0.08031740610382941 -1.385438424238272 -0.3360951194639244
Ni 4.706393783257314 6.393434007587203 12.229750795154315 0.13400075455989824 -0.015161024011154536 -0.6010408724765326
Ni 0.7532783081862938 0.3353648830076088 0.463964002760437 0.11704304365963714 -0.9115972242394043 0.9482590984368122
Ni 2.607303601866701 5.509581769497451 0.5805951079568074 0.8479004574113913 -1.2982872830420609 0.5653938126968844
Ni 6.1229182691331 6.1155750789097585 9.33300819217872 1.5687573083070079 0.636631882207265 -0.18440029005837275
Ni 8.593878687494458 2.214345939386663 13.470201281893711 -0.9914844847843504 -0.2937338808888941 1.205502597709156
Ni 3.9391920474701836 4.107642060178466 6.266212082378149 1.755095695928358 0.09809144225779881 -1.0995394660127644
Ni 0.8239050193872225 7.645729660543471 2.335452234096504 0.5669256759603786 0.35009400484617775 0.03503693699947514
Ni 4.410698753546823 4.533500909545979 9.122276182531609 -0.9736289446601682 0.731986642260191 1.4689748515000316
Ni 1.704294412175426 0.7216748800741379 3.0199262353976746 -1.1335366488938154 -1.6858926545701352 -1.2740134980963607
Ni 5.981023818553256 7.760311138179389 0.41317406555151936 -3.252217956396883 -3.183096676119189 0.10242992173215264
Ni 9.01781629967146 5.4824627676160285 3.0480862153145325 -0.05082788128514472 0.9888228787917873 1.9235556606073905
Ni 4.732321248611931 8.675078668945272 3.1712292061806586 -0.6515453089839875 0.4571663104463481 0.8954946622505867
Ni 2.023515360752397 7.245770566378788 12.788106658959247 -1.6279122214006092 0.42745438520421225 -2.175371303995944
Ni 6.9820253416777796 7.390269771226534 11.422822862094769 0.31593792778975915 -0.4525344681012916 0.3988462345492163
Ni 3.1837578894749243 6.062879606929678 7.450019324179657 0.09581730151164143 -1.5891217308959729 1.840118477927657
Ni 8.358462474636204 7.239628149399515 0.46629719754083465 -0.02751337492892036 0.6661867130462462 -1.5440320376461862
Ni 5.434191683204475 3.894384732031906 12.203361493936594 2.1861853638923128 1.3541236732853903 -0.07870738130423219
Ni 9.401869766710867 9.341369268644343 9.757541572619127 -0.06013064674330935 -2.3513581731796407 0.561288275168943
Ni 8.988757587165004 5.252542401528703 8.905650223599574 -0.8279260711719935 -0.31772073072179474 -1.1900870344850343
Ni 0.4763652193564856 6.925718313248231 4.919395254335715 -1.5559218471052363 0.8441921553218686 -1.8309316692220663
Ni 8.521758399112253 8.59393410779803 5.77165145368712 -0.6678774704851078 0.6617147933178217 1.4777952780051389
Ni 1.8139989030969736 1.6701093215885228 9.840952824182482 0.1579922323784892 1.9545263979572918 0.8345055241617242
Ni 7.649147245930434 0.7447925360376345 11.12634086407355 1.0223955725409102 1.0530559777392443 1.2223188979355466
P 2.353977394237302 9.206587090356287 8.506235172081627 2.788817492115365 -0.539098112225149 -0.02324071569549546
P 6.092326261561141 0.24170364629854205 9.728746106554638 -0.4876235984949408 -0.7116985814351162 -3.083690885925341
P 0.9266644225994234 3.3768884107074437 12.658744586360573 0.20927314204065248 0.5385934046745885 -0.7287910181410288
P 3.7302575030022704 4.589558546609452 4.07255916067369 0.7056122660317203 -0.20934539003948463 -1.3072568335305228
P 0.19295317626108843 8.830246282230705 12.006987037601638 -0.09108801435677215 -0.7506644211753523 -0.4135933109514038
P 1.8384946772759703 3.9624593382533257 5.616968768057946 -1.8450786501464096 -0.5280577952505873 1.4836746196040513
P 7.549649327583468 4.742721792249017 4.864156914093388 0.4461439911939155 0.5811791005555991 -0.6672655479327219
P 9.022527025475116 7.421757740372915 7.975227380746216 -0.6935360515934765 -0.63889753831299 0.3532826869868045
