# total energy = -381165.12092168146 ev
CRYSTAL
PRIMVEC
9.25983752092653 0.00000000000000 0.00000000000000
0.00000000000000 9.25983752092653 0.00000000000000
0.00000000000000 0.00000000000000 13.55270821059269
PRIMCOORD
 96 1
Ni 1.9473716149054898 5.825984207715736 12.48677425342342 0.01562665079366341 0.5845950682156836 0.7129753912650107
Ni 8.189594780037986 4.3283999416470165 6.195891567983716 0.9160406047227386 0.5344243608985635 -0.6683839778078811
Ni 4.694950610805487 6.909246302739197 1.9002520055817613 -0.00035018425056713884 -0.1796208663918584 1.1575114145418584
Ni 5.8923679830649105 8.705951100974799 2.7012983278577067 0.2651640396710014 0.25949321453846924 0.18882721548147482
Ni 4.043308063358498 1.1122546463720815 2.7371051936545716 -1.078736413224484 -0.29152993125903987 1.109765514616147
Ni 6.981278578989891 8.052373247481224 6.734801149241419 -0.5822491936913262 0.8610071699966784 2.1396242283033216
Ni 3.211996888055458 6.507665668153758 9.200309751843333 2.311181858071071 1.6065234713121883 0.5130386961339358
Ni 3.087470592770802 8.613334205864959 4.066584516991532 -0.574408614600985 -2.4411500944328086 -2.993850885043057
Ni 7.455919331793349 5.390271811945048 13.467814223853193 0.6995159233259952 2.131893178207651 -0.6312379648852031
Ni 1.483601911378072 0.6772876675236436 2.1167164498843207 0.31965034364433975 -0.19284199306782274 0.8203099493876325
Ni 8.469584487840049 7.91362384172979 10.913074122747334 -1.5237447481520598 -0.028368009619731786 0.7272830661369345
Ni 3.6460332532307764 2.3973163809804996 0.8009907632506846 -0.46831821329810963 -0.6331786335513419 -1.1143397642503905
Ni 3.857166809059557 2.0676939439454083 9.258071692455779 -2.101908716030419 -1.699172916618809 -3.813997055159316
Ni 0.8899990996698325 3.1004343653316675 0.14450717273596714 0.20863319446380843 -1.2550683244524254 1.112880920316677
Ni 7.557481229970186 6.867382577205145 2.2810831961997797 -0.9156425979533713 -0.7259772028413174 -0.07003710722374389
Ni 6.913681764922521 3.2489621595290115 4.503849787518261 1.6191136492723728 1.975967341439887 -1.7768071194635204
Ni 4.621594177786076 9.029193509942436 0.6181136016858187 0.38438429348761544 0.33164736810521595 0.08443528492694491
Ni 9.407068960416577 6.489266370954873 5.753558388369444 -1.0097879110792285 0.2640479237886872 0.04889621148007063
Ni 2.7252998267703954 7.45469703323761 0.5088049234201101 0.32917011020931697 1.7906779639083419 -1.7442921775549507
Ni 2.465829918964673 6.4170396381157655 4.978465538760351 -2.6506379235874284 1.7397526378133845 -1.1078729255791242
Ni 9.089586170400981 8.575026257947602 7.697897406479446 -0.07641447150499743 -0.40772528220640103 1.1032379979102742
Ni 2.059313790968563 2.666194283730392 5.0842304771981714 2.6521469040327874 2.135751632721793 -0.6314007157153125
Ni 5.389864379093135 4.149527659819704 0.6733957578041209 -0.14201025512793605 0.4347092669944126 0.18209195364017025
Ni 3.4687166241107676 5.051871048918743 3.367915884580004 -0.06714461616729728 -3.054324259837766 0.7448650408847559
P 8.66604120116242 8.976893947496887 5.651737214741389 -0.5881447332401548 -0.3921058305015892 -1.141365400909615
Ni 8.866498164303575 5.4141066337819534 8.132506029614952 0.023159468835598825 0.5937754491633709 1.0120900768498442
P 1.5940717732717327 0.656993807563363 13.660045673304479 0.22130307662199306 0.39482194388117164 -2.00729263391573
Ni 6.0435348309621455 2.094843787622878 2.2593586913390324 -1.055916072895859 -0.11889115261196943 1.39973452914597
P 6.031635939718779 4.985728029345699 5.578253921947632 -0.2936320652037072 1.3017752415906612 -1.017436428763422
P 3.674757269290637 8.072763409751957 6.308365258721785 0.365738396251654 -1.0465919672814556 0.9415539185024945
P 7.612197610014581 2.4554959402661547 1.104598612691136 2.587208294377873 0.7790599415989099 -1.7595215929101953
Ni 3.8745290044535734 4.368356140647112 8.510586122498802 -0.03473457526770792 -1.5310178847747054 -0.4313123254977217
Ni 3.4278807405440417 7.20860759068221 11.368052536510975 0.7523137838533173 1.4567723958965684 0.474799193036763
Ni 3.434584862925518 5.058454793412153 6.255673079164393 0.9879625876740211 -3.610881448079626 -0.7945912044652895
Ni 1.0691871419573777 1.6469547054825202 11.658920701459113 -0.2033593476593788 0.6546113495038209 0.20973594060968395
Ni 4.449768632329347 2.7971932054579374 11.04823534145067 0.349632748939043 2.2969456598670313 2.704733162769935
Ni 4.950096174478405 6.515267994776952 13.296426668712272 -1.3711536321844837 -1.2694901563047105 -0.6643725426556428
Ni 7.072525018143297 3.350931490557761 12.737919567277558 3.3219596438673946 -1.3851247496525951 -0.14169426654941406
Ni 4.90643604046092 6.261789201861859 7.280555602411258 1.5098299378431803 1.8909648711555624 0.1474705069115589
Ni 8.30657430772471 0.59067855501201 1.8772126037898405 -0.6193535547427914 0.12263416459416944 0.31685195496359625
Ni 3.080210880136717 5.255559695362569 1.2471556636404473 -0.38790336238446743 0.01575957682710189 -1.3204491638510807
Ni 9.037082891529478 8.157490923274757 3.3722661562579286 1.222755985472965 0.44549118810126503 1.7296895971504274
Ni 6.3803058625808 4.262766213138863 7.510504222144627 -0.6323329977215948 0.5711086036934745 0.7340453245614326
Ni -0.002216805107907991 0.42058922909468377 9.846408434553043 2.261772197289692 1.183561831772007 -0.47492337731945306
Ni 3.354385409961478 0.826879417054733 5.465833938267316 -0.09019095646379952 2.2931373418645347 2.5483015900103467
Ni 7.112351579417784 7.565611367333357 4.62883259279381 1.165513201800412 -2.333343995990407 -2.115891660573072
Ni 5.1525810420415805 0.8413803226478153 7.143672979908589 0.04380182767629876 0.05342726658120476 2.2332576347897666
Ni 2.258335479290478 3.1337697804881786 2.411555233171101 -0.9264111493237851 0.25722550155021506 1.2908092294974607
Ni 0.9016989044060135 0.872170208463625 4.334155856664041 -0.5601431058209062 -0.9896430607002376 0.848449902156958
Ni 7.843702808439009 4.477437026909251 1.9463446989219186 0.5538714138795816 -1.9649465648493514 -1.0312576509172304
Ni 8.336215047701373 5.248577777854789 3.979237395427684 1.1047022411606264 0.7171218093332166 0.30067277410057247
Ni 0.6009014156600069 5.36253859850234 0.9787657543290956 -0.05471744614753802 0.07666052607753249 0.2874632173888339
Ni 3.4118797412689164 4.870248595341018 10.856749308921636 -0.4009936199095223 -0.7077380541254714 0.6148556668724379
Ni 1.1901483997877957 1.4851297845727456 7.537392938403371 0.6751477788942759 0.03043646211298629 -1.5977205283085774
Ni 6.818462855462964 7.644921875893224 0.24464490789861792 0.724908652367487 1.9464179099175447 -0.3027887920023108
Ni 7.031087245136245 6.917080125300977 8.754480057572644 1.570531112377979 1.6666931988235487 0.10723299954775081
P 3.055996404960529 9.08635448709831 10.203590000085025 0.11135447791529209 -0.18782731346205073 -0.2765288298645173
Ni 9.07972444341718 2.7570981088946893 3.327786526617845 0.10818687882058788 0.22702352404553805 -0.13921212355750864
P 6.09864938402091 9.380585825042237 12.445940221824204 1.1178644895741974 -3.737402863543344 -0.2576661886320595
Ni 5.195315192304719 0.70791921011746 10.46427665054396 1.3436325439460794 -1.6266798916554048 0.08541333256949807
P 1.3239993514787316 5.271218080648586 3.226899670597927 -1.8510302397441538 -1.754547536734372 0.23482013727182138
P 9.232456203859263 6.831241431272961 12.774607043624806 -0.9981243586983712 -0.7432676144906489 -0.7323715364034356
P 0.15737279101887172 2.66171252235935 5.664598203105522 -2.1703923627241135 -0.383799624628739 0.43756036328996256
Ni 1.4991676982886541 8.45736150228266 6.095086198534181 -0.2577140111508594 0.21466551670081738 -2.933161794693116
Ni 7.314919785518851 1.9763641662541114 6.44780915228898 0.4583392477085268 -1.4902031647511882 0.1256166442612611
Ni 6.264002303034749 2.839788458157924 9.208807504756981 0.22771437946497558 -0.7389486754003209 1.4892372012934934
Ni 3.534609628070138 0.8043613441165097 12.232579675066216 -2.2371741962353533 -0.9435056429122267 -0.02472449932987355
Ni 1.9031281111227651 7.089729796299073 2.5062213303293124 0.6106773671250322 1.0048948446529853 1.671893512077566
Ni 1.2384477124145632 8.530930911565571 11.946359948564902 1.4023591112530107 -0.7657166875227845 -0.18089304823606264
Ni 1.3757062843214978 4.130137560003666 7.013512999462483 -0.22378521961389847 -1.227298353428009 0.40913553229036637
Ni 7.910142142813443 5.716505148439228 10.913914915996282 -0.30584711921266033 -1.4051338457846703 -0.06820648177290833
Ni 7.27204673769256 0.34971813647194105 8.933850518659796 -1.9748784792510827 -0.1359321672546562 -0.798255026470122
Ni 2.313385213486439 8.745268371184396 8.059578327073803 1.7006209619192454 0.42161515281461587 2.894791936665666
Ni 4.75435246864688 8.313528445719859 8.766610444754598 0.5779785913404304 -0.18341118667222606 -0.1316433100713152
Ni 5.664400042582091 5.523150480693919 9.56310277892666 -1.208687166084725 -1.0469776327556486 0.916121337362003
Ni 1.8750522836909478 6.43271654307687 7.3693389247781 -0.3055470714737383 0.8303771038156472 -1.5800195114843885
Ni 5.738710238868482 4.721943037244717 11.759847374780467 -1.18775093015269 1.3400332566305955 -0.48110945152550694
Ni 4.619094021649337 6.55453896579883 4.26524044173048 2.8627313086856954 2.2985734252784416 2.224978682610426
Ni 8.58362864702549 0.4133193306393013 12.976378903697135 -0.060405497671250814 -0.4245883765103269 0.6257918541689674
Ni 7.436890365641507 1.4743883730223142 11.251472107822375 0.05165243406896911 -0.499156795945521 -0.9524829067101724
Ni 0.1814465166643989 7.7819674715366585 1.146862363207066 -0.021066847972628235 1.1198686644884197 -1.612408212227739
Ni 8.542468669144743 2.715752934263072 8.089407967736355 0.2895969759023851 1.1313213864100518 2.1098146011410566
Ni 0.9845337071349264 7.212255966674339 9.422086564944584 -1.1230462908854528 0.22323706041991234 1.105294880439303
Ni 5.9646224954166485 4.99910849459602 3.0161550279459726 -1.1768605084924313 0.05414331881162288 0.7960073680865258
Ni 5.429227948490449 1.9545294693265967 5.216301688113251 -2.3547761977222543 -1.5904828729095577 0.5428912607189941
Ni 5.395272124218525 8.758065466669478 5.207099261562546 -1.368127186653334 0.7240910415621981 -0.7514267532626736
Ni 0.6217703115317372 4.19971597930534 11.738380293403429 -1.1170149970897083 -0.8198288959861558 -1.5965761302914891
Ni 7.282862227943339 0.7807691300232432 4.167675089437407 0.8408628338383197 -0.18476538670727535 0.25177990505461156
P 8.111599168409294 3.3544502288242826 10.527811173881007 0.4186578699585048 0.9880446058648662 -0.6759949573859196
Ni 5.935685503093288 7.340745472427603 11.399413754303216 0.43954988291616554 0.5012149640261304 -0.9361103788894202
P 3.312216109788491 4.132248802963579 13.082794808714262 0.45191766045289916 -0.6471944882144597 -1.8023602853422764
Ni 1.3754470088702804 2.6253398804885792 9.495067974543486 -0.10697048991498352 1.5665122210265732 0.6410552080859412
P 4.642493631121699 3.1106479661421202 3.761283043264379 -1.3831581128445274 1.098036913325309 -2.302115119883113
P 1.7265059698185168 5.105328091057226 9.022891264510347 -1.4607498924870777 -2.198177760367498 1.137414386681667
P 3.510450711919211 2.535612054692303 7.0982442169203 -0.5232668016198473 0.18814073093741146 -0.40333383800692474
Ni 5.4172827580593665 1.9010446476754832 12.882784169742704 -0.3497222233290557 1.6628931083511684 1.7423283689603608
