# total energy = -340894.54100296274 ev
CRYSTAL
PRIMVEC
9.05389469348937 0.00000000000000 0.00000000000000

0.00000000000000 9.05389469348937 0.00000000000000

0.00000000000000 0.00000000000000 13.25129006562869

PRIMCOORD
 96 1
Ni 6.481719269684251 1.7996154429606896 11.541277240870418 -0.9438411718747745 0.2070689353004821 -1.4062103666783008
Ni 4.608079185502199 0.4919080460692244 5.830620218632306 0.5266760844117123 -1.8614457786505232 0.37965577766369457
Ni 2.6920397134972944 1.4187995874798023 4.784762314609147 0.0743205650904462 -0.01011831938092451 0.3758690569277527
Ni 3.490647529491854 4.3767431277909665 5.007595860019623 -0.45826468571684953 0.29910440117218806 -0.5938523251478933
Ni 5.181905963384873 4.457268465244831 2.7301502715077004 0.09569954498685454 -0.3672198658931869 0.07011218343605344
Ni 7.133029276477448 6.086190835682729 2.7105377252976077 1.2734406563120262 -0.4697544315240038 -0.6768529345108407
Ni 5.25143081905254 4.894725484556546 11.391868968867108 -1.614399017405523 -0.724212911852043 0.3069238972166069
Ni 5.531359128407003 7.833592469210493 12.483947004181248 -0.03549536469313242 0.2784155053642689 0.2061042573943676
Ni 1.7746629097896922 6.517789985269612 0.5166079755843906 0.7417984861442902 -0.6078656087078499 -1.2324197338149743
Ni 2.9476492622939565 1.6300722150361255 0.5700304799296267 -1.0853408059148792 0.226911423947706 -1.0816731272553048
Ni 0.6627903449865284 9.0502819703419 4.5526928914455 -0.505241311576704 -0.1098354701676044 0.4230282311120586
Ni 8.670996223027158 2.220965584002737 1.4747626146145094 0.38709166511644943 0.5770175129787417 -0.2872899250357633
Ni 6.893463228689133 0.6999104069414531 4.6183263832681405 -0.10600015558191421 0.0016079679170681984 1.6399516690636466
Ni 0.7107913773205913 7.381495302533937 2.4281666752139954 -0.833455742740971 0.11564333509863307 0.5711744239344033
Ni 7.724121831122491 3.8807255190198857 3.897045163809698 -0.22055231449889756 -0.3588432117937175 -0.2724119794826663
Ni 7.444890671642544 3.7855871958846024 12.514822595117291 0.9544372022230658 0.571147684461526 0.27538597450932567
Ni 8.18741866526368 9.14859821043764 6.6773911316720165 -0.6127216512485706 -1.2035860974127335 -0.33316483319100687
Ni 6.801249313469028 0.8302611364659398 0.435925100366674 0.17370990022406213 -1.40566914946285 0.180039956207148
Ni 1.541887282857056 6.730963930665525 9.470723100378732 -0.12302342961278813 -0.17093927945746046 -1.2112443852889396
Ni 0.0465868140171871 4.697395854490548 1.1682593141992652 -0.9496868320222742 1.2741345970552573 1.3465348051945392
Ni 6.477436777597938 1.8917750348139493 6.975598348580518 -0.08849711370114437 0.8899292523476674 -0.4118886695554713
Ni 3.555219904882113 4.187217954761761 0.45855168804724 -1.195534944973483 1.5221352375730945 -0.1173636602238495
Ni 6.1296495291590665 5.580204889095513 4.929956904124145 -0.7162491769202761 0.43409477333886526 -1.1220157927384096
Ni 5.285500623959095 2.8566485689333994 9.264652840587306 0.1879844078652053 -0.7868640110243609 -0.33238784581566627
P 0.14781025962860553 5.661391160845998 12.428755368855745 0.46024263537882676 -0.8931125351716553 -1.3853039555429367
P 3.9044195608589645 6.1677845326845535 12.54811014354127 -0.4464823483699407 0.007527932945928972 1.0587370872844217
P 2.3539039165679605 8.49924384485088 1.2859354968492673 0.16608992178495913 0.5191990593083767 0.07815176591107831
P 6.503086460643451 7.614614977456593 5.685956187333497 -0.13434605371445896 1.056186038727794 0.880573007943748
P 4.737758116056697 1.1599668522503115 12.6738777916829 -0.43965786924893957 -1.4142635760000806 -1.0319513345501454
P 4.0091731199258875 6.148200958936778 8.159296363637251 -0.18718942276773567 0.2565174197395969 -0.0929554065828141
P 4.744919746585818 1.0490747527298552 3.7007802717338705 0.051377840251343766 -0.09403578413118643 -0.25870465719890284
P 0.18398418961097252 5.4562208581653096 3.524074507890737 0.10714969580532513 0.1347486884695163 -0.23335486558020457
Ni 1.5541462559751729 1.1213157767397932 2.573983267279374 -0.7414164202145231 0.5761978452909238 -0.1347224632172712
Ni 1.7576415881781264 6.598315322723478 4.6587954807890855 1.2616053542399948 -0.3839430921851388 0.6004865426349595
Ni 5.988589853250452 5.64361836599307 9.04770251580619 -0.16451949197404567 0.7499936203605728 1.1809863577353468
Ni 8.405472659781207 2.32845341920088 10.212915194514874 0.9263378728836885 0.29991327022672865 0.45619854721644015
Ni 2.3411831948316575 5.065780712858308 7.069947172117647 0.13922035108762476 0.5759569329247113 0.6248400317786593
Ni 0.4128449125729488 9.334021969270017 9.421918987604805 0.6012928405863386 -1.2634218386234435 0.11664812221406362
Ni 1.547120433863165 1.1486223224740923 11.549069022454946 -0.1424576270779998 0.274698718634314 -0.14202156798184573
Ni 4.06279028300232 6.841801706819136 1.6617119546657944 0.15972104214413785 -0.4917026536603209 -0.6193165308572689
Ni 5.595216246133798 7.923044946615956 7.796158237117313 0.478310548624131 -0.19278440035700992 0.03858325958983678
Ni 5.2571890959381555 2.862470223080334 4.969459045715241 0.9403066763589547 -0.16143468240113487 -0.7268593483359547
Ni 0.7947037766972684 7.458869884710767 7.102068578933347 0.3080832076320307 0.29663048571039885 -0.6515705057949682
Ni 5.187193437757828 4.635412892919921 6.994878616863406 -1.0822200008977105 -0.5781781089457462 0.3820394474045227
Ni 7.9631627530313 7.305370157794551 9.081811252458984 0.5778469508585725 -0.1042659464996269 -0.05154110530208542
Ni 4.540636725563607 0.6095072706161956 10.46545818925311 0.22682477777117063 -1.3905112107754891 -0.17100227148491196
Ni 8.440991087803638 7.011498850949763 4.798795851044214 -1.0126567479865913 0.7504888148294365 0.16658743024666794
Ni 7.460807418128254 6.042487687055585 7.0229982023214905 0.15205426962749943 0.16897855618666383 -0.3128317780606096
Ni 2.1857640422869027 5.2122636715569906 2.5721154488493387 0.6342608108719271 0.27522862299585504 0.47271017171821816
Ni 2.2412734693084504 5.318067482382926 11.309750145985776 -0.6983435002844489 -1.4073357385319956 1.012098047269644
Ni 1.2770699233800944 3.296803648798437 4.102479840209034 -0.1782738654456607 -0.04951147646656635 -1.238779871705047
Ni 3.5068630544952124 2.6752085236696876 2.735145305089137 0.9214345220448001 0.3650318571029326 0.6621914758439241
Ni 1.120093500985771 3.1838019918654834 8.345688889178371 -1.0350819097593271 1.3105229058763042 -0.05458709121726083
Ni 3.858516315874582 2.5298573017802846 6.967872660425651 -0.46937185137360454 1.3465972830013582 0.039108021745055226
Ni 4.122817603366512 6.808039734324706 5.975655459604557 -0.07865261680689681 0.3860267141870448 -0.5370018918177526
Ni 1.0533934603940662 7.562962509481071 11.613735558347736 -1.0798617850781789 0.2606710368966543 0.05154521906714348
P 0.33289359202875046 5.621662671893045 8.072778253430888 -0.5911243846937692 -1.1219571715863323 0.13268332130005536
P 8.522485191966247 1.6795155327599343 8.068696757801902 0.0801633970244684 0.6450985249173793 -0.6392829466768668
P 1.7081077315095752 3.1200625747668544 10.543229332007915 0.2662423603368447 1.0524337707742133 0.04383036692138903
P 4.069580703857998 6.090156441462445 3.724394639301576 -0.37341571029125364 0.12567243719986096 0.5619629326384644
P 6.798161935453313 3.882002118140753 10.388971794124204 0.6971926745094573 0.1817173439095709 -0.22323937441275749
P 6.139554489713882 7.850704329766801 10.247156118026991 -0.3005452473837727 -0.3773590112097178 -0.6723601888468098
P 2.4188656094206116 8.361108576857445 5.783591574564776 -0.07166024464946369 1.0175480146406217 0.3317828652418157
P 7.03687691716105 3.8125496936288803 1.504140691404514 -0.45763065167727635 0.7021021959959328 0.4885029157761006
Ni 5.285056983129857 2.761093766652301 0.6183067506557066 0.4793438749846519 0.8724449795199748 0.41571807060389054
Ni 1.4655991680171339 1.0018134235743374 7.223636125428375 -0.04278675614822309 -0.12831424569808225 -1.3742919207031492
Ni 6.925043212615273 0.6469858667923001 8.96933381601609 -1.5271674006803635 -0.7611048997823859 1.4978234003006075
Ni 2.7247242725492904 1.6770347656739935 9.175378724902988 0.8878314892783742 -0.7216790896865958 0.5030008522819596
Ni 6.497862363531816 1.9541020443745976 2.6003536403250376 -0.791066993362115 0.8215373940368301 0.56079436625166
Ni 3.8189417431276915 6.82988678169104 10.304985152812838 1.398552593022727 0.916901410061137 -0.07803169539344625
Ni 8.006467530301576 7.13228685713056 0.1748723502121003 0.42318558262552924 0.820183194001781 0.9474941952463296
Ni 7.563415204204783 3.8999107214107944 8.288853972005795 0.6578542819211508 -0.5638948595538547 -0.5977668297109512
Ni 3.101683168984153 8.39396515990445 12.40551311635093 0.8919064306786962 0.14857171039553765 0.31758394803361434
Ni -0.1068160362281547 4.742819243067795 10.134612588154434 0.5332647933728235 0.6781287158994708 0.8776069833368886
Ni 8.77623869239569 2.524406857306794 5.883890617550374 -0.6215533906075876 -0.8421239599389303 0.6791643562528369
Ni 3.771499336082689 2.8792199278576724 11.321053933236863 -0.3210086574444471 -0.2338426038499005 0.8137752335929083
Ni 0.9743801233173989 3.29112685696309 12.814195953634073 0.4815429395184997 -0.4686483429440187 -1.4182058484772802
Ni 3.156287206558277 8.416690435034786 7.9676562008588645 0.0006672012703536896 -1.019243914285806 0.039294169613932325
Ni 5.8236460037188005 7.938626699006118 3.58279082433506 -1.6282562350035896 -0.3528592262961407 -0.06442464613297293
Ni 2.892918470197193 8.316998002978961 3.369710134052231 1.34757275954075 -0.230120674913623 0.8779625669040944
Ni 3.476641154740209 4.302528354785645 9.273053949269952 -0.6430341861891828 0.5483054897560299 -0.08950781435384585
Ni 7.1415399372832296 6.2061911530442675 11.426706544025077 1.0453796921409095 -0.4704077488372866 -0.6938826362996179
Ni 0.4859886098619682 9.118177125004205 0.36978368506402953 0.05925621455815601 -0.4516646639018285 0.40924069040966293
Ni 4.585299587005019 0.16554140656695152 1.554323712306868 0.40146336045708925 0.17396675342987458 0.24423011773181166
Ni 5.939345721205076 5.547112904792177 0.5692129132586032 -0.17173452166524616 0.20702188411263053 -0.8477881002032432
Ni 7.885634254648408 8.604115104545969 11.24932445426472 0.32312441823586935 0.6414280180443276 0.4682292531287291
Ni 0.37655237657296925 4.814698111298764 5.716169033194027 -0.8429986492343997 0.6175928632979428 0.7508443983966424
Ni 7.951347420742421 9.092282986807886 2.493972191031646 0.7644437343476318 -1.115682394321214 -0.2244015130416587
P 8.557387955164431 1.7810730670774522 3.779546437491391 0.6103703774075747 -0.3475900074774013 -0.7540989007781981
P 1.7421684825216552 3.3223356312157857 1.7185468718383705 -0.08326209055445015 -1.4778747250928224 -1.3115202367925671
P 4.69624600989232 0.9744706622621413 8.063184746845987 1.3164598401860295 -0.4076784881288656 1.193699691536957
P 8.453394923233343 1.3999674869733891 12.341283883561244 0.7131527973831396 0.998447546365745 0.1845769248455531
P 6.374457781847965 7.761903732763483 1.411474081460697 -0.42966604814355036 0.03575915987748035 0.2574823547560275
P 1.905962487455079 3.0007684611743057 6.249228840427554 0.016749965764829216 0.624421456184002 -0.8285698754035796
P 6.995437242152466 3.9833966823577347 6.104445297721686 0.6648929339354871 -0.7197741593543991 -0.7215929577306928
P 2.4340942599262787 8.65014510405299 10.08085237354531 -0.31218437428459783 0.47506504510363995 1.0666964513408144
