# total energy = -340870.8724022263 ev
CRYSTAL
PRIMVEC
9.20443504985420 0.00000000000000 0.00000000000000

0.00000000000000 9.20443504985420 0.00000000000000

0.00000000000000 0.00000000000000 13.47162109401802

PRIMCOORD
 96 1
Ni 4.810449331861529 6.5420612431330305 10.111515288664458 1.901544446443622 0.684013456815022 0.8288814931067274
Ni 2.697856659515447 6.259411459095963 6.43403247358342 -0.2852620959724571 -0.6965177599296198 -0.25159041475162475
Ni 2.3320079892627024 8.482319282597583 2.585312194249783 0.23841813903572487 -0.5357862742430965 -1.815251539482648
Ni 1.5934165270871674 3.2261820129719925 11.955079820043567 2.742374884382109 -1.963622446721289 -3.5011516502519506
Ni 8.803434399690886 6.580683051580976 11.803712889651177 0.24857862450849447 0.418596163482634 0.2653810407778139
Ni 6.753063706636538 5.40373038174733 11.704750488385939 0.059545206553484546 -1.4622287910254494 -0.8167083480793031
Ni 3.1862347659119146 4.988196172409262 3.835666549891102 -0.11564976285653632 -0.3682395654069529 0.859258819847004
Ni 2.0469190300019218 1.5146081562741753 2.293328192875476 -1.2838744500508406 0.480007990931212 -1.2962160023353289
Ni 7.855478863407394 1.417961590806245 2.693798424209275 0.5649688093443238 0.8579095049079611 -1.7282688055435007
Ni 7.597681053347795 3.6825102773723324 1.4983273519884919 -0.16462336454176166 -1.3386644013075268 -0.6675740803120762
Ni 8.995576976275936 3.0501287884286494 7.6565010735350585 -0.6536970652196678 0.2993805376517102 -0.7034347987644273
Ni 8.055169076533751 7.948563312605221 8.191068874677352 -0.1875007833605674 -1.3403644147177691 2.2888505415637224
Ni 5.076613973160209 -0.014904741282116121 13.139652841453492 0.5771596949835609 -0.22819311887360696 -1.4789178216453562
Ni 8.08400657078242 7.804578338927618 2.4832101602720584 0.2282417127233553 -0.31276621492999684 -0.028788899207234292
Ni 5.798655861553712 1.1461914487104257 3.575691890999773 -0.909161361104402 -1.2943663507210998 0.1890658138548421
Ni 4.364476056618467 4.4090899521254245 11.479046701609539 -1.0839670654958042 0.17209113367371653 0.334942751027036
Ni 9.178597957967778 8.557224973052632 10.410895053405765 -1.687568242500345 -0.35954717983927753 -0.8631838659330231
Ni 3.2991271588132633 1.6357017005880885 13.233752539810471 -0.008387452732746844 -0.025545709679588264 -1.3976164543617025
Ni 0.30541879441783026 9.301817726721985 3.528702330869265 1.2476923437033287 0.26841031452244096 -0.25576280096175946
Ni 6.166014059114717 6.474040469913221 7.9819625247439765 -0.5665109570204631 -0.5218357256002755 0.038344146995837186
Ni 3.1171094605153282 7.233314297098892 4.224134198237264 1.4412910124315177 -0.10948271481387598 1.7713414683632591
Ni 6.250225433159107 0.09986627676323319 7.32881767176386 0.8282824260701477 0.5507583221718966 -0.9466359610110923
Ni 3.5031250474290476 3.4951632113214517 7.776317962741315 -0.4572552706157286 0.5155712327478024 0.06722380614466486
Ni 7.134780822495636 4.701119055230284 6.435743578013942 0.2976270452957132 0.9054139782468279 -1.3204851592953386
P 4.075668505695872 0.7544479420166402 1.6248119337685545 -0.7937933911543426 -1.6540253735478931 1.012305792405076
P 3.0347665867366516 3.475677422836155 5.438210194532365 0.7212196335516741 -0.500276511372261 0.26762587094793266
P 0.20047719230230976 3.0670373351681337 2.789905609797546 0.5959927685296639 -0.8654803752766835 0.43180751996658534
P 5.168465028093968 1.367051861891662 11.391723308157081 0.526677369963293 2.3624447700111055 -0.27374149692736727
P 5.790086532748888 3.554881584345826 2.8761097439775365 1.1009355750293428 -0.5856281374658882 0.8343245184991697
P 7.198263809355857 6.651032546806823 9.98571735772096 1.0814386426469955 0.23555727254816206 -0.6139370117129104
P 2.557314144455464 6.199545815114686 2.0261584272959294 0.1931332990559964 0.3165151404494678 0.7352660843424111
P 0.7675090350070205 8.75873766427067 5.5553053323663475 0.30192772955359615 0.5130500089878455 -0.6109966981376638
Ni 4.602815691497189 7.029178341961011 2.251255641818584 -0.2631732344932177 0.18530146171640346 0.0024026959042216683
Ni 0.8026303968980663 2.100580884923639 0.3389045282437664 -0.7181196544701116 -0.7139405833917576 0.4522081951101244
Ni 8.680812919199099 1.47906062905159 11.269347586074627 -0.46223729721135237 0.7153264079956906 -0.5444539772204237
Ni 5.588573841530851 2.0335357817933146 1.0037114001236804 0.8408160397607842 1.5263593029567712 0.44750359054560346
Ni 9.003667674470824 5.3289443489447645 2.684867361116557 -0.15831619137681122 -1.1470706788245084 -0.3765892229232289
Ni 0.8055417596273526 8.649407387639425 12.654055394812056 -2.068330365854341 0.4798236428345478 0.5700976459304569
Ni 5.850191492035135 6.845678729659234 -0.2408726953374626 0.6972469247861605 0.2570951466199379 1.9706780680164897
Ni 6.762093257181684 5.882416218292584 2.17197508350002 -2.4894480102072483 -0.03532232945037787 0.027214869851895068
Ni 4.2209881224204135 1.4758758946085513 6.56590625194267 0.5281608964873549 -0.19689019499526736 -0.048781283168761146
Ni 0.8459142515754892 6.659307333697839 0.814350403737144 -1.191338390393632 1.0168772138258424 0.5839013845827685
Ni 9.597464172705786 6.904752792247156 6.674594979467905 -0.4475262162534228 0.8736179167821535 -0.6658411567813695
Ni 3.757526421045059 2.382181363392768 3.3618829953237728 0.9374067291033406 1.6954247624302865 0.5846932843564446
Ni 7.715856791828058 4.674122447942909 8.632695815804798 -0.2675909039449391 1.8986743239846786 0.26773848526639693
Ni 1.560004428739683 3.996427526446976 9.39072980562204 0.1708112385200284 -0.15668611197255597 -0.9523636075234887
Ni 8.097859245166156 3.715370109631429 4.484917926948082 -3.026083005603885 -2.3729564681757065 -0.9749975428729208
Ni 0.48785897627338226 6.210020461924448 9.306209162568152 -1.4941999446154073 -0.3081045477882694 -0.19688042480325446
Ni 1.5605198770888453 1.8802543289611775 4.6114568148935025 -0.9830754347850488 0.7752629364503228 -1.0609076125731791
Ni 2.139156671197553 7.509889154163689 10.93549353120917 0.009785104411221858 -0.9841583834365826 0.8170420772696381
Ni 1.5541504082027684 8.16412197133793 8.787524534127902 1.172550825373484 1.5633135115836172 -1.623518463208288
Ni 0.9286446320595181 4.30599107785816 4.882169367430059 2.410406385492049 0.994586777858758 0.7139428973846028
Ni 3.751543538420854 -0.023093006485951424 10.85892091761067 -0.543748723623283 -0.978256673240167 -0.2543857181085748
Ni 8.63077761159113 4.1293027473131705 10.54691819097577 0.9164018447168991 -0.6245944914267566 1.5790360645251966
Ni 4.222147881206029 4.428676989393592 1.8350504291831253 -1.1661006988727658 0.7254827797034021 -0.4856957853446087
Ni 2.6904747028006586 8.674747196661635 6.650225317874296 -0.011355277111819153 -0.2104872169534117 0.26480639922126653
P 0.9189054195907927 5.036197299925001 7.376143193764802 0.5564389174964417 -1.629121154107046 1.26387898076552
P 0.08890103357828603 -0.041245072367789994 1.2303034148589056 0.6629797760731743 0.11403511007124877 0.47963363831092876
P 1.517525962107826 5.400573260608711 11.05268347472166 -0.6886501842560849 -0.7264849957156714 0.6349879188459386
P 7.628064892643951 3.041752752754762 12.368699506941889 -0.45515082267821616 1.5204737907102717 0.1032292777049964
P 3.1063126584873393 3.6470087723237796 13.418744190994376 1.2250586654642128 1.9566586138089461 0.3101483176911755
P 7.196938370743725 2.3272400920329512 6.301297160126284 0.5270465803772536 -0.03501971060829453 0.19725786274733123
P 7.379388677477564 8.360167228280925 12.66037331886322 0.705639776835546 0.33760924211560567 0.5341201993945833
P 4.179338054921138 7.131826198922759 12.030157633429498 -1.0413271193380904 1.540357417008076 0.604388963013159
Ni 5.924277987792408 3.351086193295784 7.890368273541317 -0.42117086618834565 -0.5616716266502907 -0.40142916478504415
Ni 2.9932085635854415 6.027662199538674 8.80992812844685 -1.8038055024292352 -1.6891314732224072 -0.02762084704106211
Ni 5.762703339199642 5.920890755783627 4.2570593819834865 0.20788628899545492 0.14294330846516673 0.7497866465560894
Ni 8.836588773863788 0.5055775132758361 7.140012623239634 0.2558407053875465 1.6923628356755112 -0.19687039750092547
Ni 7.416132781224991 7.52652156785898 5.815739292554519 -0.6916342065850734 -0.24212541268398305 -0.4872903835252382
Ni 1.706750732859227 4.138746497424608 1.6096430252074927 0.555959406756862 -0.00645244049356308 -0.18015231341529617
Ni 5.485778713612199 2.972949602576402 5.109274069184004 0.25112684485164494 0.7323879914636677 -0.5816398422421015
Ni 7.771285898232618 1.1870407303815373 0.0683309626727879 -0.7129159987819851 -0.8388458034082908 0.7212520294515061
Ni 6.344267143576807 3.270897157261821 10.296345862239251 -0.3259696009941483 -0.8599653589957252 0.9817605726283672
Ni 0.18870379974135457 4.4122194599596245 12.87973156828404 -2.355811323854988 1.7739992177010802 2.2080597953679004
Ni 2.768574332133553 8.66761375968662 0.151689085610618 1.019767905110076 -1.8767011621476968 0.7081044363259547
Ni 5.251139261525678 1.250155539849499 9.037342099210292 0.06815325993746972 0.09560107173577728 0.8312790468046263
Ni 1.732569172491374 2.108892489553881 6.800622100838086 0.30382366102472835 -0.14736483457163008 1.202694953057032
Ni 5.000723408180867 7.670340861710066 6.236767629028567 -1.4610085454651032 -0.41240391862899295 -0.5130983457272776
Ni 6.509726063657903 8.921867862345728 10.820823761946691 0.24679247914234914 -0.3008887467661205 -1.4059357728606754
Ni 7.780646808430797 0.697558091808294 4.962083190863309 -0.5925433765284828 0.029657932075748922 0.7266546885243163
Ni 3.2654941540304234 0.3723773758609735 4.577885479823866 1.216933979474549 -0.4189085525167302 -0.4788517658395817
Ni 3.305017997089404 2.346339294256375 9.972097555537827 0.024624997637531783 0.14267282841259943 1.465871015763727
Ni 0.9634926222368119 1.6328299169284701 9.19644259572708 -0.250871020087097 -0.7573611164692376 -0.26041418369084185
Ni 0.738231568774602 6.978360657394493 3.8178568889840636 1.0467423768163908 0.5989338534358588 1.5386460907439243
Ni 4.6665748114016035 5.0206233962324545 6.177761679258214 -0.25763662094570466 0.07266426043394582 0.25183389822099855
Ni 6.128119401016482 8.772332614479824 1.6812314373582902 0.028791727420711708 0.2095176539512908 0.5378840373123898
Ni 2.617833303308001 5.9954282688464176 12.935895188586155 0.4280927901191595 -1.272752629106066 -0.016035713306623997
Ni 5.527714118590474 4.445254176480044 0.02499188138652609 1.1019735293755537 -0.8232276372550597 -0.011949201942076196
P 5.550182143953067 8.141138497626176 4.155900802573425 -0.2756507981349382 0.3509998044898987 -0.47270734350474075
P 4.157247411385612 7.654914228974423 8.410440930750381 0.36387923155572816 1.8918981816031093 -1.9433410707644336
P 1.578173983047654 0.7828574300468083 11.097072782019339 1.2426771498769245 0.35190586124393586 0.4317221593416306
P 2.9910087036666955 1.0059342711294428 8.330432301638625 -0.221236999270748 -0.26073634291695097 -0.3200452650899133
P 8.360038366193635 5.798526999466421 4.808775965613713 -0.5417280936488283 0.7641498572562968 0.4115125171629751
P 7.979922821990862 5.669821387567557 0.5775782841059635 0.9014094850731249 0.7548764023741709 -1.87374825016696
P 4.677859448474335 4.535779792801671 9.346287112602482 -0.3359117998085247 -1.362069924715661 -0.7280885927573654
P 7.582733051222089 0.9527602512524683 9.073513687112758 0.3986418318478941 -0.24829811715359823 0.5533029429706213
