# total energy = -340876.13184652757 ev
CRYSTAL
PRIMVEC
9.20388702004075 0.00000000000000 0.00000000000000
0.00000000000000 9.20388702004075 0.00000000000000
0.00000000000000 0.00000000000000 13.47081899698511
PRIMCOORD
 96 1
Ni 2.375744155880593 5.794215090007393 3.8157042589896464 -0.08993358903735481 1.0498215299623468 0.5743456225735334
Ni 4.968497561994998 1.6400866632205537 6.773383505440189 -0.10415410351211095 -1.5887111257211155 -0.5174648502260895
Ni 8.481363562302052 1.6768193766688169 1.0935156680858984 2.038383184672947 -0.5376618939992547 -1.0769533531821325
Ni 5.257729714365748 1.3980980633754696 11.551214262493351 -0.038683275502810796 -0.5703691544242887 -1.0055970129263325
Ni 5.892540215982787 3.3766024516722406 13.203234685738215 0.5487505477132485 -1.574719953648346 0.6915730143298348
Ni 4.365781014723762 5.808803251073667 2.550564628388485 -0.6009434276667199 1.3066809064223948 -0.21760403050385105
Ni 1.8140861489984073 4.708901926112198 5.976328722659711 0.21390601282697352 0.1440457975007261 -0.006988001282058933
Ni 0.005266464203231297 6.080833338439455 0.6984903557402755 -0.2564911944873518 0.2863332175494488 0.09385812090274159
Ni 2.702086381071037 2.1351269352146094 2.086629813264825 -0.6382529627504556 -0.11496045009899558 -0.3834646098868234
Ni 9.213735267264513 3.0710333996846857 5.9222439208466255 -0.6572300180735907 -1.0840364852811588 0.5221236891543395
Ni 1.2759900931128523 6.016636225860744 10.520197589814726 -0.6811705880495882 -0.5382167380614601 -1.481598453801313
Ni 3.3396948643689246 7.986130008678726 11.357274555295888 -0.15353393949681945 -0.2406115471426179 0.38674945128568233
Ni 0.3523478082142644 7.074061611818522 2.864879213906118 -0.03249797262770532 -0.5245268992791935 -0.8921476001552248
Ni 7.992747603509421 6.719803997029336 11.773846167361476 -1.0148941219575425 0.47059852469185404 0.4367419811537253
Ni 0.4253714485296037 2.329154079339599 3.626667462454647 1.7118373994603548 -0.6179885560744647 -0.03313971997676228
Ni 6.162876788120693 0.3893603198306125 8.80392114911366 -2.5119477339716614 1.5303961920303064 1.3262346601846062
Ni 7.749553294453181 1.886244623925589 9.389389611944395 -0.5013962267990011 1.5539711511367689 0.5612304253478141
Ni 0.1415824749945591 4.617608569887361 7.866486839383647 -0.24628674315052423 -1.1542749098824314 0.5424261481571174
Ni 6.535937944271643 2.1176947730319458 2.0162587332140287 -1.444026666195126 1.099788605909093 -1.1289719123412685
Ni 7.7647213004072615 3.700330772923996 3.540440846082797 0.12783602051008305 0.1814221812666553 0.41489763158512416
Ni 7.624223963702743 7.197467330163376 4.514394339080167 0.8130237001388643 0.5889430607717342 -0.7115186042138263
Ni 3.3511260921571338 8.846895938798609 2.7279354980140202 -0.08085939465022848 -0.6276497333133126 0.0607094020649148
Ni 1.2505413452590692 7.093518629164959 12.462596049375293 0.2971660464988946 0.5472968459858575 -0.6241543185655444
Ni 6.822648231574786 8.99563995835195 6.647552562842363 0.8492744549407826 -0.9351683266911248 -1.6051186205448615
P 7.900119683653917 1.0892248159161213 3.1782246301112718 1.2014561955539242 0.637031945859161 2.2698979117206197
P 8.038067543629502 1.5110849815140004 7.278849020361543 0.045604428102676293 0.9577153587537056 -0.906913959831122
P 6.392780684192895 5.072179350267281 12.145290200547542 2.3654809857342682 0.6890070533748714 1.1950171247968
P 5.137922715880146 2.4698354937862788 9.46927198893266 1.717657605686558 0.3380005640167534 -1.2837065570144084
P 2.0315371858134066 0.4527751020051382 4.346373698367709 -0.8690788912612193 0.33428352017648233 0.38822500738994425
P 6.917374637690927 5.382221491389354 7.738863899965881 0.5785005252821714 -0.4215357057269321 0.3212292580956854
P 7.571025496218162 6.155660940627975 2.4035978794357113 0.46534293271986954 0.295229234487498 0.7786470224312074
P 0.9135548246281552 8.200884306571064 0.6900964106977259 -0.17634759495722532 0.936858055688722 1.8498027950949563
Ni 1.1861785627124135 7.5163912223447245 4.932757947965695 0.01870708949120004 0.8994629028697155 0.9068633090988447
Ni 3.396372401180351 6.702132533781862 6.534128460066198 -0.7190804757214841 2.623385772739695 -0.3989886736643516
Ni 6.254915659201281 3.553068579195054 6.84977668882579 1.4780837557798352 -0.08109825013391195 0.8164332400410457
Ni 8.422513908133123 5.424264847698966 5.624107007698827 0.4142803097160994 -0.7190989876642455 1.2747130952665466
Ni 3.7150938078453226 7.909047454148733 9.125200316005962 -0.11773132797591336 -0.7017121596463657 -3.060377408010381
Ni 4.678188554832604 5.460537366791827 8.539663744410628 -0.3919083697788025 -1.1023208854126436 -0.4220087887086087
Ni 5.137048346604881 6.025278675855212 10.834027130481763 -1.347580215739918 1.0138170868432799 -0.20570625062500056
Ni 3.782825213073528 8.922708356907691 5.391075630787306 -0.45887737960018393 0.17047236712337094 -0.4574622444202122
Ni 2.504073953828258 2.278707574100328 5.624417178694369 0.05077183123622869 -0.4734768746809136 -0.11062942682380947
Ni 4.821483873217974 1.5536253477274486 3.2850072079502604 -1.04047839818455 -0.34130006070363156 1.268663289528041
Ni 5.823142907188022 6.664976441526629 6.36272631123024 0.6889777427988328 0.5059033706407352 -0.692861137013639
Ni 3.552010132177627 3.132708647195788 7.823609610902044 0.1382502738648716 1.1293431796377582 0.4826809097776848
Ni 5.554067267583921 8.343250032358519 12.5434614015067 0.21163290052208067 -0.6434890143384143 -0.12879067111386852
Ni 8.853311048112927 0.4972363194580383 5.228415333926581 2.343273596399293 -1.9791423967337594 0.21097521233342376
Ni 8.085053387316142 5.993552876993733 9.444230052889052 0.34756095401167886 -0.31676042369105445 0.7374096130479751
Ni 3.5798795023408294 2.424653611972818 13.201577986058764 -0.20134077456745325 0.7038142935910331 1.8070420070886621
Ni 8.268063478572786 2.3271384280629337 12.10526893823557 -0.44346335903795886 -0.2553372833885667 -0.07114653823783876
Ni 0.6899813621088752 0.39104279039396567 11.656232455173724 1.0106271191510723 -0.6557524050867998 0.7517507122609957
Ni 0.8980113000800654 0.26546311391418853 2.5178310038886735 -0.49047392345954244 -0.6201608811354352 -0.7787444672410202
Ni 3.921490976243543 3.3213331095883474 11.051311576940108 0.3989873881127709 2.456453300448782 0.11607682309162591
Ni 8.358905844329328 8.81474676113016 8.524832600724702 1.5692406757013295 -0.6880714289344795 -0.06499851635857193
Ni 1.2758612386933395 4.441869549446085 2.233206317404217 0.17090071291004116 -0.6531288514210235 -2.0680334034392125
Ni 6.145242140421652 7.329046100260186 8.5961065821008 0.7187048375496202 -1.0343149496863153 0.14379408650123623
Ni 7.205382673076306 8.650715085090335 2.2611042196174544 -0.18228581481853123 -1.5207345005708262 -0.9985493620509318
P 6.693057501093317 1.082634832746751 13.154699827851287 0.286083563432488 0.17431333813601593 0.5333005317067655
P 4.2116435173251 3.6154617299005847 1.475728249188392 0.3750892413389346 0.3662870696662724 0.7677396314900842
P 8.811138837383801 7.57464262385163 6.551277142525935 -0.6493984378443138 0.7924083378813579 -1.5063414650739475
P 3.119409030324643 5.514674630761429 11.412949788801248 0.016254771295965555 -0.286901431348093 0.2198784283603245
P 4.78441981983382 8.508597864254797 7.237561303183503 -0.7059094855571648 0.4267059370739618 0.3791580120916696
P 0.1283169125057138 7.791072029197633 10.326015820386322 -0.9472242294143944 0.7073035376912141 0.24667163729376873
P 2.545206125314173 5.421393234921252 7.903558255877487 -1.035459861924036 -1.6166854994468545 1.4956217646635985
P 5.220095019980897 2.90766440351664 4.943197917112366 -0.5964619948565986 0.23901052120408517 0.2616776237842977
Ni 0.7534182336124603 6.8129289267886755 8.144187441596712 0.8434079688576765 -0.1537583968027997 1.38250710952409
Ni 4.26915860786336 4.6603974410527265 6.098145850089714 -0.6596514830308897 -0.9937462842353336 -0.3537444571145714
Ni 1.6705975489837692 8.549002928659176 7.0587629106675065 1.0809650454446866 2.0169666666703847 -0.7016118866230755
Ni 6.135081049054355 4.980287741380422 4.708199669525852 -0.05014011118950074 0.06772619970238014 -1.3928113196635754
Ni 8.260405844498882 8.738658226407837 13.139747192855536 -0.3457172159347207 -0.32585210157967753 1.4406222684992673
Ni 5.009307597432131 0.42638203533406854 1.0361266708010188 0.555253638939089 0.613578342821911 0.6240401615851834
Ni 8.147906732377077 4.0592915740254005 1.0754815716863677 0.6041521644120046 -0.3236918607035651 -0.6218017591729679
Ni 4.518979715637402 5.425268071393745 13.459705601947828 0.18301600811633642 0.4028568983705062 -0.014290448480743132
Ni 2.0487944741410167 4.026534939807819 9.645322100758188 0.0360419812252218 -0.09055631022301823 -1.102409845582024
Ni 5.806152531586545 8.490401779442164 4.241906818525108 -0.9023247977985427 0.7567985590975482 -0.27958175775822813
Ni 2.087275926139811 4.890310541012038 13.184160550095472 -0.43543946029221786 -1.0886027644956027 0.3661178910782598
Ni 3.20050447963375 1.5956134807144131 9.630652025096653 0.26525402828164635 -1.2525923521081073 0.3706839131823874
Ni 6.129659959547707 4.550668698950449 2.070410723403004 0.10185939394066329 -0.6988626060127126 -0.3270821173320367
Ni 6.87208230923217 6.852855389063436 0.5123546244217358 -1.2681940632011062 -0.8608896705822077 -0.29349296852268164
Ni 1.713064284100353 8.959385847033305 9.46513668245501 -0.3402397377599172 -1.2065554644537027 -0.5976495874067965
Ni 2.453360535862853 6.60963346834587 1.2479771423107642 -0.8454689651517633 0.5296667916089199 0.7423813552309537
Ni 7.5620517062878045 -0.10528418501779645 10.95564177239539 -0.9265314769517334 0.17792882340141614 -0.7141408723280217
Ni 1.5361471661092447 2.935542977566951 11.736505076975371 -0.30247280342378874 -0.22157638488803774 0.7469316936057975
Ni 8.954756291817953 4.712132490487126 12.138771087308902 -0.01589713084623069 -0.7836691582361472 0.4521102360796794
Ni 7.055166031585677 1.7228204044348951 5.172242170128676 -1.8126418697739426 1.485097982314139 -0.7903499126904324
Ni 2.950094323084792 8.998557590565204 -0.02571934213475976 -0.9935675925656243 -0.4435680029366232 1.5957891156138193
Ni 3.57314225697773 3.8279334637901243 3.8032974191679836 0.4073969523327048 -1.0116918129701609 -0.4768550471245272
Ni 0.8501547686730023 1.7514536972280663 9.802513447899305 -0.719272022907 1.9171883236284657 -1.470145731879681
Ni 6.454759659978564 4.264004431082847 10.059616671153243 0.45254346696235614 -1.4346886766236517 -0.8702405156694883
P 1.1005548009461417 2.8399329982884347 0.41785095237360875 -0.18885524050593283 0.6611010709932227 0.9222241078256311
P 0.5657077172097316 4.454285593154856 4.165648932279997 -0.10813442831609765 0.4277037822108569 1.1657669696824309
P 8.821677288122528 3.6701328193224545 10.237391591422822 0.7007623941385867 0.46323000014192484 -0.6156339397993591
P 2.0791765054847193 1.5425990909719942 7.704445964125295 -0.7544935651134554 -0.7154194819301292 0.39135661104039055
P 4.569969250216048 6.641994335417806 4.583931546958974 -0.690169963334721 0.01707058232904157 -0.9876861940841829
P 2.8816266068879415 1.1017697140444054 11.798134305050933 -0.7664612789982929 -0.9260434815717212 -2.3395768642739965
P 4.3333189048936385 7.5569711606041565 1.0422021566810484 1.559451971745682 -0.0320058634826352 -0.28061765522191023
P 5.344798486407986 8.11000512526609 10.372611419259579 1.5493225966211641 2.0906686243402253 2.0350122113181857
