# total energy = -340857.070485467 ev
CRYSTAL
PRIMVEC
9.41803853803260 0.00000000000000 0.00000000000000

0.00000000000000 9.41803853803260 0.00000000000000

0.00000000000000 0.00000000000000 13.78425139033788

PRIMCOORD
 96 1
Ni 0.6488557448876118 5.493739487097563 9.8982225757189 0.9636684910133468 0.6589822248780071 -0.685087149495175
Ni 3.426244641369238 6.724714757868888 9.698681657618772 -0.06052659663014737 -0.14384165190972 1.0720451172472374
Ni 6.352212509203603 5.332775795452681 4.6359059497883575 -0.6277749460372672 -0.9163871894288799 -0.19375242069723406
Ni 8.714567296305631 3.3730703974381044 11.677507556878298 -0.9804899334460597 0.9295514947249798 0.16906623080446367
Ni 7.774741259839492 8.677121176243608 7.231121732497415 -0.6064111356495104 0.20928445489456218 -0.23851866916933112
Ni 1.9765825225495737 5.435705535432022 1.9478527968832746 -2.1374665585303703 0.13418124600182052 -1.0074700615793295
Ni 4.355070409165247 0.05696500432473649 7.9161851254178375 -0.021339384907724537 -0.5833622242498469 0.2590630689795861
Ni 8.697125089475938 5.299718481212816 4.781425942319128 -0.9261311561895212 0.6987379075093901 0.5061548245299089
Ni 7.369840959611489 7.450694817944607 5.024993363803046 2.7818094362286474 -0.6063784826393622 -0.5814212984733922
Ni 3.7708412427146594 8.683167556796883 11.228595822127701 1.2272633864250155 1.0845795022688225 -0.435533819778237
Ni 6.15829510173955 4.553282442069009 13.712958469281919 0.1768525596181019 0.00011827074541915116 1.1470305696151923
Ni 5.691019134215073 0.9200406217210958 11.763355800892727 0.5527714959471836 -1.4467268387351084 0.8444765193315068
Ni 5.391779805057454 8.05024713261977 5.046427877044786 -1.457293044286729 0.9192159171269266 1.183498068413607
Ni 1.4752038385400388 4.429698944218435 11.655466521973583 0.055800651909387766 0.5656442381447936 1.9034159524347218
Ni 8.399882384426254 2.6698160636475112 0.05458412425640659 -0.7550270690194223 0.5535682808168659 2.083664167997934
Ni 4.678740129530332 0.886601876932309 2.1025393660378806 -2.2910416356777703 1.6414894458644118 1.0913078221315917
Ni 0.7471857149881068 3.677838115045523 5.260870015256114 -0.9027528864748968 -2.097978270627761 0.22737293696515679
Ni 8.892229169758856 7.59782341140762 10.840072548603887 -0.1747159728910733 -1.1872392806235939 -2.1901348354583634
Ni 2.045805103650146 7.103253969049203 7.744626140747357 0.16119968357219333 -0.861241911715304 -0.07173172131734742
Ni 0.03350278744885262 8.677450807582183 5.30831526652283 0.8562033208501318 -0.18032200622394107 1.0374385829169617
Ni 1.0663479622491467 4.8509960490309405 7.526145547736582 2.8700592098056763 -0.5294963274693267 -1.6503520384613644
Ni 0.28051438551895697 2.874771411934676 2.310351205324747 -0.6843800961258213 0.26879829398947896 -1.218932755072133
Ni 1.4990032211850928 1.1892062711548568 1.1420416774278421 0.6193484125364688 -0.13197421104817272 -0.5732367057800708
Ni 3.578647336249437 6.703524171817692 1.1855492469043327 0.3373441613796771 2.3259060516551235 -1.4063594906616554
P 4.65448868104952 1.1507147488476404 9.914983858383483 -0.40433065470255525 -0.35076429144032495 -0.7888432462379188
P 3.93246419703669 4.6977363126704486 0.3018189298329169 0.11911355303542068 1.0694053656315454 -0.21225587881806024
P 2.675438632479762 1.3092768407400541 3.082324255169805 0.47073607871098283 0.582960617936054 0.14295976352539896
P 0.2864364479673978 1.3056226419010033 8.726533855699698 -1.2863961880314296 -0.5308790667494664 -0.2507625195336907
P 0.4262509929293624 6.651687289317345 6.258532224584653 0.35552366050218126 0.48978538203294997 -0.7084052553958251
P 0.20821022230462832 1.573377469205667 12.646843132577423 0.854008370081342 -1.063126217491053 -0.6885943913174851
P 4.272464795718564 7.273249559371016 7.642594881616586 0.04508455104346429 -0.324415369133151 0.20386636920278436
P 2.031828734894602 7.681276648296351 2.8797507287547948 -1.2841606138326918 0.026200569654767778 -0.7780101601781568
Ni 0.9422276362186098 2.47344054820152 10.528990036353212 -3.3724936480612047 -0.536298695103141 -0.5955076013631293
Ni 1.1764919195241395 7.998127708972073 0.8064807419746503 -0.20282224420898617 0.051405865275801786 1.4227237909522916
Ni 6.220990982336354 9.122001048821533 1.1666576039887355 -0.19458957188654874 -2.0301276295323745 0.6658128746465952
Ni 5.65709536045667 5.424997225947485 9.359299824049593 -0.906959982577709 0.26251760318708983 -0.9134540749424848
Ni 8.01549457149581 2.819167314136339 3.9222945993397653 0.8529375056146665 -0.5014633325915107 1.9619165197737762
Ni 3.9842539893458127 8.172276654159923 3.327821432690117 0.45246016321993043 0.15298346630998813 -0.7619965583587198
Ni 7.737860222072166 5.164588468473902 10.198388639839823 0.13754656292962764 -0.3220414695843357 -0.27611282537302123
Ni 2.8914036674753034 7.769363560001611 5.715060560443022 -0.024343461841370977 -0.6427482795176479 -1.2240289386481178
Ni 8.52801479474915 0.2967171785156134 1.2827735393148674 1.085250560193918 2.4126039073639998 0.18739742501348372
Ni 4.861016841723595 5.618575584034718 2.6984327728548707 1.046488608934372 -0.25344546568249254 0.10998459415095896
Ni 8.174989049174474 0.7204968782094942 10.944488455018284 0.03312532179905908 1.4100762773916102 -0.4776112085642613
Ni 1.4990314752998277 6.074710012315389 4.159177097277398 0.2557548305419595 -0.5586793767911863 1.692294701441737
Ni 7.652240836387091 2.797025506222401 6.402205339815583 1.0773264202508348 -1.1093495101246507 -2.1806124977902255
Ni 4.619293472128045 3.327543600561891 9.061821668043786 0.2641273708763709 -1.160200788448563 0.7041745051439292
Ni 9.0162458973687 3.481359001178836 8.438291027996915 -0.9469596628990983 -1.4635405678583375 1.186441210202331
Ni 7.023916414873526 4.075674886589793 2.405655159737131 -0.2712372424482748 0.8806403708465737 -1.7596095246383114
Ni 3.9811083645719907 3.4782698846344844 1.9473564662677645 0.6950851412481514 -1.5382108029787185 -0.11018693996975217
Ni 2.146559276794898 3.641795282682 3.265474961312202 0.6738696835128009 -0.9879857276024726 2.2880023346308147
Ni 0.5599974958500891 0.7803767653710507 3.362489231469874 0.7674326417726267 -0.29871205082977587 0.8646974743640721
Ni 6.333225744101731 9.27379157121581 9.635949988476636 0.5392760325639099 1.0295031301199689 -1.4009007815399293
Ni 3.8240908309517527 0.40890673369741487 5.246244743665492 0.047735615513066175 1.7222249133422662 -0.22236108557286222
Ni 4.434276110805494 6.974113828634094 12.637621931331767 0.9621736516353753 0.043040781140558135 0.7742501789150924
Ni 2.05792611887143 0.2557750826570544 12.686087156140413 -1.468263941475936 0.5852488997495985 -1.4561877270376922
Ni 3.8396023399412282 2.1277608724579262 13.289630835423797 -0.7953810473564366 -0.6745014035595287 0.41429342234222205
P 6.982185087410038 2.9397558758250097 10.579854035502853 0.4802802707559922 -1.0613701540318947 -1.8658770749489995
P 5.896897450250245 5.422821659112896 11.752259468232497 1.0241259249684556 0.6209658935352338 -0.7794728607666124
P 7.259706420374742 7.395147228375739 9.01728470698712 1.215590063852145 -0.49154015994052763 -0.6987448494879256
P 6.882966054499217 8.415214950689075 13.051811242680788 0.4470824438477849 0.3822788171088384 -1.6387375941508873
P 7.185501697042577 4.357716877912085 7.6287145768511415 -0.3031117225593683 -0.024646852014402712 1.0280005774325136
P 6.194667565441647 7.408370154071685 2.7904422974891627 0.37207822242675276 0.39113575327883604 0.5092103235267812
P 0.6197945042750899 1.3262387276192555 5.7867525511714275 -0.6433738289167886 1.5546944024560385 -1.2686152098989247
P 3.8137498249587694 4.7487067356522585 4.392447777548083 -0.36475314952024923 -1.804336949452673 -1.483940214560612
Ni 5.471126777271376 3.057264739007574 3.8007453977501067 -0.5586202414184765 -0.16724100467026679 0.7299886379935557
Ni 7.943493669112969 7.6407602477664645 1.0526136370764985 0.29224598348945796 -3.201463608662151 -0.34716140458041495
Ni 8.407661684016604 5.648251822544637 12.372909130380231 0.2664210520065541 0.4080605540586328 1.4371343099506668
Ni 1.8530555329284701 6.963659806182171 12.614947062453163 1.1201725688820836 -0.4986276629149283 -0.4319954676076753
Ni 3.774099883947421 4.838225189170754 11.94596967885516 -0.5831873892348794 -0.3546055195632861 -0.7091033099041143
Ni 5.252665962140916 3.739507429473625 6.856810278685271 0.5340037284213771 0.024743011272634806 -0.9224711908394307
Ni 5.492138420595917 3.1929598340411856 11.980016828914573 -0.4708034416138085 0.20394504495951973 -0.15082014011008218
Ni 8.700421402861679 5.949139308395126 7.99372100887725 -1.3118377680329858 1.937711383282482 0.7608259350893865
Ni 3.4380642793666825 5.112082905258161 7.8915108070198245 -0.1075639005246083 -0.39214671104185367 1.2130924942412722
Ni 6.007832522737815 7.365066014221286 10.700645085013791 -0.21843398260431413 -0.7192794791061677 2.591812368808788
Ni 9.037248122654995 7.489638406087582 3.253620476573251 1.1843051376959346 -1.0164100443814366 -0.9069219302509219
Ni 2.846507879161504 3.6382729363783795 6.0563448377376865 1.1860498883011832 -0.21177019743089337 -0.24679659290740721
Ni 6.526352036353206 1.7465846105690181 8.138221969669914 -0.7940710702957615 -0.044546162041491026 0.5476249187492376
Ni 6.6246857736689995 6.30473617841068 7.052560436391796 -2.0493003458060834 1.028959598911673 -0.4472814472324684
Ni 1.8787008510695393 0.0661720785130249 6.940273875416071 0.288958828097754 0.9812059856764779 0.6846737161068402
Ni 6.07255328155729 1.7285019771386645 0.23812473718214514 0.9261555816695534 1.7108087010855246 0.17071919302685437
Ni 2.0346353102916046 2.486418604903097 8.063593434616726 0.3312920416483262 0.2552244119597863 0.26685068334480494
Ni 2.975092355320159 2.283450462685622 10.524303620522511 4.406606766149359 -0.32497689806357577 2.432703249217036
Ni 1.9306601680670714 0.4729512773708997 9.764900826323021 0.8667687550708041 -1.7712831043214976 -0.6533008582225136
Ni 9.218253399685185 8.80514998814581 12.591499914438472 -0.62163823701191 0.2863208762542746 2.605834394119493
Ni 0.41010941718129834 8.304901468725673 8.542885877137968 -1.574479812613082 1.1024183302224562 1.3773960135497696
Ni 1.9965016734376975 3.6727523743932355 0.19414438218575686 -0.6625586293753557 0.054621029778989805 0.16517538039048973
Ni 4.409186456920878 5.923390391833362 5.926800663481868 0.7368324003882666 0.8507219860205864 0.32177690306903933
Ni 7.802185423285351 0.009725066291762072 3.6769490522351966 -0.8586520395009406 -0.7483170039890983 1.3612152900248493
P 2.6983244654150536 4.186317999891769 9.83489757016733 -0.5748724416112809 2.0698174919228287 -1.0883531103786417
P 0.6629206432026588 5.790200494972913 0.12985402771407814 -0.7565435056639487 -0.5894572814039912 -0.2690590038500334
P 6.61501344839141 0.5584039637790392 5.713888956485347 0.2205638844631234 -0.49541815483869517 0.20571087861069087
P 1.8119457959891505 8.062650688988404 10.863657199976956 -1.8360471360717605 -0.24754144149323176 -1.8701844440751016
P 6.964601610006668 1.5135258361588453 2.624094313379627 -1.925281899269878 1.6066625679932136 -2.3995607010267963
P 9.038444213512108 4.915490774932536 2.697095411424084 0.31770530410282705 0.3285116506897116 0.2240734402782786
P 3.9893491480363443 1.9136700270731348 7.004411657668181 -0.4005909851544649 0.8501686846202777 -0.767429042228201
P 3.625963560392196 9.315409882220356 0.12494628798462122 1.844394222484875 -0.16121228197768364 1.2266314092679713
