# total energy = -340869.3867021646 ev
CRYSTAL
PRIMVEC
9.25053192032223 0.00000000000000 0.00000000000000
0.00000000000000 9.25053192032223 0.00000000000000
0.00000000000000 0.00000000000000 13.53908852348610
PRIMCOORD
 96 1
Ni 5.515629682501354 3.6555142144648975 6.9567497057325225 -0.16665967824550007 0.5811623883850507 1.1636833476805248
Ni 7.470119077616852 2.918542834095056 11.832391510009632 0.3718059426019726 -0.36014830375838625 1.1116043675970986
Ni 6.626331804678721 8.585520470031051 7.899638852635611 0.273449162497929 -0.49730997254476933 1.113025673424657
Ni 1.7348632652673692 5.684710905707659 10.619506161670678 -0.12362558197316127 -1.014645496281846 -0.392367311693092
Ni 0.6049302121936466 5.338407991168254 1.868611156590602 -1.0895407029288398 -0.21331697309272296 -0.4772132017948943
Ni 5.774487318401456 6.748781096263241 9.364554019233319 -1.3601593379565091 0.5473683226537412 0.09355395939876146
Ni 2.3400238157068762 2.4800768696155897 11.981619241518523 -1.0743002318300015 -0.8668957675669715 -0.614466144743503
Ni 7.88328483717952 0.05554111895464382 5.206226214906232 0.8676930666572863 1.5038318112782165 0.9639965637767268
Ni 7.698930985703513 0.47047002990931924 2.8419900568413206 -0.9779185731744579 0.43919121402516625 -0.4674486662089627
Ni 3.264780994910726 4.871413386117158 6.49183092005376 -0.10819844878481366 -0.5604040727917767 0.8911690382920393
Ni 5.593158390877109 4.497895406544765 1.7823804727979433 0.11873071577470522 -0.07807900369161393 -0.4013196357903734
Ni -0.043717089000474885 0.9743215294576731 11.875662723369526 -0.36875507159079074 0.29551668382092977 -0.18617280857776325
Ni 4.719491899700857 2.8910595036351627 12.446917299007739 0.7087117308926504 0.7010554998989733 -1.5968571518670176
Ni 2.1219702762923323 3.1264392894150315 3.8164660701827633 -0.6804211114780733 -2.0305976271902577 -0.49658774966676406
Ni 1.6985179251876246 8.242862265084778 7.033407939050628 -1.0375676522956583 0.3543566367772736 0.42158095714257077
Ni 4.314226094433965 7.758106638666131 11.921884856425383 0.26660591432385056 2.450356443522425 -0.6902645799310564
Ni 3.1374566729820907 7.372562967542791 9.658149252758122 0.11688157838110838 -0.559082782877192 0.1257750242159963
Ni 0.7496288832538105 7.971146389757127 1.3149510927446209 1.377922318366885 0.3353261025083838 -1.354020829158939
Ni 7.894422477662089 5.9618383422332375 0.46582718791745775 -1.0737667279240346 -0.4790849648963104 0.3911113277988038
Ni 0.6715599438114592 5.704433039851211 12.826458299940763 0.2766010778633494 3.272824576903641 1.4599459085285436
Ni 8.739911848481277 7.992598373377622 12.883160360656673 -0.8001069920771963 0.503489876103236 -0.18106762614071395
Ni 6.179429355049669 1.8632606489036272 10.136743099836703 -0.30788908934335363 -1.7819331278361763 -0.9835557168555771
Ni 8.538398260215265 0.5738114226725823 7.587440799334689 0.2265743523232614 2.350453144866868 0.41071213274886686
Ni 2.546921213574927 6.826106292935826 5.563089536733762 1.0291074373434468 0.019836575109952934 -1.8122790871178853
P 6.10466655573063 4.773616762212077 12.916290215826333 0.014687426808845674 -0.5734562779900447 -0.5845870977958836
P 4.496036049620349 0.7558766925411251 0.7046185698850107 -1.8811815665165539 2.667993127036424 -0.4225176100242272
P 1.6271685721626636 5.02966223639565 4.445302432126495 -0.05859312705286038 2.4994496015046503 0.30905328485478384
P 3.5649330054903845 3.1142933409485756 10.292969783828244 0.6984982806947583 0.8218916920524556 1.8506792841626387
P 4.157207564906455 6.807077948689445 7.3752428466522595 -0.5198235802662532 0.6173408951881368 0.35068381591137665
P 8.013846845294948 4.29012845867226 2.0531620443974057 -2.9987385521526613 2.489735716650996 0.31877385457665747
P 9.345812441477765 2.9471362283904217 7.782051640650457 -0.2539172631125885 -1.6422646334675395 -1.761888036259843
P 5.817539294153843 8.891555818938711 10.992751250550187 0.9183743950622377 0.2855102074275212 -2.2371847377583145
Ni 2.9426497203887223 0.1566253819191139 12.777650643201452 -0.3761025130947975 1.2241528658204919 0.16071863017071675
Ni 5.710815906905175 8.673585534311828 1.5745552465740773 1.7975839469995556 -0.6075650467482956 1.9335114862685219
Ni 8.3548677060839 5.2800186334224275 4.625047668578901 -1.4715978909451752 -0.7300886539065298 -1.805424268979581
Ni 8.813444327049334 7.570043323873254 3.249814559248975 -0.4086161694517866 -0.2081850511827963 1.2694060812313364
Ni 6.007489717467022 0.8739773090501843 12.682606052555148 0.8621983620913022 -0.26852961370912465 0.08770649947904895
Ni 0.6930415291342343 3.5142493408691267 5.8153903955790085 0.3560188549710449 0.6595602088686641 -0.27029313336745064
Ni 8.26535955881701 5.160908783876286 11.551171638143948 -3.3197451527145794 0.3240335603137 -0.8074567475740481
Ni 0.7478925584044931 1.1493878468435652 5.6817729367564445 -0.3693579952821123 -0.19008602758924037 0.026996068972869637
Ni 8.982035272061639 4.264319474497537 9.324803558338262 -2.032334407375706 2.0514253625688865 2.215786988808829
Ni 1.0843751082127566 1.044699576626596 0.3322328554247986 -0.05405975795888109 -0.1892373064356999 1.524571357818413
Ni 5.704035266976834 4.052778309584428 10.49053246989317 0.26266364184665086 0.5140622523024436 0.13859274480595485
Ni 3.445619644241072 8.099747285096555 1.1016865537269422 -0.8073050524875321 -1.1209261592186566 1.2875231025470213
Ni 3.8981094151753344 3.1184560803315957 0.9266581635220954 -1.1038717748395313 -0.6799323447671128 0.8627663187796302
Ni 1.5598709521371754 7.785108941463987 11.575758627046456 0.062432812513924726 0.6706722596214256 0.09253117456120193
Ni 4.096801591192855 4.121306250360899 4.289440219094268 0.8910937049694136 -0.6802586177582801 -0.2984418278875247
Ni 8.06842498387232 6.584352890633956 8.64722614348535 1.1471411270511276 0.5810803701942058 0.559186655444908
Ni 4.371394381960771 5.65953095770637 11.513965998591713 -0.7179075384593055 -2.397240794644368 0.4578533092110437
Ni 5.373689520072339 6.678486303881979 0.32974816253973377 -0.4092340055414436 -0.8114460712390993 0.42642877215317526
Ni 7.639024540715875 2.4261832704034254 5.974258106445776 -0.6517329995147615 0.0926396751146082 1.0178323786502599
Ni 6.551763266530892 6.811980730629446 11.789878840270646 0.9347559217440546 0.47429114305209286 -0.6723118521073776
Ni 1.3192923673945125 0.801761181180359 2.7923017494592024 0.29528477031578176 -0.7834187327882379 0.8849755078868178
Ni 4.214986387542771 1.7427539690311826 2.882282598909364 0.46543214999956617 -0.7667217317485311 0.45898588015359015
Ni 1.810236599695916 3.8164179674165593 8.760155712627501 1.6380189708173079 -2.093668330398497 -0.41201465361037426
Ni 0.3201997634482823 6.070680101301264 6.225692190446159 0.9603342844337913 1.114988453577983 0.6301712141835857
P 2.9379319490879663 6.671132130971977 13.047037234581007 -1.5682371741374799 -1.246199561207886 0.5849365107155022
P 4.538505241859114 6.454364415500189 2.4944827230404276 -0.778234617484137 -0.017189367295092975 -0.16109221146005162
P 6.01597245527642 1.4949877209538387 7.657437724586766 -0.16685019698975137 -0.6048617888845196 0.0938421800631416
P 1.7598489520974507 8.77441633270053 4.612036795373974 -0.5981560947295699 -2.9247442600533824 -0.7235104864683798
P 5.781499221628853 0.332422491330025 4.22301769939241 0.10106106640908402 -0.2989066833390852 -0.4639401388350719
P 7.855523990760759 8.11507541655803 1.3535461621975888 -0.5972040152289457 -1.0437904932769184 -0.06726108714050351
P 1.4777817315040231 0.38344657552749417 10.370765832577709 0.5333671232786428 0.4349494080296767 -0.32259502809496055
P 6.234285009585908 4.566182833490215 5.034564093282454 0.8937018320162221 -1.02543461647755 0.30273557016687214
Ni 3.901522861469411 8.975578400751976 8.329978224786226 0.2569658201309252 0.1758068919624069 -0.5077352816431514
Ni 3.7815619629827397 0.8250567958209346 10.633031364452709 -0.057207816669559534 -0.1530019782527494 -0.06166662377186154
Ni 4.997766402189755 6.217014266412356 4.700135161569814 -1.8616059583774711 0.8685029641530913 -0.39771803448204407
Ni 1.3145560950298323 5.997462140819925 8.277839451487303 0.628894147243375 0.9890226535074192 0.2671892976311463
Ni 6.2688727485928215 6.127866889891995 6.699587692341105 -0.4840801041180566 0.709408756959675 1.1289066063209718
Ni 7.912951293182508 9.26126257934265 10.003423508143323 -1.359629176484652 -2.1486202611543446 0.4808320294944041
Ni 1.8252872151985235 6.925068483868152 3.041380648021992 1.1795000029978073 0.8843497013773608 1.8360389085416446
Ni 2.8026521696717825 5.004537791586134 2.1867656274220275 1.74137140436373 -0.8649916085657231 0.08605610835981953
Ni 5.04272398752637 1.994386939468754 5.428186253968442 1.2122933953787445 -0.21179256602839655 -0.16400501423147237
Ni 9.030156539329349 1.877386211210008 9.53824755767601 0.6141265020158971 0.2862545417927135 1.6131756865213829
Ni 6.579181843267049 2.8210329766808053 3.705797331052189 0.1725287354317674 0.4621701914188428 -1.157335036864994
Ni 7.934403276803005 4.4933718964152165 7.114452774625241 0.07866418677112258 0.21239446127845357 -0.40877274963430893
Ni 6.189734447655632 2.3050568048895093 1.1033831012888218 0.14079412333264782 -0.7535183456843797 0.4702043745772289
Ni 2.3271840773432504 4.442197953599958 13.166925978918371 3.1082127823261048 0.08661198086328954 0.7929454413317505
Ni 1.684503369264791 0.9655057724976331 8.160266115300095 -0.3166259549957192 0.5514851730355922 0.7789385855296972
Ni 9.524902740267244 3.310164104717605 13.567656248364166 -0.40830326619705815 0.4961524619015584 -0.59527311675482
Ni 4.083638084210549 8.32727336924046 3.649840863212439 -0.6882539772589308 0.2240749829401754 0.21780534788137973
Ni 2.987773815300658 1.0297692180394982 5.110681170480768 1.413504586346869 0.9635923863597727 0.1409591881556024
Ni 5.0827417887951345 8.791391058851291 6.337227704421597 -0.9261357841752115 -0.3996625598029246 -2.248425857889773
Ni 3.673571252855241 2.0392335184218213 8.55464589455379 2.0068596601433693 0.28167412151088267 -1.1276807043336707
Ni 6.7703163346713975 7.545954938643513 4.793812523592098 -0.04254507245106222 -0.5105292994485208 -0.5198824585286466
Ni 6.7024266806003245 6.279131588538975 2.717769288386026 1.4644772207399939 0.7959189221377776 0.2422917630585182
Ni 9.044152594188258 2.561120780137006 2.1699500104210196 -0.2972539782270106 -1.4225798091752597 0.4025463091086228
Ni 3.7261975291885747 4.9525035492983855 9.148660479031962 1.002650528703499 1.2332170329052892 -0.3590177896983688
P 8.73886653836954 7.195572539508747 10.882448832485318 -0.08375548525110092 -0.022923698675708908 -1.2028803295949608
P 1.9067011469984303 2.766390084379698 1.7122475647260202 0.8360576991401923 0.0018416811944290863 -1.3273286645797335
P 8.598101193499733 1.9692532441272759 4.161401756098146 1.2367348162505605 -0.3834219295743461 0.6270740633155006
P 3.208704270155467 2.6863729829060934 6.571954402644931 -0.6387252744011839 0.3545129598494798 -0.5068685627674818
P 8.043883322576427 1.6104066082470367 13.776428729060967 0.4165130557013601 -0.08695573735595347 -1.0634411776283106
P 8.622550349476004 7.92406118206919 6.945227243120324 0.1482377240948866 -1.7965153965257254 -0.9687919282828411
P 0.6643713554235819 3.949422115970026 11.48028018645112 0.9768289396547047 -1.885334412342663 -0.8404069772478236
P 6.656830808558314 4.875474369648592 8.83325341619333 0.3738854508388206 -0.470040595305855 -0.956001204276076
