# total energy = -340894.89702609676 ev
CRYSTAL
PRIMVEC
9.05513116655617 0.00000000000000 0.00000000000000
0.00000000000000 9.05513116655617 0.00000000000000
0.00000000000000 0.00000000000000 13.25309976894635
PRIMCOORD
 96 1
Ni 6.310167756245581 2.0679384135850847 11.425577058205466 0.2234777156758087 -0.917485050478749 0.15258777353346625
Ni 4.715722151088692 0.47889057211349095 5.997531203281131 -0.7601325085667877 -1.7461171465788317 -0.07245188731282362
Ni 2.683451899148256 1.4602395062141784 4.778736808840688 0.1310488710204259 -0.13004819767005343 -0.21608245165300205
Ni 3.5540393743961447 4.3832177348430745 5.082762837583787 0.2842192565302396 -0.46129421657179265 -0.3186746099946318
Ni 4.977687095587215 4.466126515756606 2.5282677778439937 0.37155526004374717 0.07943706038140513 0.6468340195512473
Ni 7.457661142408257 6.323623681151382 2.754378024995943 -1.1589046953449589 -0.8418632500783759 -1.0898770032223357
Ni 4.937581919673494 4.50671161362188 11.372100170105744 1.1589692300343073 0.44350886756391367 0.19779907996278195
Ni 5.646037271476998 7.8725219765665635 12.778890859126804 -0.8807051626462382 0.7351329011986565 -1.0724423526856561
Ni 1.851004636352071 6.356883177907104 0.36444548590424547 0.7479429084791313 1.0293460357168143 -0.6574233650313194
Ni 2.6973062498251568 1.4616158861507071 0.6141959639791915 -0.3608679555332301 0.07431388022222685 -1.603846181590341
Ni 0.5862454906233814 -0.15930782803515212 4.612197553060064 0.2155774869921255 0.3628641600276525 0.7335264759434851
Ni 8.645703405911561 2.309121832068256 1.2326976428256158 0.309939287004163 0.49476149509130274 0.9705415639840962
Ni 6.821175973075346 0.6798891295287207 4.530359994162922 0.9643824863612359 0.052141715000561806 1.3688812912105393
Ni 0.6391835984190004 7.24908525123719 2.4980897422224855 1.1736337740250173 0.23967823669507113 0.3063572260798595
Ni 7.372189759376057 3.833507887429601 3.776218789110942 0.9384755366874871 -0.06448146751283733 -0.20968811809088403
Ni 7.535960861560651 3.8407791577521837 12.669062078783627 0.8190189984903506 0.018547938205516444 -0.4892482785825574
Ni 8.10331915960764 8.905051417504447 6.973264145035536 -1.4116269097081817 0.8505520361016254 -0.3063801088979949
Ni 6.87383156077873 0.8698820805304176 0.3729926242074655 -1.1284720898867147 -0.7351313585367597 0.31403454011945914
Ni 1.7717450732965725 6.792172387965468 9.275791125078964 0.3611921716418683 -0.7715065547316843 -0.9465817107343892
Ni 9.312025232421197 5.085805361654009 1.4062337984546334 -0.9534360146520612 -2.0279121099382946 0.6219092312851096
Ni 6.482396350934896 1.7734564930860721 6.960501843176696 0.6351128744595771 0.7798312725472957 0.5001530984205192
Ni 3.3204441558262046 4.3802748172156285 0.48459168269269143 0.594641396708092 -0.10754513147153091 -0.4709430525154663
Ni 6.102461157666006 5.785323299001238 4.661644907792973 -0.7396937810964616 -1.0571286051467212 0.6667675252503806
Ni 5.348558102563571 2.7963965501240624 9.225390265034761 -0.0936362346999226 0.45531203084642874 0.6192368266592689
P 0.17546308754015777 5.505691793606877 12.408519695390556 -0.077763272223408 0.567650469941545 -0.29678295212786304
P 4.126142561171694 6.204856580838813 12.465865841035532 -0.04201156854509539 0.43744543497865307 0.9922558157327362
P 2.4127578082101704 8.295134002999005 1.4020720601728665 -0.8856614782102489 0.5916784574250261 -0.15197430831918343
P 6.451038431723061 7.738723358526115 5.703352629676024 -0.706399537819706 0.7306054456419482 1.0883088874042677
P 4.676712646045497 1.1626516757268148 12.75304660927913 -0.13336466363779612 -1.3774232672432793 -1.0633650729747364
P 4.185824930656303 6.191092781473525 8.125131159549154 -0.759977213935846 -0.01022219194864046 -0.10469017852123907
P 4.656619309998411 0.9534600356367747 3.7388057036914972 0.11595443858114868 -0.4593931428943378 -0.05268216088506411
P 0.0584119345826691 5.401802273792444 3.7195218963702374 1.6105397915604327 0.12903106925944877 0.02048037934153892
Ni 1.3629421218852251 0.809574001482557 2.5810148223721074 0.27970491359965377 0.9556337936343283 -0.4124409425145155
Ni 1.9457846942181625 6.2512822383031725 4.900373480218295 -1.1163174568020515 0.7851956221830027 -0.5699752614199797
Ni 6.0984678448238405 5.621352983931095 9.24725750127636 0.4096950043382621 0.2020318870972069 0.1027263699266489
Ni 8.678446760191086 2.398994008844883 10.227125921432163 -0.2008828610944282 1.0760105296528888 0.45808445138524334
Ni 2.30591631563713 5.243681573452548 7.010558608236766 0.3755021605066372 0.3763485676673325 0.7440687702357056
Ni 0.30171334824448526 0.2365806953138451 9.280297863857978 1.4363832907172551 -0.35230592489583196 0.438088982099923
Ni 1.5121435180311689 1.346380286991074 11.51125852028061 -0.518217669231714 -0.920306321977628 -0.3488542189018057
Ni 4.06979247995447 6.825006293556607 1.5197996314281097 0.013115711446351605 0.43152726972200517 0.32894616712396896
Ni 5.752489393410099 8.10570065910308 7.974217438100595 -0.47809200485542175 -0.7236045888440829 -0.46587463685362346
Ni 5.2246567428825035 2.6059761969315485 5.003787605646756 -0.2810053775786322 1.1962419983428365 -0.47827918116556345
Ni 0.7150329990791257 7.474041874679181 6.912406419526179 1.4537163826790642 -0.9418675930881716 0.10225894337192712
Ni 5.198532689481942 4.369598817576369 7.403804844312875 0.8467861413012899 0.5157344977985441 -1.4628268296207647
Ni 8.188980700394229 7.295619570275487 9.01091495591206 -0.5366681626274177 -0.23644790268323151 0.38247679205225743
Ni 4.642891731157769 0.3813296834677416 10.438220950092324 -0.49462342685154176 0.17433210718909334 0.31094253145769674
Ni 8.325151762798956 7.048840080734587 4.9417364138503315 0.2540635588824656 -0.060607843490044 -0.0704741947611625
Ni 7.217917489779745 6.023446083151865 6.9412841383129145 -0.47281224451372117 0.1473013283235463 0.4011656267110123
Ni 2.5198347341934064 5.106876651866524 2.764490795476964 -1.0984863421579019 -0.3624224445045436 -0.6639560239435146
Ni 2.566169840346152 5.394829822798187 11.298956442636639 -1.4197616230001742 -0.007586811208322417 0.5616289463378135
Ni 0.9575891754463608 3.2922464773896887 3.6785039632354493 0.30765537606599275 0.29382386949953915 0.03826984211447603
Ni 3.631949722908598 2.4036302359995063 2.519970561160827 -0.20739520829164926 1.0966292343445048 0.6161340193642293
Ni 1.2187210478780366 3.6404796564626114 8.354170741631808 -0.37537411956920513 -1.1580001812528187 -0.053822959357726664
Ni 3.624787114159952 2.75872720449275 7.171517186682637 -0.727084062752251 -0.271499494970726 -0.7323211427814743
Ni 4.130498079260314 6.835102764801537 5.976750582778896 0.2322904288714322 0.7947845514230183 0.1998441354172687
Ni 0.949484833056932 7.364800772348376 11.3354558653219 -0.8742979735683136 0.3576034258493454 0.9621875355924462
P 0.15677239130996767 5.6324455196037775 7.9478181087127275 0.5930848508542496 0.064914698395514 0.14240594790445796
P 8.585115523310815 1.8157530107408455 7.979770950041866 -0.44539117218829094 -0.3814565783178592 0.7439839238313832
P 1.8962169062408065 3.4330809323425235 10.56692152928892 -2.0892581171459437 -0.36787781119215995 -1.471117608874647
P 4.09736535434085 6.15709076396257 3.7502957596221633 0.23322682464277253 -0.34099667053059984 0.4164027553757409
P 6.90614932389367 3.9004071964498253 10.490875632282593 0.4666806776946866 1.1872418517267553 -1.066485363771273
P 6.309063030243894 7.856467229017449 10.269999250941918 0.5592841002547208 -0.29585966898264526 -0.6334622262300317
P 2.4123503273079088 8.553313902672073 5.841793813462909 0.21404742350084427 -0.8203641996643356 -0.21323161246776823
P 6.914760753628136 4.0449361449165 1.4765016162668883 0.2302723700001389 -0.3445828452199614 1.3488128025954382
Ni 5.302132445099211 2.980360594798517 0.3205806195323222 -0.16594979666266904 0.8223940856101708 0.5659725680184898
Ni 1.469140700145808 1.0913787383556475 7.113773520779677 -0.2875511491169499 0.46141120176563116 -0.6138269684976074
Ni 6.83525670203128 0.8123403440523564 9.275301242483133 0.5631700655726881 -0.44823995449099574 0.11272461878994135
Ni 2.67331920737868 1.6720028035540486 9.1242824815131 0.2282424840543037 -0.5993969091152064 1.3003588208591088
Ni 6.264819659389425 2.0717958994598296 2.5843018349836857 0.38741973787982953 0.14537737182795607 -0.6678975250897659
Ni 4.357646044443357 6.962617121815993 10.22034000613983 -1.3926511399366273 0.2684689356745183 0.5373795868721455
Ni 8.173279102960407 7.0634822278225275 0.3553342129296719 -0.5278346234961877 0.19624510521210073 0.14683775842356647
Ni 7.736224142325576 3.9470501770620574 8.20189241191723 -0.33636945617123354 -0.8873380945817234 0.053616756884191534
Ni 2.9964515628722768 8.413203858212148 12.503160304236763 1.039692926168777 -0.24974924777782795 -0.336820170555407
Ni 0.17208642913008174 5.096635298523012 10.108483781929623 -0.06343142898176818 -0.7288630090295447 0.8777913314335528
Ni 8.692147173638245 2.3554750484833247 5.7954614238495115 0.015015242461909623 -0.5997128976937285 -0.37457090694161943
Ni 3.5674862441707837 2.6235522065157735 11.394988825142349 1.7181481721697314 -0.8265731566885249 0.9806691393364015
Ni 1.0444731589397351 3.4313514022907015 12.73198799625024 -0.205389233605214 0.430890921689587 -0.9426170696596864
Ni 3.002654327717817 8.343434072613768 8.010703278089116 1.4170452525102757 0.3035585802887998 -0.22769946706664013
Ni 5.647803022053465 7.925349611762014 3.5834522514345166 -1.5553238085099215 0.1836407861845289 0.20231290867273544
Ni 2.907231355539268 8.069543520375717 3.539332935876959 0.7625876549754996 0.4326130465870162 0.4963540363894032
Ni 3.4890054223951634 4.366556293506148 9.345635162752865 0.1699504331816299 0.5082027081978732 -1.0910735946335985
Ni 7.3009892630541815 6.088661137776073 11.37020493115367 -0.3308621531997592 -0.4939703666485751 0.4397614847063394
Ni 0.5498438633546617 -0.05444216508152315 0.19755489103455956 0.2450335874697135 -0.19056450988755566 0.35925124586541357
Ni 4.664551604895774 0.3351639082677134 1.5595715785150923 -0.011217465982374228 -1.0573111534711725 0.23262981448872191
Ni 5.886641161565841 5.672858569976985 0.4816732139193809 0.7604078737153613 -0.34313788524331873 -0.45346854987978674
Ni 7.796802969795162 8.51306384465977 11.598105377736223 0.7396600996450488 1.0940375623579286 -0.04296981869330664
Ni -0.02121979436356159 4.731079653538381 5.850275754821767 0.41454101957665385 -0.10235895928490114 -0.04263866060613302
Ni 8.013347376388237 8.937495952455647 2.394994357410905 0.11535794264773035 0.11773287063781014 0.14496573821183423
P 8.62413408348517 1.6015810485120503 3.620812817093226 -0.9771459566744913 -0.05847099965269929 -0.20190975969704583
P 1.7523037066931046 3.2548578408243793 1.5064134310322521 0.05255849082300625 -0.278481582715514 1.256284970468346
P 4.680325643378886 1.092293306602946 8.149808202990128 -0.1048318463054259 -0.8465902232403999 0.32113566994061465
P 8.424549937557348 1.4786123673406042 12.361059941947568 0.9971568525787795 0.9554952111739349 -0.7698142546309258
P 6.353722937131786 7.825045923887485 1.5769999894613869 0.04854217057476156 -0.26398853130566147 -1.5199379728114597
P 1.826782160495398 3.110111569209831 5.970455455595509 -0.34349321170020847 0.9660920128531747 0.06345714001338104
P 6.843460650863484 3.7410187777473367 5.947037075385967 -0.0217769866657754 1.323864360180217 0.3650619390099197
P 2.4665452873087266 8.685328659873731 10.324495746810408 -0.4835707685818059 0.3308662669648173 -0.9031678625251285
