# total energy = -340874.44861712557 ev
CRYSTAL
PRIMVEC
9.14665894529886 0.00000000000000 0.00000000000000
0.00000000000000 9.14665894529886 0.00000000000000
0.00000000000000 0.00000000000000 13.38705992490026
PRIMCOORD
 96 1
Ni 3.9004371135468 4.900679123403035 12.675229266730165 -0.20212958901733574 -0.21344064315478078 -0.6583260793512468
Ni -0.02762016530563365 2.483958105788962 10.730290161363994 1.2445658822592052 0.6935108547824959 0.10943566362602443
Ni 5.886816985528937 4.747801869729372 3.2072850232095056 0.7782736982521887 -0.5517253140708562 1.3511985292187956
Ni 5.256850013558142 6.809751435970921 2.485147171421221 -0.8998192577678696 1.3513571662838468 0.6261582363694507
Ni 2.379512409983078 6.784067618314127 11.974818388040864 0.9950050963430992 -0.31408236263825906 2.415892605417601
Ni 1.9351037032556468 1.058478785860795 0.880214066272532 -0.4242001399329727 0.37631051534054544 0.0948017157629335
Ni 3.0423250333803495 5.911192830990245 8.14538312739386 0.36467370243256547 0.5542439667276519 -0.8883495665653732
Ni 5.212991785045205 2.8447297652750394 4.5706905438044005 0.7134114503611649 -0.4584588040055265 0.33299771148552326
Ni 4.39149377969362 6.940804761963277 5.336376552375363 -0.2605831051685383 0.754128468464553 -0.07229325024777226
Ni 6.515860144970055 8.713280873360738 5.464865155265524 -0.17659390664007651 -0.7633648994611563 -0.5421199297706083
Ni 2.7382443645768952 4.357651142467789 6.133054184652348 -0.5681688043388602 0.8900819758754477 0.23998805462600603
Ni 7.407668515822982 6.398499367066095 1.3413163398110075 0.04264560258466849 -0.005542784195100132 -0.16825659041897476
Ni 1.0968673124653399 4.271498764081272 7.844803799544472 0.08367680949436557 -0.13463376015820686 -0.49702355165260215
Ni 7.061622976859496 5.906985367983792 9.795458651938324 -0.5935481636439133 1.7506356032744754 0.4706730866835313
Ni 0.7085998822320805 1.802760698385225 8.007175284958787 1.758978318812216 0.7757537600438124 2.1964774898469397
Ni 4.432031771094941 0.41568179571792513 5.6596743511278635 -1.2934037296975143 0.6211648969199173 0.7673861048054074
Ni 4.645551372013812 7.497186864614663 0.2515468345043825 0.061797750033087115 -0.4728955482561469 -1.1161253953959034
Ni 4.86808043176172 1.545602388762451 9.758992752994555 -0.6089714401775189 0.9048082263420287 0.8476893698418497
Ni 2.319007262618516 6.751176233594102 3.4870611904895865 -0.5887453429386312 -0.8542024883700191 1.2241261263476144
Ni -0.019754038815305158 5.161459509874844 5.246656062426198 0.6494969110953911 -0.4650912217203797 -0.5381640304466537
Ni 3.2745678446779434 5.014180011331507 10.3487061946499 -0.8936442393054094 0.2177706379887024 0.8995827162770313
Ni 7.60418447820055 1.5423644715792229 9.038045796170271 -0.680184569987235 0.0375303928452902 -0.3577363518827839
Ni 1.4119514116965444 4.443812667513015 11.857213394349357 0.2608600129790088 0.6777265953650458 0.3483045170459227
Ni 0.9175470684619794 8.691081932672335 8.502991872298129 -1.071806261763554 -0.30026962512488287 -1.163315165707829
P 2.1766486664609896 4.161610806343125 0.614659123954268 -0.7641549994626196 -0.4881167360812755 -0.9510716281849425
P 4.807502111127482 2.635783493711012 11.985742242537839 0.8478001843881011 -0.23993791811436097 -0.8958399614051474
P 7.1947983276725 1.6554811998418884 5.549257716516296 -1.2166928099980208 0.1745946168218606 -1.8704109582636108
P 0.22303029664519977 6.784909110915418 11.53014076954737 1.4263940407150273 1.4602480131499949 -0.7071708687680918
P 7.734121911830324 8.536997320048991 8.996331544458885 0.1630717037839256 -0.5130646642758648 -0.5367614936721724
P 0.6090083182034252 6.5261044027249016 7.940079055328027 -0.6671889290585155 -0.9227704672474044 0.8464177022182776
P 8.275366294317184 0.9244710891052104 12.466672642827168 -0.008546089797798187 0.7700888484485512 1.7347035054252513
P 1.9307133070749982 7.772062252158095 0.8788667634445955 0.14387327647860382 -0.02940390708341388 -1.314443323976633
Ni 8.28846430958945 5.15666666071097 11.969544424628861 -1.7643287844908517 -1.4836926173261804 1.7535512342593735
Ni 8.388839742269525 7.304000286007421 6.082464015329084 1.3969456535469231 -0.7546601725983068 1.019576100814244
Ni 7.630380508745086 5.161175963454844 7.714373361010245 0.9124022366392028 0.02002477986135906 -1.329601262663994
Ni 2.202158697602299 0.8956874688117049 9.937749562821399 0.39944375892389916 1.3214796619981242 0.6716392515203853
Ni 6.0959370436084495 0.20359090288950774 12.744025860215055 1.0762753532785012 0.0268590291743731 0.05712348448586937
Ni 3.3403506141179924 8.502615029959289 2.1594931933851056 1.323766658260088 0.6797919625345067 -0.9696645606957818
Ni 0.7050070746909165 6.005888188611608 1.194237153093413 -0.5939045185420674 -0.7981262142017417 -0.39319135025628416
Ni 1.5682220757515002 0.6425271637109341 6.291382846916982 -0.3527828645322505 -1.7280083527932628 -0.46034522239496206
Ni 5.367314210794999 4.805014219958447 1.0952785378474676 -0.3507007851922412 -0.6851010334522459 -0.8243054437002706
Ni 3.5775692077536543 3.3410183202037995 8.782138749458982 1.0418783638558702 0.5488598195976032 -2.0980502615162773
Ni 2.6658302675723244 9.028182039417748 4.276576074331018 -1.391021060532372 0.582810465511435 0.08734834480868182
Ni 0.7972181998067278 8.919958773564764 2.5215197744461517 -0.6523842599455152 -1.0605276035259412 0.807628497265222
Ni 1.7829033023265002 7.1603245709957 9.897709149653885 -0.35489296889671784 -0.4431124034564433 -0.2775194759125607
Ni 6.8318680567309364 1.96485778403825 11.34944212407646 -1.0894378588023883 1.5488649402584551 -0.47046379888620266
Ni 4.9068256780559425 4.831969423175887 6.285625939925108 0.3802916114754806 -0.6444331234192386 0.9012544475524996
Ni 0.649832600022359 3.0170253753893626 1.9684871782142526 0.5222576436290425 3.2322862504699623 1.2760899210094152
Ni 3.9807081903829897 0.6691997351742445 13.158435355706464 -0.2360432110456451 -2.2513481737428904 -1.0140369161635696
Ni 6.041322344452925 -0.33183071666276537 10.331623894843695 -0.6088112604505709 0.6050492223049773 -1.3982898262796435
Ni 2.66770533260781 2.456554716294748 12.087818953737917 -1.649677638102159 -0.2742243501010567 -2.5319475741323556
Ni 8.305074641806238 0.320079089552563 6.84922109763495 -0.14237200934272898 0.5100770424024506 1.075299105408161
Ni 3.8472675864674053 8.43075887913601 9.174807551863342 -0.37427831540186507 -0.009898232950318437 0.04422117460190449
Ni 5.552561489642235 7.365383512608112 8.056251682265598 1.1262617124989571 -0.9806963930299111 -0.6599011371478506
Ni 6.047139619392284 4.512796767501453 11.342373586225614 -1.0151908272623549 -2.337550834982903 -0.8187199791926932
Ni 1.8679032017155965 9.176659750252053 12.178221784426825 0.8004273515310925 -0.433946163576143 0.23752365224591349
P 3.890732508655825 5.108372302723836 4.046988538056846 -0.6171508906645178 0.6931578423184513 0.6346215366454554
P 6.065926856381975 5.921903568339286 12.837507456225643 0.6295335805995868 1.5647137343652535 0.20318425553409522
P 4.395490869549753 2.538344138476745 6.513205784612504 0.38918788552384587 0.8534506978056592 1.260769745712577
P 7.67979990575351 3.733903898419578 9.559472113230855 -0.42397054042066984 -0.024045470984977942 0.3105440104676974
P 5.894253219059911 2.698858852172995 1.878954194768637 -0.7377554264231682 0.3273178874919266 0.1843871774322502
P 8.649592688765207 4.946787429958554 2.654720735903542 -0.3081564840721273 0.3223937107174319 0.8318896838054318
P 4.8156334907203915 8.56485804247869 3.817065319408028 1.0112164159956392 0.27196820707702835 -0.9674611252865596
P 7.53552051126695 8.554467438184489 1.9755419960770322 0.5251647899735085 -0.7014954156498693 0.40213853214724293
Ni 8.400977358377277 1.4364553103797884 1.4719068448726538 -1.502662473560464 -2.9776277383159746 -0.3989290240710097
Ni 9.267760471000507 0.08516728324348331 10.831095487003426 -1.2509872124045165 -1.3908896771608303 -1.7432866191085719
Ni 7.668055595970275 3.4980024236381113 0.7705895323052239 -1.8237660047115622 1.986466441198998 0.46142200039890857
Ni 2.7496502479878715 2.2892531818359125 5.124003942458686 0.9354151525946085 -1.9262288365641798 -1.5691949100650588
Ni 9.127423286417823 8.253798473079748 0.13487022667190773 -1.1016837660492769 0.0035108413667358893 -0.004765282599127277
Ni 8.246490292770709 2.802527081988556 6.922555348505715 -1.0922228777466931 1.751234670311055 -0.30980944629451806
Ni 3.732943499255062 3.3737176250909204 2.7387785294455407 0.07851403434650349 -0.31359256748603415 -0.3844058907541702
Ni 1.8285085426529861 6.728465080017957 6.1854910643690975 0.23372227622195232 0.37621898406800364 -1.0951809319337527
Ni 7.2333332008164 6.808534930362533 4.01855432012605 0.15930580898359015 -0.4164140682296506 -0.8611544942078202
Ni 0.22723958898339647 5.175810617390338 9.841135236202746 0.12681683521694934 -0.0764314407858619 -0.5090072063770396
Ni 5.888719490540551 3.2184073602004815 8.131059459854495 0.8187359200322932 0.7264235463501167 0.012268018734075646
Ni 7.402711026802334 7.80233769248715 11.674667123819091 1.482704799491614 -2.360770981853108 1.0400066007544542
Ni 1.800236220581352 4.095791450268237 3.927535919305982 -0.888083200277864 1.0882011581818096 -1.0434925024205255
Ni 5.671815625899098 0.7726932638084513 7.591025180314927 1.4966743742978288 0.05515350524369211 0.48570118466124745
Ni 3.3460855691289644 1.233783646690604 7.835887636634271 -0.8975759702596477 -0.7064944115263575 -0.5502847249695878
Ni 0.00868658177658717 1.2579857056364285 4.41372656301925 0.1954416354741989 0.11574360812192325 0.17628151760598026
Ni 6.969909429977493 4.357248689484563 5.269895892875764 0.23803298778216428 0.36568414597495086 1.4793083722155556
Ni 3.7958999511538183 2.643924019962631 0.5285369295414937 1.875251574185364 2.236511880061006 3.0015122582430567
Ni 0.35429216645613704 2.7719223619459528 13.176962827588799 0.6753195285854499 -0.856255514244306 -2.2117357015575907
Ni 5.563958226394501 0.3197397485144337 1.680062845124165 -1.3851867132387823 -0.7898356920581752 -1.7221439235926856
Ni 4.926189154544345 6.721678259255371 10.815659585764962 0.29964356150510973 -0.29735013748524275 0.9856683923232057
Ni 3.030086804026792 5.929531881703163 1.4028971342398278 1.7311772374395475 0.03015544053745774 -0.09237150905488607
Ni 6.603722948535282 1.2345885526570564 3.3043146081335784 1.2733272706626135 -0.8714453346108669 2.742090263262155
Ni 7.735274390827744 3.2033153733295023 3.521238595424193 1.0776498650285247 -0.17330906524121764 -0.8782970674253777
P 6.455126331137752 6.334930089033789 6.139278485904288 0.18425116607501815 0.36194447642686056 -0.17167075830684628
P 4.983547851312776 5.268045523818795 9.052209397182217 0.31736129049984696 0.004611787740398509 -0.4625815679246485
P 3.0605451775300407 8.26439030386556 7.179172175932876 0.43800542124718117 -0.15443074027947598 -0.7149451133968718
P 1.8698331467033398 3.2257338338269386 9.858659319624628 -1.4471047908998176 0.005518615825384044 0.8866860628200213
P 1.9688365805769625 1.7855283933761796 2.906665450061796 1.8277784683050649 -1.0326414186386346 1.717030770735836
P 0.9224679708477895 3.1244162952997656 5.716636082908294 -1.244176103019954 0.29685391457511456 1.1112953209971117
P 0.6932252636069722 7.92285406764595 4.574130602145113 -0.19513233176389622 0.4503832260862437 -0.11657870242870888
P 3.7942992858796236 8.502889429720579 11.30049926798681 -0.12488465119124299 0.7079098038166453 0.9668468887413285
