# total energy = -340887.5840562084 ev
CRYSTAL
PRIMVEC
9.06647551324915 0.00000000000000 0.00000000000000

0.00000000000000 9.06647551324915 0.00000000000000

0.00000000000000 0.00000000000000 13.26970336703224

PRIMCOORD
 96 1
Ni 6.614392920624942 2.1370499119005633 11.497255812890218 0.2933667273574625 1.1469986879359924 0.3279658054885706
Ni 4.606839480609948 0.7126322402424761 6.062423162357418 -0.32667614014286966 -0.6555078931761613 -1.0471720081546416
Ni 2.670566672252474 1.6656929086898313 4.667658306000663 0.108956924217393 0.17664661425488287 0.6379760549399851
Ni 3.6242964466037124 4.9756909099819735 5.02795732888038 0.3478116365699042 -0.6686817115539581 0.008968522047197457
Ni 3.495906084748951 3.3113761055928213 2.996802946068682 1.40618851230143 -0.42956500378931184 -0.6527372724095598
Ni 5.526161979822508 4.811197842039672 2.9194940147432553 0.6238560705988352 -0.5790396856150931 -2.0075327749509944
Ni 5.001040775933948 3.157463614748501 0.6024972271338884 1.0116982407280641 -0.7121955756761928 -0.37239163990211355
Ni 5.7799507665634495 8.123045404366938 12.584309925151675 -0.9246419732385043 -0.26199875456914234 -0.11581817011360054
Ni 2.342614114593381 5.459396453044848 11.398171020318921 -0.4995249779182171 -0.44539759994619416 0.42545689515820917
Ni 0.7034615001099931 0.2790026555579805 0.42505360535546377 0.8937391130120608 0.3691170829158998 0.02439925477997088
Ni 7.797785589979567 9.257959628354891 6.624288978810414 0.7387352738379342 0.11917963038666571 -0.32573228817236155
Ni 8.540239281970695 2.5262102467562872 1.3593747752562753 -0.17042300194267423 -0.7560627093727882 -0.045355545316663824
Ni 0.5707690955534396 0.2285613182104088 4.441409845731725 0.31737568867755017 0.8256308473799134 1.1291220647658877
Ni 1.9511055625411045 7.071424892289136 0.4734985047621826 -0.16444518709268455 -0.6201269425737063 -1.0546089240486611
Ni 8.024873605894841 4.319577265723553 3.9636473774655316 -0.6057053678317375 -0.7369378156178793 -0.718534373410027
Ni 7.851731120170642 3.9059465130551034 12.525472124693188 -0.23869016175018892 0.579819244093595 -0.6309330320502747
Ni 8.212522452678824 7.522273527551596 9.277526896129409 -0.1530400305795364 0.736597658669641 0.061238020874875176
Ni 6.825496739947466 0.8584311420165456 0.29509655650624594 0.9470925889325367 0.6623303154146335 0.8447873657037064
Ni 1.6470703676793321 6.807073661401539 9.486856406164808 1.6348482863988103 -0.0983629507516306 -1.427286984842942
Ni 0.03858964036172725 4.7449309714234404 1.0674551118221225 -0.16798919569020102 2.1714277459671636 1.1488704510374086
Ni 6.559332213927394 2.234587057076294 6.956734881807776 0.40340454334386006 1.1140325174226169 -0.7696363342921649
Ni 3.5775224986615677 4.840174298256593 1.09911615148267 0.4346305912376773 0.6143915827518257 -1.753026472104155
Ni 6.050430934998807 5.808800292121098 4.906937105091556 0.29280596975798606 1.7136744526690937 0.5068456799493465
Ni 5.461672138436102 2.987303999517221 9.348824754090687 -0.19199301480396613 0.6166202149720283 -0.7321745899012809
P 0.2973396025851152 5.957563024789194 12.464842788643816 0.4110430337257243 -0.837322681895545 -0.973518130113917
P 3.9571721005474703 6.5653251543402185 12.645762497191193 -0.18716114063296155 -1.7837673528314377 0.9576737068824926
P 2.727476939985144 9.01079843532314 1.434163226347564 -1.3878231224203648 -1.278731215287004 0.4864902562214461
P 6.212992843625024 8.05679666670203 5.8729719002117555 -0.7754776235642903 -0.5959423749077026 -0.26568854471590375
P 4.8518609853853825 1.384813492669741 12.587972781319271 -0.5371458735947846 -0.42555074042359614 0.2682833020262735
P 3.8569059461973674 6.404540274943825 8.485577500202293 0.9600707463597595 2.0367911575954794 -0.9399513499020651
P 4.769881912446272 1.633751714931317 3.714083568383253 -2.200103002414669 0.012116837868192036 0.581051059618167
P 0.44858201634686906 6.120895583846713 3.862452816007603 -0.09174518832479682 -1.0717319568821928 -1.2010209077887188
Ni 0.8117478588310244 7.927408992524408 2.4676734532897893 0.8875625518877036 -0.6176221738739814 0.10260372830585555
Ni 2.194241240378766 7.0634373272305915 4.570735867874841 -0.03843722093027574 -0.8285454499235472 0.07121595802319348
Ni 6.034628067919304 5.866481210285068 9.164826977055938 -0.6825150178926246 1.0636985450547551 1.4216218161373646
Ni 8.675529231804516 2.790362015179313 10.36618668123067 0.42635806681623994 -0.7171014976182424 -0.6609082382561263
Ni 2.4300330729299113 5.501718761436771 7.115971207161038 0.26756673557522304 1.6478112743173818 -0.147528613843004
Ni 0.7388579277434351 0.3539334503171683 9.263646121890329 0.1212388269085396 0.23511761390758215 -0.21797992578603106
Ni 1.632935732121704 1.3687386313203667 11.398131127826007 -0.08746250178904291 0.6238534994956739 0.06462570640018547
Ni 4.319006077756824 7.246933728161212 1.5026613566243034 -0.37453002640135497 0.3152722691813022 0.45882261510284855
Ni 6.025017603717195 8.18119777926535 8.151844157660875 -1.9517660616033354 0.08712722993681124 0.08000321729752029
Ni 6.5555061611978775 0.9054680177528989 4.542988825757738 1.3421431038847467 0.8727586541056518 1.6604207355512761
Ni 0.7047516595967478 8.035825908494978 7.162348950116736 0.7111205974444592 -0.5933602160028233 -0.32307839548928236
Ni 5.174174195182484 5.1450526753549655 7.108500431215248 0.07591130661633379 -0.013020323519067898 -0.17716160621808844
Ni 0.9122234487689276 8.017239633387128 11.338337720832705 -0.1474954466122234 -1.172287030189136 1.689852924769464
Ni 5.15833506220033 0.8779539840603177 10.40022313751476 -2.0623867466763963 -2.511405745425262 -0.3499978455879456
Ni 8.26739276338746 7.525464926984749 4.837297505528924 -0.04876405677758053 -0.3255073166457491 0.8820256812298745
Ni 7.320100186756504 6.505042157661149 7.057133406702549 1.0784615622965428 -0.07345513176635737 -0.2908192783452604
Ni 1.9340424553445323 5.625439888325413 2.328235590840436 -0.3297977164909869 0.6810471750978465 1.748805234933956
Ni 3.570767974293105 4.511750283863057 9.161018150630177 -0.7141835526404992 -0.9054638576481568 0.8779543393739784
Ni 1.4788328452884738 3.8646215169860407 3.873267308177673 -1.334046185809225 -0.11165941075022058 0.33105370038527504
Ni 1.4423674801744388 1.3813228995397302 2.5098053656928023 -0.18249201729206638 -0.26811360921762856 0.8459888422109753
Ni 0.9464493943943583 3.951596218015115 7.820911449451562 -0.9927363549135807 -1.823697356257156 1.841874284276499
Ni 5.797068272613997 3.503322461840767 4.846653201764919 -0.3022105509013376 -1.628971258792743 0.5878158891458264
Ni 4.100730676185369 7.21952577223388 6.175229159196139 0.46659634551099644 -0.015049181023638596 0.5828315485573575
Ni 8.393942630682762 7.573979638254068 0.15616460339885224 -1.3490238901649798 -0.25015085409162074 0.29036984951266764
P 0.16652758508093624 6.016504183070235 8.135004992413164 0.5154329073977252 -0.7319899846943007 -1.1907172118698652
P 8.899978903302042 1.653317169410702 7.785945679412083 -0.8711350024592996 1.1694667871315214 0.41217174801352885
P 1.6847053081538124 3.453873903578224 10.227517655917488 0.5513676736211214 0.8150499865402736 0.6098091055874659
P 4.0810110916197235 6.2724507910188185 3.4210623281561223 -0.9703533592326902 1.0040566650224063 0.06554127623591938
P 6.831235819041743 4.149807508945754 10.478766016177834 0.9311643477380542 0.6802766154804091 0.534445443944486
P 6.478876308899562 7.960021105481939 10.478249227065078 -0.8360157901586633 0.7621582807475649 -1.0987442238049785
P 2.428029381808529 8.770962954626578 5.767238661037247 -0.029683643107361782 1.328065799856074 0.9881657048237628
P 6.844110214482303 4.1468065055015115 1.1668844304685886 0.8618890583809995 -0.5327377172247599 1.4356754660169533
Ni 2.866801471488718 1.926154621518274 0.5308095107191289 0.5377415981972545 -0.19654592428197118 -0.8908700189943818
Ni 1.860685600760331 1.6140321303656717 7.187640790624473 0.9884703805483752 -0.49960596766779763 -0.8557659762023971
Ni 7.067490041851669 1.020540633507211 8.936428855407453 1.1574759333182325 0.49686954257324106 0.603821006324831
Ni 3.0873434919757647 2.1421996700767867 9.183975373654855 -0.2397718248501419 -1.6850948412591882 -0.534869418855782
Ni 6.42717019819709 2.2708438932500945 2.6124995222252867 0.1174688183431461 1.5518798158253788 -1.4954798397690954
Ni 4.279177050172051 7.142252200163537 10.638825577521239 0.02610980971317439 0.9144017835677348 -1.5672953790495008
Ni 6.9501245144023445 6.213908557666923 11.566617071650015 1.1688317246506839 -0.6567386802594689 0.15085433578212729
Ni 7.4192783640271225 4.242983679327887 8.261492301026394 1.1683257315485427 -0.7552826366736541 0.5271597089163501
Ni 3.267974886597077 8.677859316049744 12.489776503362886 0.3582742266641249 1.0599118243188133 -0.39063284550048855
Ni -0.22808895482839955 5.283434293389654 10.234816168825692 0.6672426651145863 -0.5369823514337269 0.4104696777207576
Ni 9.305377296069064 2.586194049738499 5.65063743748626 -1.4380601641990458 -0.7464616959479144 -0.21684401240937493
Ni 3.6819320323893714 2.8987970641012066 11.298886765283052 -0.4496057244902708 -0.4605329129257359 1.209190073863072
Ni 1.218933253951098 3.519252259579543 12.759815134433486 0.6547147078509047 -0.4391058534002115 -1.2065333529665154
Ni 3.1308716416307827 8.661702856419408 8.097253094402639 0.5021184496770063 -0.15991001822649234 0.18243930967726
Ni 6.307601517161811 7.904706537465845 3.693396590864433 -0.9314926776117506 -1.2416852182773002 -1.544829850957133
Ni 4.048108851440999 8.593595491243718 4.051187826575938 -0.6610149390373196 -0.22130821882831564 -1.3141422477964464
Ni 4.188829620196577 3.1011517344095476 6.849157521483542 -1.356334050673148 -0.25381210499329193 -0.11670700047645707
Ni 4.937040524233308 4.79294702653133 11.322202114096394 0.02504305901155687 0.5191774620418219 0.7278651638926497
Ni 8.031673462641615 0.24667613658381551 2.4432574343310383 0.06973448838166055 0.1705214751937515 0.11104208888119585
Ni 4.751912157683463 0.4771423213308874 1.7228053588297718 1.0721986121059663 1.2057224270294462 -0.10795856485986569
Ni 5.9183051851711515 5.87668099540523 0.4055842555180997 0.2566943116370934 0.09869616572133326 0.1646516466765358
Ni 8.102654900602277 9.319883657128848 11.099483232802813 -0.6069785781172063 -0.3996584460378666 -0.10855326102107112
Ni 0.3202179472715289 5.126493599674102 5.749603459226379 0.1925630283748232 0.890504408124847 1.2534529003361896
Ni 7.901932195913161 6.332960449589447 2.5264187756965217 -1.3126713196778748 0.050266609465036007 -0.8219981357233327
P 8.336479307934688 2.0587427616047105 3.626291071249433 0.9320490643358529 -0.01199188225455354 0.9302066118104754
P 1.6206959899775102 3.294403663152873 1.698243369612857 0.8466745554240902 2.0194066435704445 -0.6806077735675827
P 4.844317677634294 1.3158810782087744 7.9840490792823395 0.4376459810252334 -0.07557989141884404 2.3774060193066284
P 8.753310526511953 1.6907617138962727 12.495111217642624 -0.6711587123395408 1.6723174869888617 -0.17419223917711937
P 6.623704191130192 7.932540617749308 1.5257110577007358 -0.8411999054627641 -0.15961536980420896 -1.4182888951093897
P 2.134964622498219 3.628149698760218 5.956331797394246 0.7338254952411426 -0.885139801378824 0.4671699586262793
P 7.32135136039791 4.485620701004119 6.17358359386342 -0.9950840292101507 -1.124385835632483 -1.2879195666544916
P 2.6139102658383506 8.763646308767049 10.25801184016029 0.45535316849700935 0.7556868140906082 0.11499284599882775
