# total energy = -340872.51297370234 ev
CRYSTAL
PRIMVEC
9.21895751340521 0.00000000000000 0.00000000000000

0.00000000000000 9.21895751340521 0.00000000000000

0.00000000000000 0.00000000000000 13.49287618737474

PRIMCOORD
 96 1
Ni 3.061495954503979 2.858559042048821 9.214973112324307 -1.3803149869687776 0.8125423896270716 1.7476562089311773
Ni 3.890833375321951 4.598581965068689 3.6108287434713726 -1.5768004903264585 0.4362778970331131 -1.0816841829988983
Ni 5.517850316745702 2.257907082111358 2.5592609758464433 1.0162244107331917 0.5219851066939462 1.2353176241880597
Ni 6.876272930073281 9.08463733433364 3.7007320174577765 -0.857529238750407 -1.8489319624542286 -1.2363170119868516
Ni 8.024650814677909 3.5412136293559575 3.152070368599715 -1.0693014930638294 0.06612568798447965 -0.048507717792400325
Ni 6.337977998975445 7.753327675148188 1.5806225375746354 -0.5900496635723516 1.3417163007599733 -0.7897310481595109
Ni 1.3657332466613792 5.0445951311333115 5.727037682416896 0.6111877311025474 -0.403862199706569 0.06542557659366151
Ni 2.176356183661427 2.873816416787079 6.908689550491492 1.418655534420189 0.8593914887701263 0.7889599743214412
Ni 7.951055876589983 1.387268731488311 2.0881980583384387 -0.010653108838471976 0.3941377733299535 0.8259805174098483
Ni 2.90740107912634 1.8176649834703904 11.702074541772701 0.3510018613724278 0.20746951317301043 0.0915893794732229
Ni 0.7986106353179021 0.6978096316166372 12.0858118058241 0.3427691890499904 -0.2717064687752095 0.7139827494836026
Ni 3.190155726012823 1.7365289381100193 2.523330088811783 -0.3882242360589959 0.2726809168733368 -0.19754222675696947
Ni 8.943283058284264 6.826481340368547 6.571772606127823 0.43099119471287706 -1.0037728152334002 -0.6746523273150962
Ni 8.067777098077048 0.5061945209234462 0.05023133397966746 -0.09086869925711448 -1.5997923232359417 -1.15489994506094
Ni 4.3831441461814595 2.8705713437309663 0.33521973427949203 -0.1039630705472274 -1.474737207905105 -0.437621298434885
Ni 1.5625579902636881 6.331257378924573 1.6111031769082331 -0.14294073736200544 0.8942970423980598 -0.23401563909265505
Ni 4.326023485227833 1.965325026481078 7.637102433577086 0.31633542033849393 -0.366688161759433 -1.2541162449518013
Ni 6.546796606344808 6.374733982710452 6.843465425855129 0.24333074584599385 0.4534158422649804 -0.18112933261658484
Ni 0.34084329838241517 6.982733451811898 3.8133839910841356 -0.1374239213088343 0.5132330715329291 1.1106941970780033
Ni 6.54153258158617 8.610911981886417 10.374496716601778 0.04640147008267493 -1.3048281694843722 0.3753162697480762
Ni 8.234465069462216 7.57612087320329 8.620301490146788 -1.4046378799848585 -0.6207645761577051 0.5208461079934965
Ni 0.9115327244003528 2.72755765532335 2.678457487434549 1.1683126189224202 -0.2397491991423226 -0.212139407844854
Ni 5.330253749646715 4.777558806862377 12.911036649680902 -1.1264144360267374 -0.29926483800945236 0.041066431023006694
Ni 8.071519994840632 0.2086674164656122 6.844045298284759 -0.8590893841486753 -3.30679399187055 0.5079666809276672
P 5.142989065019375 3.0132808065395724 11.348830823595463 -0.57910164920128 0.5794839722413633 0.31674653973398353
P 4.980126961015704 0.36641115523986917 1.843100087339185 -0.4994720131930946 -0.406771402933564 0.2313710023809564
P 0.1684561674424482 0.4082218933972252 3.5022248141033634 1.7244867127932493 -1.3497664247579593 -2.0284052475246295
P 7.949700689830753 2.612790852835989 13.227417444215602 0.4655969577122046 -1.0526019209209614 0.054792265249531444
P 1.1906375859944633 1.8965792600622293 10.258040079196277 0.1795876991610778 -0.027965374864674417 -0.9812440380032649
P 0.49887743431936404 5.059354682164099 2.905002306372929 -1.3046299374306372 -1.6255432069478006 0.3045281432909207
P 6.118179613169063 6.667260724595457 8.908010404818372 -0.7823342414748075 0.7906512459809352 1.3463761681294877
P 6.872603784970062 1.297872500166925 9.30144877789519 0.9094279845022273 -0.31018637001796256 -0.9816824110922642
Ni 4.275540473707166 3.1595580059183934 5.441379985799248 0.671628709997424 0.6232436338258169 1.0015840351121976
Ni 7.380291777015925 3.9647233200513425 11.643381126661767 -0.4259739440039438 -0.14062083097957717 -0.2237749352012533
Ni 2.435777648999552 7.681530433781687 12.01442112048537 -0.35016136774900336 -0.21545767358480958 0.22107656243348378
Ni 1.0112366721536703 5.611524144368327 12.731783239160842 0.10952770911919847 0.43754725066384 -0.7492809105642645
Ni 5.6426473450428665 9.216459208280686 7.992856473894038 2.0792058751162643 0.23337106353012066 -0.2150972049215973
Ni 5.908973809582776 3.276749394240293 8.948623600390532 0.2101285480624123 -1.0471331844969063 1.254193120936324
Ni 0.5870678259937626 3.30399141378806 11.83944530626655 -0.00757189880998696 -0.02338444036221134 0.26987481488310944
Ni 2.526990014957456 6.2688819121698565 7.839051073783337 -2.446629629490141 -2.7460636460876064 1.904456992104727
Ni 4.428943927268872 9.161145463006033 4.067157923029718 -1.9043564619711202 0.8898310362069063 -2.108883604686355
Ni 9.015891567914792 4.122450464702017 0.7442132544232988 0.8529447047035181 0.7866997175323548 0.7886414146397578
Ni 8.691494889794042 7.925196700674082 1.7056481960189347 0.9312990735437058 0.9352588295224022 0.060783192725643705
Ni 0.6622530342583354 4.71044479592913 9.118391625491743 1.9997965826490012 0.8821118131857776 0.9898274087969017
Ni 5.455576258523989 0.4910588364247918 13.197841184617245 0.5739393882740502 0.04114870632416784 -0.5454739338445057
Ni 8.080379413042124 1.3397726622124753 4.717500986034667 -0.5422613404444789 1.476288097331993 1.9890642838331614
Ni 8.50759512467091 2.858402319770543 9.456914512259887 -0.8187359200322932 -0.7750402789165556 0.7402002884192349
Ni 3.964483627155152 5.608740019189504 5.921470106536076 0.22361295570209233 0.28329905870881533 0.19195110582243716
Ni 8.33436169342824 4.966372276357406 5.032141241384724 -0.45893548653162897 0.23747968638185551 0.5015309526046524
Ni 4.287101046469569 7.527140551762584 10.0195935860663 0.24006081684547043 -0.995974402234904 0.8827216788556346
Ni 5.8494654386247955 4.850480761049461 4.628703986953756 1.9890007775850775 0.6623516555708722 -0.7736721949244353
Ni 3.153012546060893 4.166784431539652 11.946417480148956 -0.34646566406497104 1.1634486059618996 0.1706060644877578
Ni 5.4848280108167335 1.2666571099169288 5.682915751602814 2.9897612883547158 1.9737975874820781 -0.22271281248532612
Ni 8.88814447320298 0.11929146685082699 9.972544636231435 0.1804212508059667 1.1459339941169038 0.33465427325233976
Ni 2.7453502433866963 4.238443388542966 1.4143641696111 -0.41114304963869835 1.0627276965010535 -0.037338588549458276
Ni 0.5397552139730877 8.720276475251953 5.618419924612568 -0.6207815454385696 1.180003424996787 -0.8522906160592869
P 2.5352962957061997 2.9643281419715044 4.419456698058514 -0.7631077891450276 0.17270125645388965 -1.4168933003134436
P 0.9132013557161383 8.388882608353956 7.86599624289813 0.06429300565111508 -0.16651698202004872 0.17621569736505135
P 3.8657854676700785 9.124868865063405 11.472425699828658 0.9661470344608264 0.17088837161486697 0.8983935810649366
P 4.04820098062834 4.509453083516131 7.80923143370577 -0.4026057015916485 -1.2810974015263354 -0.44723850980967494
P 3.1217787178958054 6.128993450370258 0.06627692958808988 0.07511323619507064 -1.4591678927119387 0.19433991776958787
P 1.0881780918307136 8.258959839661342 0.22224417524327594 -0.3190818727353795 0.4111415069768016 0.6144311777405096
P 3.3532667418702307 7.153062911427648 3.9868211612885665 -1.6694280812562088 -0.06157689227153266 0.06653192228396285
P 8.473097785534618 5.718095293597494 11.04707682710289 0.9417004713826879 -0.5680587611235572 -0.5813631915419472
Ni 7.384080768567238 2.1338660083329475 7.151763960309448 -0.07630699939285568 2.8143058661944567 0.6728309578356412
Ni 7.624640246766707 4.972659605403625 8.855159043104194 -0.9438609693691165 1.3582652062575897 -0.3427401355842678
Ni 4.622247029088695 4.94508570338421 9.886797268306665 -0.8426700622503875 0.8067628068308171 0.530506513901396
Ni 2.1379684444408174 0.7970627723459665 4.779892125017213 1.2888415642481288 0.28161395769690856 -0.46004106089098185
Ni 7.468627828219546 5.973266819507016 2.6050017556055636 0.6032095979930773 -0.9437966917900843 0.869875933241218
Ni 2.4062032331927043 8.96897629296434 9.595324253269144 -0.5588256725610634 1.4041349722065108 -0.5356464062311227
Ni 0.9224120162001226 7.220241455063714 10.110643698371398 -0.046397099207300736 -1.2021460225320975 -1.6766965898931638
Ni 5.64436207114638 8.34518474958698 5.780415446606936 1.555383200992947 -2.856551919347861 1.2389346521153568
Ni 7.383924046288961 6.102184721827142 0.03982866228501429 0.7297680373423173 -0.5749639728838226 -0.010872938158761919
Ni 8.869715777068974 7.66247484853457 11.908259292971236 -1.0563428760206326 1.0542294292220553 1.3641088095225604
Ni 6.947185151515387 1.5379064977862842 11.489035495638882 -0.040998039678916486 0.44610439620523173 0.07445631933736209
Ni 3.8896441297985462 7.525057067357238 1.8406985488985106 0.7347143256039992 -0.9972856648471599 0.08863698171311832
Ni 4.715754915475497 1.0678318525271868 9.861376914769945 -0.3096515805604151 0.9040993732004623 1.277880951471567
Ni 0.6638064286047985 2.641802912232545 5.305695368640523 -2.01053556633306 0.7141177323995701 -0.11204224801093605
Ni 3.2013567594309404 0.2442479831135331 0.3525605934230959 -1.3139890100480338 0.297128765503056 -0.35279134917268273
Ni 0.5259553564228161 1.416345323587687 8.069981350826243 1.2426136436288406 -0.2820461601383207 -0.4443812428665379
Ni 2.188147230362474 7.24087348205116 5.796458276528096 0.4945282960345741 0.5176335145934698 -0.5791540997057703
Ni 6.598726994200161 3.744703679263862 1.0091919073700173 0.4395959056627526 0.5074208357265261 0.9912250604753767
Ni 5.44472554549261 7.061223656356631 3.831828359445969 0.7153816867136582 -0.9204454186586535 -0.5089141324426009
Ni 2.0024036737301874 8.632696378567084 2.5235052490051526 -1.461885805863734 0.5889278912630825 0.6578553103624154
Ni 4.950312852312665 7.173280085325534 13.07949466091486 -1.49540913443216 0.5213559577503795 -0.644589960712077
Ni 4.003830137960523 7.703978595405651 7.689009774038576 1.4593753807370544 1.1604676689567048 -1.1336009264728477
Ni 6.271500096112857 6.065751401606237 11.322196333349964 0.8474641412049212 1.885096585300244 -1.5660998160795028
Ni 6.132100239063185 4.120754176513595 6.817667095059031 -0.8109868722144936 -0.3476954227070141 -0.12029523204834768
P 3.831546259345068 0.17834903078482 6.321223465531752 -2.1564780666358665 0.1119237201552008 0.5466682112629231
P 0.13152871109708952 3.8167129566539155 7.260139259530321 -0.4572748109997544 -0.3939747653895279 -0.6258067665673028
P 2.1130311642794943 2.4487579412240046 0.5317798938002372 -0.028359267868983417 -1.375393124187128 -0.769202589188856
P 6.812818845285708 8.042526373359168 12.682669242835724 1.1887744863211978 0.5446311262282362 -0.4781472835733894
P 2.540458911931834 5.929375362631578 10.649387592701714 0.7843301888589137 -1.2286214431148066 -0.8081540307513888
P 7.379010341917062 7.193515697138511 4.8921799498205125 1.2385746976727767 -0.8179648461942235 -0.22682349221959
P 5.324215332454231 5.570333842053803 2.227363753866449 0.7037420455922009 -0.648608852063483 -1.0551036042968924
P 6.639640727788313 2.901021560504663 4.742638317574732 -0.348227126840768 0.752413285545659 0.27613647952210507
