# total energy = -340891.38253464346 ev
CRYSTAL
PRIMVEC
9.04010497444864 0.00000000000000 0.00000000000000

0.00000000000000 9.04010497444864 0.00000000000000

0.00000000000000 0.00000000000000 13.23110741791916

PRIMCOORD
 96 1
Ni 6.238079375166727 1.7542866497508922 11.322665738345885 0.7222951260040399 1.00987481436608 0.4913653249255603
Ni 4.4823824690086065 0.17347238621531835 5.847210539714027 0.7243016149111074 -0.6917231667544539 -0.25364755439096964
Ni 2.9379709009898773 1.7318671889180284 4.550204050059572 -0.40063597945978746 -0.5343755099384991 0.47765311754579026
Ni 3.2023578169245286 4.238733554344354 4.923295518686536 1.2859395601099854 -0.2945309228688928 -0.4179387324042931
Ni 5.2472567277214175 4.486360115285405 2.9006687150081656 0.11476787447221524 -0.2485511137046687 -0.6413637404652955
Ni 7.375134763915426 6.00033364918145 2.9739161671848913 -0.38718345349930733 -0.9391123989405376 -1.3206808202459126
Ni 5.008878194373924 4.866442297243842 11.50844351572479 -0.3815352540745945 -1.9284235302226531 -0.8565619897411312
Ni 5.4767759579978605 7.928642323542275 12.737971044314396 -0.16134340823890925 -0.30635774030049173 -0.6074344347077023
Ni 1.9439299761024311 6.610920432880357 0.44617258286847783 -1.0411049760249553 0.6027642829255425 -0.6587899063615428
Ni 2.5460552213579652 1.441725013341108 0.05959870138420202 0.9845790159137688 0.015755463062043833 2.8879751708541486
Ni 0.8485105997561198 9.330925358006857 4.720832419186979 -0.900829701310255 -0.317177456623815 -1.4012324538477352
Ni 8.438431934545038 2.4637812241644594 1.3901656774886257 0.8354236651006192 0.16971106347731416 -0.12585292864178324
Ni 6.922361096248497 0.6536014121404102 4.984409341697991 -0.37023088480536887 0.5259253222886168 -2.0013168759482696
Ni 1.2390006548020072 7.410065730309856 2.919549878675714 -0.6564172923643082 -0.01671628431341637 -1.3140090646526918
Ni 7.546860601811023 3.8803295445944683 4.186428409814972 0.044268740010388274 -1.2408460102054566 -1.502589197120367
Ni 7.476908267970418 3.832001142331368 12.460634177717212 0.08024155856057147 -0.3156116547985919 0.6739568439099682
Ni 8.19292075821483 8.930412538353954 6.817989465966343 0.11272024791456715 -0.2759009664725313 0.8510922248758116
Ni 7.1114439360792145 0.3698442628482687 0.550913953452272 -0.44294939551601775 0.7399254374912935 -0.19305616596115785
Ni 1.8555177474954117 6.529505245678433 9.292206587544293 0.4141237295335771 -0.3040977406217214 -0.41644723546043116
Ni 0.3213739309339277 5.023948049699885 1.2245708389224033 -0.7121266701114704 -1.3296125755179038 0.1958332144856627
Ni 6.400159420841088 1.8844822444746439 6.877159666365271 -0.2963124402493478 0.98636079040454 0.5604310693749702
Ni 3.298499335455781 4.275770865244453 0.24412171216488032 0.2157322674024349 -0.377035309321712 -0.3920047861473507
Ni 5.979288284335118 5.610867838051839 5.08669903575845 -0.5115870512890738 2.0054308981166424 -2.0487159340575234
Ni 5.275335294393544 2.7953903621770038 9.013625802475094 0.22032091521438182 -0.32070552438173155 0.43227237541814584
P 0.050891272080083316 5.829105017070454 12.33590423058199 0.38092076041904727 -0.5582425463640838 0.8609791449722204
P 3.860513634051873 6.31529091346249 12.68500687611779 -0.12055028548194721 -0.014304075327497947 -0.5431357726296323
P 2.501369981480205 8.556405307072808 1.4533442605219467 -0.2558669306397916 -0.04223036942412082 -0.37732250154482755
P 6.568468098980708 7.693084303009236 5.836705033490691 -0.279491512037267 0.041211441241303215 -0.13791988710864636
P 4.724783849158771 0.9703739295404962 12.680574512550711 -0.23611751592700628 0.21617886802155029 0.025011177332356926
P 3.9902120229910247 6.24089084787601 8.317444590952075 -0.2858773609589528 -0.6423495014173324 -0.4356670029219917
P 4.80166994366825 0.9967077559139366 3.6847043806489355 0.5195590137509569 0.6998825626367947 0.857319436732446
P 0.29912442407834533 5.319505248276356 3.4693817315385935 0.7759597054070314 0.9190112573152883 0.7653202234153141
Ni 1.424874257295762 1.1172846787319757 2.425434002024571 -0.3919682764824604 0.23803324489248037 0.2964412525177282
Ni 1.9093877342305068 6.13659515447732 4.790071488729313 -0.32409500967925475 0.5318355171254647 -1.0114789256284062
Ni 6.264973688060989 5.708754096881779 9.16792683764676 -1.9561130257181214 0.8932925123929454 1.1859460157334674
Ni 8.527250967884912 2.6175262928678933 10.412074928335153 -0.2320855119494777 -1.2425336823205246 -0.2905048324286352
Ni 2.2718778715192856 5.1455917049285205 7.0205845510014475 -1.0346823603280633 0.27283569728364626 1.1741374531343134
Ni 0.5223210047957136 9.407314246731735 9.266896101076611 -0.6469597464958342 0.12176847415976448 -0.9227511839736947
Ni 1.4130407596222867 1.214492929673824 11.364873085395306 -0.2763036012275887 0.274494830153624 -1.2497821363528219
Ni 3.9887113655320507 6.8036464350964145 1.6246081490431243 1.0174040328635896 1.0178015254123245 0.576196302629027
Ni 5.685240783322795 7.839561127152339 7.871860518930459 -1.010076388853925 -0.08318367190803093 0.07225982590667555
Ni 5.2855686934511255 2.8875271141159344 4.856292971164384 0.31677842141318346 -0.12628461686256315 -0.7724946296765663
Ni 0.7986571317500738 7.294307183549847 6.57064766833829 -0.9874943897883508 -1.0053301324181914 0.9293231807642576
Ni 4.846174381442519 4.677458898570045 6.955156789800701 -0.3616161465531643 -0.6263191874273472 1.4869507192521616
Ni 8.263297976998638 7.304432101345334 9.400913852268157 0.40719280674169867 -0.012391945906449627 -0.5359392548811932
Ni 4.51071415862562 0.4607624086096709 10.283574353331629 0.20114279962403425 -1.006405624870557 -0.10072836566001361
Ni 8.406050277809829 7.48772023375917 4.5357299376646125 -0.278591625930817 -1.2220425043457082 1.7287778839694354
Ni 7.344407446427158 6.105108468154391 7.107036884806626 0.7988281253647727 0.3534392671693268 -0.11150720144307247
Ni 2.541670770348312 5.081922244184222 2.270537223921901 -0.761260965744276 -0.09517375439037157 2.439335666931889
Ni 2.3460880948970995 5.253964485760927 11.410864620470786 -0.7141025628909186 -0.3360526962617632 -0.3857557199138453
Ni 1.1674211020299847 3.303842037613935 3.767292973502515 -0.7370242046840983 -0.12342914969163904 -0.171174278286402
Ni 3.5205875992787505 2.8355374692571442 2.49140416953579 0.49823171302809033 -0.6948851094222032 -0.10796242151460761
Ni 0.9454684397846334 3.1218104798193607 8.387013624333278 -0.42410269512315996 0.6345202351809007 -0.8334192330760808
Ni 3.88001314091336 2.4381796463101573 6.693749492531579 -0.9284993993113816 0.6150305018874053 1.0139700674813763
Ni 3.896050287492997 6.673324278900219 6.043162955466878 0.7240473328084562 1.1754361173410788 -0.020037121156533236
Ni 1.0570685381643523 7.461142324546017 11.380247592265649 -1.8233911378706467 0.10094151011208422 -0.44703642110119785
P 0.233778927834687 5.616653505363546 8.156382461120367 -0.06411020021634765 0.04250187791795261 -1.1398363658595985
P 8.31149077768412 1.7445685366882597 7.933834959954531 0.30635336942511754 -0.19061850305394268 1.3624409349018343
P 1.6845151180137783 3.3614546278912902 10.43331103940067 0.9202158191463508 -0.28097478145101284 0.35198736521414864
P 4.12103138497182 6.133141834300645 3.7936494001388916 -0.48873842882567436 -0.9507394416565045 0.5161471598559305
P 6.67193210270334 3.886675698426997 10.427184560123882 -0.4719115870763227 -0.024707787159325187 -0.2827588699346292
P 6.3175599798613 7.751347780859159 10.224907686790921 -0.8770056023074638 0.33289589580033635 0.3093800720665833
P 2.4312097252205858 8.368606162176876 5.721091128413477 0.3743317943476199 -0.17017309071539724 -1.1179657910387522
P 6.968266750324821 4.121600911597816 1.4430114203074451 0.1609572285440841 -0.5761433379039045 1.2630958227425924
Ni 5.298550284481768 2.8599367131232327 0.5994448540712823 -0.5341330549103898 -0.18206187173318322 -1.095813423311429
Ni 1.529368833008291 1.0907519700446953 6.733430130184713 0.5065942260601727 0.43483910770405754 1.9372907508052961
Ni 6.741441471390392 0.6297988152158416 9.009616515830185 0.3732311050842734 -0.06148227567519733 0.9413975954302883
Ni 2.8756212956010625 1.8286867153373716 9.200595065716003 -0.17965891871864542 -1.3817779446675496 -0.5030314484095788
Ni 6.367913365683497 2.0056558142342027 2.502094997915203 0.8304655497643956 0.07803220961407853 1.5071264228690884
Ni 4.11906064204377 6.800301596181834 10.449465707347576 0.5374322944869518 1.237511803625901 -0.37477248142946423
Ni 8.341449686232552 7.178223193003555 0.8499027759529992 -0.4069524085961185 -0.7839175268015274 -1.1118241969173885
Ni 7.439446072127116 3.9351035418470177 8.341591615883793 1.2988305571400407 -1.2860920265274496 -1.020323777613546
Ni 2.9364792836360785 8.40800294052753 12.170661052107057 1.6778386739174074 0.10652466062681654 0.8288745511281919
Ni -0.19157067677475115 4.961110278631644 10.189950504091485 0.5259672312701458 0.46932505729606916 0.7380703865604257
Ni 8.756978120580369 2.3390820133868298 5.879044366075659 -0.3576695032005905 0.45588075886570517 -0.7694131625377653
Ni 3.6535133057652134 2.6701216247733774 11.659966526576321 0.3826066327619024 0.5426539478972073 -1.3987161151837848
Ni 0.8735534991106356 3.3549547922707945 12.58184390789747 0.48792107513070154 0.7989749353552821 -0.358430292626015
Ni 2.6054667925650543 8.284949028891667 7.809198125902604 1.7758768943397674 0.0914291997462748 1.439641649753553
Ni 5.881591867713844 7.8375632639087645 3.688912549607685 -0.9624539018799554 0.3467747106649576 0.6227247852078696
Ni 3.378567546986698 8.197088246700293 3.7311461129621093 -0.061654282476687375 0.5123203299106726 -0.23184382825231686
Ni 3.3530473300789665 4.113844501358059 9.010238475066194 -0.3709204546732257 1.617300507323034 0.5546571430056706
Ni 7.057230425347487 6.111707744931806 11.634682256413646 0.43886339837210225 1.1779974503103519 -0.35261805681961206
Ni 0.552886504401357 -0.03541461202126767 0.05485264616756755 0.4072815098007631 -0.2593014102426373 0.8529246500988601
Ni 4.8093901934873085 0.19329191279998392 1.7024732869430057 -0.5435456064735413 -0.0468796952706741 -0.9988108432424347
Ni 5.739544695106268 5.5372181011948465 0.4158321818816805 0.34983972274352654 0.4340217540090848 0.8092560055663159
Ni 7.81725014758157 8.895119967752542 11.413418450182593 0.48438606539424967 -0.6400445074332396 -0.44049347777635756
Ni 9.004008034579899 4.850468431400427 5.717876467013409 0.8000828237074801 0.27844224483714625 1.00821516727547
Ni 8.171568029792562 8.649672072158557 2.6181844125245997 -0.2881599863455424 1.7042984107708326 0.09427489672518603
P 8.437175359925776 1.6594107459440754 3.635378854785083 -0.1958938925202691 0.3952214933124355 -0.6461359650429582
P 1.7020710022627386 3.068528099920611 1.3606470220621945 0.015337144577702619 0.5272437839897243 0.49483065776634133
P 4.635395289192902 0.8783402348005553 7.905440893611813 0.5350205997216657 -0.08613272723402585 1.7814446182355317
P 8.466257378272276 1.6734048287542662 12.484648313102866 -0.7633525581659821 -0.22522298050168954 -0.2381756840076156
P 6.296641176487409 7.409776446944271 1.6460160221069569 0.4661407460308165 0.7284706586871326 -1.548044758350005
P 1.7829799435748879 3.1933990726965575 6.280912297494224 0.058663575279479616 -0.0050609594626751546 -1.2857544406823727
P 6.748800117002468 4.0947969997552995 6.21256096628003 1.4618318126973469 -1.9976875067257982 0.34374903646475635
P 2.4097123551155253 8.685488968860092 10.054927493204529 0.3238399562456552 -0.0531668138309665 -0.21905516112808082
