# total energy = -340859.7153659911 ev
CRYSTAL
PRIMVEC
9.35928605234745 0.00000000000000 0.00000000000000

0.00000000000000 9.35928605234745 0.00000000000000

0.00000000000000 0.00000000000000 13.69826118874530

PRIMCOORD
 96 1
Ni 0.16900249584103058 5.741088871826331 6.277447079669154 1.2523182725111144 0.17764805893620375 3.3212420489750802
Ni 7.837297475375688 6.912946330306259 0.1707760805032083 -0.20825241408562198 -0.5367111000502112 -0.18959751798859606
Ni 1.7924997788123307 8.01447811516295 5.650203655050556 1.0223804030322585 -1.9886701337185364 -0.8720066064309756
Ni 5.763466924212962 7.555096289444383 7.135506403302148 -0.7019181050095847 -0.7094655783395395 0.960841563087513
Ni 8.798533565846924 8.986402510036333 8.875965745190433 0.3617866106927576 -1.2196943158285058 0.8889553184701723
Ni 8.297998960394345 7.8508122840943395 4.7586249851952775 -0.09669096236584639 0.14618469822059985 -0.6530589174150365
Ni 8.704135809104315 1.4424156928558287 12.235218392998775 -0.8040245819640476 -0.3803242644856289 1.5273715462713695
Ni 6.63214903724739 5.799865186752324 3.8639643025207095 0.0607220004704051 0.1491815760653947 -2.1383361056195174
Ni 3.026493535826284 1.7404527903882132 3.46133157042034 -0.7894610823275758 1.0733095857819581 -1.0331859782881947
Ni 1.56865373994529 0.5212223708207989 1.93490692807793 0.766109552085829 -0.4658227005697655 -0.39728480359936735
Ni 6.5303480854241345 6.434827214383576 10.074412934674301 -0.410222594706958 0.18122034966849435 0.09852981534679806
Ni 8.849738218547579 1.300491482738347 4.555479814696599 -1.2724173572538344 -0.5050394799785431 -1.4654573252650762
Ni 4.839387198432204 9.313050944308968 11.583386252683747 1.621909209739639 0.2234869716471893 0.9489530391800431
Ni 4.51911243780043 4.817916996769746 12.353173472140861 0.30121681952950063 0.014760189028310064 0.5236735501399626
Ni 3.6793879550814537 0.4647156827052426 6.509838146486423 0.5540647608373103 -0.30859177183733305 -0.028657515835692586
Ni 2.332839426841384 6.255933825291942 0.7106627390987553 0.08891131842042753 0.16752356890769213 -0.6269431941645912
Ni 8.05406789416565 3.379216940382966 2.994768364694971 2.152121589439384 0.7390852009781853 -1.453325832108865
Ni 5.26652628451382 3.8597975484753193 3.073231937335429 -0.15528306097744224 -0.9575400095181056 -0.6968010954979935
Ni 1.2447101392735496 3.2860358907964686 4.839718517150099 -0.05017456397186197 0.7734310254479067 -0.3293153775379296
Ni 0.17386932446547598 2.0812150276717394 0.7360544815182177 0.45207886862111174 0.3646665033437139 -0.44236138422303173
Ni 3.2062760570704616 5.54642508613433 5.760214572391819 -0.8634237498579711 1.0935405681168522 0.6459572733732488
Ni 6.659815086120199 2.939658082023198 12.303189270310643 -1.8923080154470184 -0.23804095820196425 -0.45327031782605165
Ni 0.7969722010389684 4.2987480532570315 12.38847389045398 -1.3360986974628795 0.6128337513464026 0.34611830802788135
Ni 8.911827720652523 5.234545604879724 4.4218535473837965 -0.3281437258273316 -0.8867865929536276 -3.7271706442923747
P 6.59196026395245 0.9657847033779293 12.859543592299868 -0.853534258658401 -1.3495831051025595 0.46765075491743974
P 4.632509544750009 2.098211490714033 4.708187793931554 1.1325961393574173 -1.2345375514889256 0.13863542511843222
P 0.29814472931927155 6.812633504927785 12.653658958842774 0.7241311507715141 -1.054548503124371 -0.7663342665021254
P 6.0341281107328415 6.728062998292229 12.399062986426474 -0.7585379103861581 -1.3300905435955868 0.10395330035521451
P 1.9139084344206116 5.759891677031158 3.932893570700163 -0.9422368035021321 -2.56730667035794 1.5257754054288433
P 7.134181128430567 3.5294053998761887 10.218368109813907 -0.6813161124885169 1.0764324476816558 -1.093204782043988
P 4.724913773613758 3.7376963057166366 0.887266846879737 -2.0221194145159176 3.115003065775061 -0.19524803140615407
P 3.9053772704004137 1.8687966767863289 8.29251629076319 2.0389030617321593 -1.5850737860788444 -0.8188657607419381
Ni 7.0975488837458 4.580237933466302 1.2233756472554278 0.3229840360032631 3.199140102735297 0.8602790335814023
Ni 8.0078798186625 1.6078597882295242 10.166698300608184 0.15612998235876982 -0.5777325367678954 -2.2400412333705035
Ni 5.9848327523387 8.122081824192275 2.837389165909131 1.5273998284061436 -2.7179404054888288 1.7380084014287682
Ni 2.76642706085039 8.320957288501585 12.217328118161028 -1.1910733096577035 0.22082433721336162 0.9015218422812732
Ni -0.03085007790749424 3.937779117896241 9.931293543758086 1.02892925989437 0.4437058140660681 4.788615103205631
Ni 1.818584108382195 0.16579787637754959 8.20260069599798 -0.3957082031408669 2.345008062591897 -0.45442268626293997
Ni 6.608058235556385 4.817158894618631 8.138109601152587 1.4350987675778768 0.1277552878708187 0.131724814041528
Ni 4.678650823824078 8.96895680127486 8.772968676639861 0.09601604778600883 0.5968954828495914 1.1687332513996067
Ni 2.291536898534311 7.454605637635401 2.881360962530995 0.13712335934928 1.534418940036454 0.7501867102079856
Ni 3.953184502349774 9.07435171885155 4.115601804690497 0.35441680059124764 -0.5888427877484439 0.22898964663297341
Ni 2.977516393149894 0.5094923779073038 10.41956842071997 -1.602512550380582 0.03325182007459435 -0.8743694502361974
Ni 9.366866837752355 9.203107413825583 6.513481716454685 -2.3907371891978957 -0.8710241879130484 0.971198737952121
Ni 4.259027244252904 1.8151024540585532 0.3403466849932847 -1.4380416522562849 -1.3430905553996804 -1.5563270529634552
Ni 4.2425081047872375 7.013043892110958 11.027661810629958 0.6394091878420858 -0.4764177024767924 -0.5253144281774952
Ni 7.8917872373978435 4.823017807539598 11.913665153924502 -0.3453009543329085 3.0097840113335455 -1.1976273087261375
Ni 3.8281070067015266 2.3293671318035583 11.621782722744877 0.18564444687811898 -0.0731856801550546 1.2007159749537901
Ni 6.863632253340483 0.11987747644874376 7.651944307213684 0.5005963566055249 -0.41507375215167225 0.45348577627096737
Ni 7.1137404482078965 6.108487636542878 5.9661403867065035 0.4085171819800771 -0.554330098683555 1.7852287678683127
Ni 6.716195423877236 2.304274886530216 7.550193895533837 -0.34479804655456103 1.6556397692228648 -0.239186127550001
Ni 6.346793771996011 0.1451194702951463 5.307623844461517 -0.558658807965896 -0.579429207744028 -0.409300854223637
Ni 6.3334942268511325 2.5639482715018276 1.2568163754768575 1.9115946315907724 -3.774171181411629 0.10428882931776233
Ni 7.266886442019052 8.345955940916765 11.697944847003122 1.6988060201976936 -0.18770287206904449 0.9841329295152857
Ni 5.879475271905273 8.531166847934362 0.09914759429435115 -1.9436781423888783 -1.4696821619797011 0.35028915157611934
Ni 2.114936534467656 4.205323662239312 7.139465381202418 -3.5452571252115974 1.4381966897769103 2.1274878500511036
P 5.073359984552417 7.427463708768301 5.139423439414938 0.3893493508023746 -0.07680296519266773 -0.9769598088056143
P 6.520146463884431 9.157490254757223 9.98489510955628 0.07633708129984274 0.4908457049766643 -2.1655553463467867
P 0.467764938024174 1.745647194016227 7.2978441517134325 0.26730962525909446 0.7802369926261467 -0.0020483978885964724
P 8.382335484884495 6.125680644587313 2.216556852074658 -0.5963745773491148 0.0669947208529943 1.4464548160206443
P 7.440379523194715 0.6436296622256726 2.5669993986779223 -1.1324225898940303 0.4770118844173656 1.2278601394687498
P 0.9469631796014684 7.2313585930606 7.553591316285132 0.5816012756946822 3.336994683823647 -0.6145507340375093
P 0.7382230280418408 2.338941681193573 2.8167734670416964 0.8903727676429892 1.0956090206101068 1.144894497108796
P 3.0372660738007777 4.070325323625848 10.787996706876307 -1.2828969166289195 1.7599555951238206 1.4181731954671317
Ni 8.756678839676693 3.5354702170851127 8.067385221953579 -0.3887664817157111 -0.9904395884596039 -4.861753475062517
Ni 0.3094788244427396 7.9220738862992 1.8411970788428154 -1.5084037469196152 -0.9430014495822986 -0.26741092672364913
Ni 2.4555490231781225 3.767702176043506 0.018969400492357662 2.045145185987129 -0.6677954522942628 0.6326960374879684
Ni 3.31292511894653 2.793306929714635 6.335267811513311 1.3690959783245067 -2.4427338939801606 -1.4496707518547807
Ni 9.051589935746453 6.67188856482315 10.27287378262195 -0.2167915619048847 0.13505439263539323 0.969898788193775
Ni 1.0433263863654878 5.600428165294041 8.67483469299941 0.4978439906713684 -1.9880044751100796 0.9798322452574029
Ni 5.358602938374002 5.966544707853764 1.6512157438446802 -1.4431918289986563 0.8897572455461773 -0.7461215389996763
Ni 5.2097622160383175 0.47116610248979607 1.933687413136074 -1.4084765370046581 1.9162935797283382 -0.03388842521732874
Ni 2.10150595932135 6.030346959263081 11.55582502781208 0.01959463430247593 -0.21337662268606478 -0.3331339799530715
Ni 2.05795720241838 7.694952097396476 9.572166515845932 -0.6597625546874574 -0.725052377034203 2.2526478663909204
Ni 0.4730903716536153 8.907681557035929 13.170918608048979 1.613323010732525 -0.589261106232785 -0.8035563840783774
Ni 3.117952476822593 7.736516685706402 7.597151304331081 1.5051911535195883 -2.0298934020343817 -1.9471121077710918
Ni 5.500817286351786 1.6817139126054836 10.039948300584575 0.05056177210795164 1.0113498562497099 -1.194965188512942
Ni 4.910929579211552 4.020309300223856 9.652753710438095 0.35385244344734545 0.0787156088343483 1.785743245610886
Ni 1.3101221878432592 2.2639925203771134 11.463471339091738 1.185677335453113 -0.5116279318293382 -0.23371276314025552
Ni 4.198669210023964 5.806107830391757 3.8225541424267506 0.08946024894536204 1.3990452163884293 -1.3605511740782892
Ni 1.5122453243308043 0.9050644647879014 5.21761278498098 3.8579364368547435 2.010449948597789 1.1774125243411593
Ni 6.868349333391869 2.3106017637419947 4.364745057190256 -3.161042781642943 -0.36249494961369183 1.6950830628201516
Ni 5.128823112299463 4.052336776287033 5.472784353474981 1.9312136913732805 0.6132950072535374 -0.2441992644938762
Ni 0.447416914731084 4.7297712429523875 1.211014838477918 -0.5156915603757505 -0.5036156030478229 0.1697869110205721
Ni 2.599260856886506 4.186492779177034 2.5220411333310264 -0.1202237553804639 -0.03793405604161209 -0.16673501156812576
Ni 2.3950599589477553 2.697720543673363 9.313159512024436 -2.0105939303748213 0.8608451904975174 -0.08178961977398172
Ni 4.418050869556658 4.5561003353462155 7.5893980719609075 -1.2746333910685466 0.991479342578028 -0.11063971123645461
Ni 7.997912179268203 -0.042630610964397034 0.6000313011078762 -0.7695733422647133 1.3197333687309787 1.2804893356286913
P 0.74898152708761 8.82934433475399 3.9338800394251945 -0.7269603926901931 -0.7814577524071251 -1.7168811325318496
P 7.898600797472068 6.748353929941841 8.244983285888246 -0.5846454618376448 -0.07145121396245115 -0.32684506162056615
P 3.8503727476583642 7.725435291299973 1.5630952600990242 2.352270400581265 0.5334761380526812 -0.9281669556726273
P 7.554216516577656 3.8792461444014683 5.8009939166217634 -0.2181907562452565 0.3474563101130145 0.4591990246056608
P 0.6623566572153896 9.507817682144948 10.686369837769233 0.6792661719380237 0.3089800084146872 0.1038792525841695
P 2.1987957353811773 0.9300312956313063 13.269053527618011 0.6516265558438842 0.9001010506743466 0.12857418422768824
P 4.359134165343419 6.515242198116721 8.910171127063048 0.6563455585861083 -0.44017723208751935 -0.4361639971630682
P 8.255124072070142 3.6226238866059512 13.608852694391045 1.9452804538789916 -1.5150387357376296 -1.0357424261614614
