# total energy = -340858.9823553926 ev
CRYSTAL
PRIMVEC
9.36915483708520 0.00000000000000 0.00000000000000

0.00000000000000 9.36915483708520 0.00000000000000

0.00000000000000 0.00000000000000 13.71270515276112

PRIMCOORD
 96 1
Ni 5.355305920820086 8.558413884056135 13.001441437670728 -0.409820731282849 -0.3693505390829446 -0.564131401044693
Ni 9.01927324793336 6.689932677309277 0.10717188988429939 -0.8179473626927268 -2.7411037309791695 -1.598427067457299
Ni 6.899923547678267 6.659529769427809 12.036971255782797 -2.110786478136023 2.34599408065425 0.3701246982448077
Ni 3.313729575980735 8.83301444710636 0.3025665537236927 -1.0999295023623314 0.19712647937578953 1.414246606719216
Ni 5.110265041703923 3.549785435479539 1.197498867415548 -2.5376667360043195 0.608343576785533 -1.7419051653800128
Ni 1.5968506658224932 3.554507489585012 9.264523059205379 1.0410689805806974 -0.17244697435123849 -0.1989411639870251
Ni 2.8476703310945064 5.693138910770787 8.408453063418468 0.7407289072291952 0.3970621460656001 0.3885492234985824
Ni 5.466761388357208 0.38713254649353623 8.019752120382758 2.0739657097632476 -0.5710610382849907 1.9719469074265843
Ni 4.892610202568511 1.429564403812128 2.176425655424005 0.32914131385391054 3.161658303739755 -1.2873292413686603
Ni 5.701899070668836 2.175911288816087 11.411082659327764 -0.6957636553724146 -0.5683012161516664 -1.6508246072224086
Ni 9.22982626760062 4.280823121260595 1.028471816411538 -1.4173051910398815 -1.294125181244571 -0.26491747087783407
Ni 7.721973204849337 5.61356667760058 7.0775383661288584 -0.40808652220056174 2.1968153328023323 1.3741389400650528
Ni 5.505006278949552 8.774841363890323 2.0052774277345202 0.14144795486656284 -1.4880141275196697 -0.5389078505912138
Ni 1.5721629424734418 5.291642512790939 13.599822195130386 1.202165305805807 0.22107604821285154 -0.05909834882405305
Ni 4.076613019508821 2.188700185351744 7.833122301018902 -1.205112561359589 1.6052967979939385 1.1678369648375821
Ni 8.773314191630021 7.474074733466965 5.34456793230762 -0.4778850310509382 0.00439838617801178 0.709208982244043
Ni -0.012985648790051313 1.4200172348964986 8.673780036878224 0.9282044937787821 -1.272586792952163 -0.9009759970801322
Ni 3.7375526702568975 4.2750517217983495 6.424676909427303 -0.16102279167469688 -0.15444925222223724 0.40100853230785777
Ni 0.0090730896740878 1.8406548164824608 4.951383848618201 1.3740070424728787 1.1741587932905522 -0.5852352729028437
Ni 8.142910599394376 8.528329527443685 0.858870436207795 -1.6419267905121464 1.2350635991957246 0.12621596840815683
Ni 0.9905164327078029 9.295073062819897 12.803128282057815 0.6758337492177071 -1.6809692491265888 -0.3555416582243103
Ni 0.9421153781267025 8.043541341770073 9.477988949153179 -1.2835132100566797 1.3236417026464495 0.16866102494624502
Ni 1.3863819685499732 5.529197437085132 2.5780981935173104 -0.6440243180165941 0.9592742186003932 -0.3027157726725303
Ni 8.070683783721574 9.080238339330808 7.693486289159473 -2.0013549282750565 0.5708959734620361 -0.45283837249495557
P 4.442384829583571 6.162177546937849 3.7284027535120456 0.3953922145623448 -0.8178247210719335 1.1889215534220234
P 1.887781665987481 3.0067679516600627 7.159746142592456 -0.5244415386542387 1.1119419534421753 0.44166127283221357
P 6.267964675717408 8.215952531549673 6.640213382623732 -0.528674860009296 -0.09376581829925143 -0.9310789871130998
P 4.622207020945371 7.105895050564622 0.655709679812793 -0.3809801529020729 0.40065114896843906 -0.04401857167279515
P 4.642022783709411 6.761260054104849 11.0759030140649 0.14557483255074283 -1.0262229167068004 0.5009241722585889
P 5.8497911818888655 3.971997035100659 5.94969635517752 -2.0475031446963445 0.4434458755364621 0.04980998154359164
P 7.3780596333223425 8.600987324245162 3.2252557086724134 -0.44164070400692323 -0.6302401197483081 0.3915443015711644
P 1.0304477711949591 6.446156634114224 4.462457307193821 -0.28523175695515396 -1.0502223649451912 0.265469229616246
Ni 4.814968015322366 1.0511067579064044 6.004820715365937 1.653678531731436 0.1590623255142164 -2.4900709885032275
Ni 7.839696637062176 3.9498858293686814 5.704005256706357 1.4538009719730705 -1.219900775412357 -2.8699854191449474
Ni 0.1281709769211984 7.629799458242898 2.8247758640069387 -0.43551119407041766 -0.14226453723058724 0.48693685684056137
Ni 6.582946296693407 6.312187087181363 4.772104131329232 -0.14632405201194154 -0.2332427654823725 -0.5157722930150149
Ni 3.38541298066521 0.8312155014793718 12.02313582463686 1.0402308009501182 0.17769305324152623 1.1817977978930485
Ni 3.90259033507418 5.4020673732812305 1.6736496291212308 -0.000849749594804988 1.1705903592130034 0.6784387909407219
Ni 4.154358267459648 4.424292991334228 10.50527650437636 -0.2828280326096677 -0.67751910733993 -0.16181931943406325
Ni 1.827163233323966 3.7111878681680053 11.765610546521604 0.39949492387680874 -0.9984449752625836 0.38981446336425124
Ni 2.3442375270282527 0.8085740015760254 8.586937339450385 0.05892788468445981 0.09789295309374754 0.310691077568523
Ni 3.783180454966529 8.821406064097072 7.09037410843937 -1.818638710787326 -1.691526712927461 -2.0171744118058164
Ni 3.1720773219715097 7.706598421541636 2.930309088686779 -0.8279965193986127 -1.920617403914673 -1.2283653612399426
Ni 0.8646052959656524 9.259395320689654 6.746034240361189 0.6552638954861555 -0.0625611105616729 -0.45340864317612883
Ni 2.0845807661570537 1.9219228667024502 13.694343851972603 0.12962396564844128 1.1312136571875937 0.615655537065914
Ni 6.8822533214026285 6.861556858071298 2.2151643004833304 -0.4530517740573423 -1.5313169040723627 -0.13098999275803247
Ni 3.910928882998528 5.304187811297345 12.68425244378352 -0.6040953430321403 0.4584228085612686 0.918558743158902
Ni 7.213780870057726 0.11106289994382919 12.230924006672126 1.6960904210387433 0.628626238293969 -1.8471342471238574
Ni 8.811081255318836 2.872208147964019 10.15772770072055 -1.615478880733263 1.969584063621363 2.3174450653719636
Ni 7.0101141792942805 1.2416753700201446 9.38638765791548 1.1276339102561352 -0.3420269115673271 2.0743012387257953
Ni 7.660549024858301 7.007715675621658 9.325668038378275 -0.7400719903714867 0.5608812695385115 0.0099779371483183
Ni -0.0001386634935734195 7.050382807360399 11.279317674559623 -1.3249218549104538 1.2475650740968451 2.2032032386065477
Ni 5.153709813305271 4.929346659210495 8.403145437127298 0.6826147766952825 -1.261457258697905 1.8014801967301686
Ni 2.6075482583382112 7.380008417556348 12.282154546054523 -0.47769348386542243 -0.8389311640332455 -0.4765310881262051
Ni 3.124866150071749 4.12125704294648 4.032152631508598 1.8982416073226343 0.7089978946745016 -1.62268285468087
Ni 6.287246396648091 2.9675111923308313 8.036138772427346 1.575849439267099 -0.3050176813328295 -1.067860646852245
P 1.5428562257236 5.658754112026567 11.071542609341316 0.7792016093830967 0.22108761817707728 -0.03747948500269674
P 1.1163160765057965 7.862857188150925 0.9304470325255987 1.686624390529837 0.7707282818047629 -0.3403217559507623
P 9.243383434843913 2.9946067885074754 12.642318916879024 2.380664892563558 0.39252980541288524 -0.43177178163264346
P 9.279923139231503 7.379034025439345 7.652156135835121 -0.22704846374620252 -1.9404354670818647 -0.16164242753656677
P 8.851424836624725 2.7210836782789345 2.717638639996032 0.9885585693868072 1.328839187686989 0.9403311018389869
P 4.30164138360655 2.776708351342812 12.912952579714453 -1.3896108104484068 0.829344805896391 0.817723676717695
P 6.542780729331971 0.8876131298283717 0.4939371655029655 0.19570414510696618 -0.8304529513589053 0.6915123362952285
P 9.099566906036346 0.10739674960360764 10.906962159286625 -0.5035580103370102 -0.47979844602356725 -0.21496582155005556
Ni 1.8725661583142896 2.07881873584978 3.211515842907182 -0.8775781869814822 2.074937586758214 0.30424377928128243
Ni 7.267353698182916 2.6238880646079443 13.050971475425856 0.15672750673345268 -0.8441574454291914 0.5527247018696481
Ni 5.156117686132863 7.264561690001505 8.93013885519957 -0.46677066630533154 0.9032920468078185 0.703418343704195
Ni 2.8644598568028554 2.004661874252914 5.584951404487611 -1.0036748562029554 0.5277199522951943 -0.7991765098431268
Ni 1.4410322494968486 1.4060290865245315 10.883952451592913 -0.4770769333273461 0.4700197693702486 -0.3838397338380551
Ni 3.4825617485613445 8.623951123079518 10.37187941281224 0.40350044549177605 -0.1994736394517274 -0.666637941651052
Ni 8.017054740666556 4.939596514748963 3.1223139922576006 0.46199484218324305 -1.0269073443683348 0.04012592148660832
Ni 3.641518831802333 0.40502013716450735 3.4520773290316256 0.13028833870531756 0.785960525373485 3.0304381972487873
Ni 5.2508211045815205 6.308214565473585 6.77709298909064 -0.5278523641080006 0.9546799143614912 -2.070926922936924
Ni 6.3759816633801085 2.028365836329992 4.628462805719626 -0.6872111378167133 1.6948904871933714 -0.5938181294758483
Ni 8.809179316859685 0.5956533964475484 2.5666340954945785 0.7417758604364708 1.3623751146609053 0.7547619882834936
Ni 8.120209136899215 4.942257354760778 11.912487978258255 2.0662691124499384 -2.6399807009838985 -0.4981972602457292
Ni 8.978423732259028 1.245198172289307 0.24646780141827335 -0.20066868820109313 1.4961812367114942 0.8368485704726039
Ni 9.024173315983285 3.6769717142132667 7.637840067039162 0.7999542685494159 -1.1002313498734664 1.391604443839668
Ni 6.845863523494577 2.6720455211597938 1.8625964405094604 3.2835175378411128 -1.0120468823167343 1.230147649951346
Ni 4.5014667208318135 8.098182253561978 4.853913718706555 1.1538599338322 -0.4493046483100843 0.9423195930239255
Ni 1.2384992264849155 4.118090268566222 5.034879883890335 -1.8978597985031833 0.19973974862892052 1.3363105563633697
Ni 1.9356393095802533 0.23016453485292823 2.070577627137133 -1.824591071716019 -1.060412932324948 -1.9293488702503998
Ni 5.952505227837879 4.277862468289703 12.744396797205493 -0.4099703694868359 1.9775357143682715 -0.5088339140239689
Ni 0.9567874748115658 5.499084973007768 7.145828262882773 -0.34641449911206146 0.6653269361491122 -1.017184717763932
Ni 2.7484228724848285 6.321546872997569 5.6342490871994535 1.3043910819469535 0.43335403851809884 0.0034481064496005133
Ni 0.01223705330785427 5.5325328562548695 9.457775934218361 0.46322125839117645 -1.1320176411461278 -0.41950736244299364
Ni 7.747682166090247 0.3588564367905241 4.951438189717034 -0.18297307069354293 -2.227937508128434 1.4839466423185153
Ni 5.5207558284561005 4.136257060055334 3.6946962815877393 0.5146242954535009 0.4278305375967083 -0.17548087608155583
P 2.447232647626402 3.9114910322967984 1.8474989841889056 -0.49736602259368545 -2.69167812935819 -0.7466635275460755
P 5.693569891899461 9.04093473422672 10.379366304549707 0.7251613918082415 0.6599268481794635 0.3769859441410153
P 2.070714416799712 0.11998608313837816 4.920282938691379 -0.2952703721380786 -0.04519716536192861 -0.08048787024342267
P 3.553045901409509 2.0407799666668014 10.270541695728491 -0.1137214354855719 1.0404300614451178 -1.465579452665237
P 2.6504308806412884 7.888200752347959 8.426594558189159 1.011689756087632 -1.3345166976877405 0.4146726600585116
P 7.055217291325526 5.466246084833793 0.5889441445726886 1.1531379680645109 -0.7060182432208872 -0.9357493960055755
P 6.992200354989389 4.351251059178932 9.787305979033606 0.40277976527566767 0.38486174734466616 -0.029909643075238808
P 8.162145474550202 1.918212681333864 6.775187302969503 -0.4453310083743169 -0.9928880500000965 0.09607312627618939
