# total energy = -340858.74256881396 ev
CRYSTAL
PRIMVEC
9.35168184298976 0.00000000000000 0.00000000000000
0.00000000000000 9.35168184298976 0.00000000000000
0.00000000000000 0.00000000000000 13.68713165970275
PRIMCOORD
 96 1
Ni 8.367024287073049 1.4042110932837761 2.708327398374915 0.5711667106249196 0.793120533457034 0.41163515878376844
Ni 1.4532232562336433 6.019322043243172 1.2480080861889042 -0.5944511350741568 0.6875399819110417 1.7706362147661183
Ni 8.408517698064951 7.485067201058551 7.107439754306079 0.3568395511001274 0.20449654658761554 -0.6922646410802207
Ni 6.71604102131816 0.569943842449424 4.366824740246998 0.7546655719149454 0.13559509563021163 0.6432041361081439
Ni 4.469682950334633 1.5496297412269997 9.30463510026695 2.2372294749533213 -0.09363057827296778 -0.5263580389506612
Ni 8.462280515237014 0.9117590247453957 0.30955094581565573 0.17426654405848052 -0.18102263183539144 -0.6289152302892975
Ni 2.6642286089060363 6.019462318466269 8.318258073347677 1.3585526555910215 -0.30212210495258934 1.8618137035129032
Ni 3.5358333834560227 6.5261364242903115 2.381738623961976 0.024430622238538573 0.7695723138234488 -0.3073946662054383
Ni 4.452980847104627 4.606413886127423 12.313039255889592 -0.5124044049840465 -0.8970152126601711 0.04153977111499943
Ni 9.126623971821363 5.2925187056547855 4.926408789886679 0.2049547171709567 -1.9363952355742202 -0.029081747857304753
Ni 1.3912029042619738 8.487146636451229 11.086042527784214 1.4183503444749446 0.5636742589026162 0.35591086863827087
Ni 3.9765594310616983 1.9236408927280475 7.113899895913743 -0.31421323178916855 2.714326462885325 -1.8174853139091731
Ni 2.3025616770374677 8.909047749117374 1.050773641170194 -0.11086288299085423 0.20887050728559511 0.7795199119544639
Ni 9.052717632612662 3.089468271881874 12.458505597408669 0.5869314296583441 0.8441273635222042 2.6438296424163434
Ni 8.552655165637228 8.670308671088913 10.003143990188647 -1.4748169121031052 -0.11103720378518941 -3.9682041094637595
Ni 0.8347385755839558 0.6662184687330699 9.036394272485017 0.3323657343284792 0.4848843451869068 0.324603316774241
Ni 3.642012375658426 6.611938102417584 11.114497824373387 -0.6770961608698984 1.6205861200528413 -1.2488323708450428
Ni 0.639640054628926 2.7772904387217006 10.516917892637673 0.4814912603449578 -0.00014938109367071048 -1.4009576029197937
Ni 2.752966715036792 5.998823157308025 4.617490952911265 0.21515016964671982 0.6975269179204245 -0.5398257344197929
Ni 3.8347972906005197 7.033315520917501 6.605491988332229 -0.5356636326223032 0.6526591108734567 -0.9789704114777398
Ni 4.973832102142942 2.262181116148797 3.0561313975289472 1.4483042105245574 -0.1913471536898511 -2.176803665567096
Ni 3.3584600396914484 2.5929500922100073 4.546755768912695 2.4977303048206987 -0.45293170353971024 2.0016590897790363
Ni 5.745420642625224 6.296590049215433 7.518614488246121 0.9058605788659432 0.05577314110556201 1.791178300583528
Ni 1.9395013446194758 2.7622529348057707 8.404623657871795 1.6498784412590553 0.761738933821959 1.3460293263130303
P 0.8381248194695019 1.5183670698395917 1.55708864242311 2.1201113550813746 -0.3436816735619307 -0.11567367411593626
P 7.698033044763441 5.513339961853071 6.645130025706644 0.9778913194809481 -1.3178693189390465 0.9322280131158784
P 2.0152499650915088 3.943856600717168 12.422932735999586 -0.7157434409284511 -2.4612640915738644 -0.5434715587024962
P 6.751343619130743 8.781378592736608 7.624183750812132 -0.4941837682109617 -0.964196595602675 1.158499232376424
P 8.416447924010665 7.932965988405219 0.7501367181982347 -0.30733553083272874 -0.8099676869213599 -0.9997703789422264
P 4.5903476972421196 7.317784321675375 9.370921689357056 -0.21827226021546922 -0.7682839340293285 -1.9338655271738308
P 0.8100351736285333 6.737811735942715 3.4995254798779154 0.7000468561288008 0.5944372511170859 -0.18367446763594172
P 2.8110593607617633 0.14557201552047583 9.583537780172358 0.49703203629303433 0.07300261760997105 0.7133219759711522
Ni 2.360083870188514 8.273086646006188 5.059160585184301 -0.3672088101495934 0.6578771647392863 0.09549848471964197
Ni 0.896501756313282 7.5196216643479525 8.753495619057668 0.15844140410076585 -0.6562339727089086 0.1825619512980533
Ni 0.865695446985014 9.085859991989562 3.132464498097215 0.5088472837604076 -0.6599376468127408 -1.13958388352916
Ni 4.1333497237572665 0.2068302054466551 11.437691938387394 0.2683316387657056 -1.3418389423807664 1.0659348905844417
Ni 6.811138270895951 3.751034279048915 12.235693368210567 -0.7498642938715602 0.38966816759437406 -1.2048827047369701
Ni 4.88451419175672 7.452813251427928 12.854091078221936 -0.12046415352604413 0.9796669233241322 -0.20297393929550203
Ni 3.827933156350338 4.567473484195873 6.371961796921413 1.1981091334585623 0.16683117082635784 1.2816195925783929
Ni 3.0509299922565343 1.425542278875962 2.6192516965405743 -2.6477708864522786 -0.7982647966621348 -1.609641962336512
Ni 6.136264820897836 7.142393534397229 1.104874054045843 1.2926660802005414 0.18882413015768126 1.061866634052339
Ni 1.947225833571315 3.5722768864164567 1.2201064091468847 0.7997706917837 -2.0524674306801556 -4.358960882136622
Ni 5.655055343906551 4.937341840774809 0.671141193895598 1.2191417857591453 -1.6500134241750228 -0.1889639981696552
Ni 7.461959195973811 8.766612287585332 2.4899899487935886 -0.5823283836686939 -1.3065441237342141 -0.39709094242100645
Ni 8.602499628244134 0.523536122808379 7.331785659276699 0.009287853059829165 1.2560234892768432 0.3467448858682867
Ni 7.169597575996383 3.753110352350741 9.628623172043682 0.12919973362682913 -0.6714592742990952 0.08928952769545268
Ni 0.6639123440653658 6.152302954738519 11.295400492751064 -0.690999401214552 -0.03427460491215387 -2.480516512045573
Ni 5.2160687090672715 7.363196087232436 3.845755591028807 -0.14732729646547532 0.016550191049197305 -1.028339705939487
Ni 6.1454762272144965 5.536317043396255 5.261579602448653 0.13276508238058424 0.3222646413387353 -0.20003876792657807
Ni 2.3890460279171424 5.946734291131578 12.82053069868021 -0.45836958672583 -2.326627246091864 1.2005313697468099
Ni 6.7228022870714055 6.117739139767577 12.664839228565562 -0.3654491471460093 1.402333657331714 1.0392254996140553
Ni 4.517254954327378 2.2136365372759172 0.18276178266778212 -0.8647890056366139 0.7203485438006304 0.5103734905969468
Ni 8.373972586457088 2.1994219813354863 5.3926752149455845 -1.9900161062234698 0.6522441348232251 1.4054740027329085
Ni 6.018676777216929 8.355119596472937 10.534300798283773 1.1928543128175262 -0.25740959253656315 0.16054122405258803
Ni 4.477809561592682 0.3784952827993614 4.846818498638114 -0.8684006342472721 -0.21074381304890802 0.4440793953554029
Ni 9.337149026644376 0.2190229278381905 5.1324412968979924 0.19556247732277932 -2.2113937448371397 0.850223192007297
P 7.748700455345845 5.564166351021652 11.082853604379157 1.3579523030028613 -0.9522167975329794 -2.2202763920387505
P 7.561264702244491 3.4932925841316678 0.4957560176263764 -0.06205177502542216 -0.7976348763876199 0.7632237458976017
P 5.954056657777207 2.6385675947609424 4.760151789968415 0.4946303688300772 0.39830218912028825 2.838104511275951
P 5.240065123898288 2.2909188335204704 11.869151404755323 -0.8398449340967666 -0.44192686778877444 -0.7802994704329658
P 3.8189181353460118 4.6426797071386 1.4821657754310376 -1.9645467583077714 -1.1371889009344223 0.5454528507985832
P 1.213670581911224 8.721789677965276 7.034487286614433 -1.1013148127456323 -0.593791647113287 -1.5682245757319897
P 4.2966861935306655 3.7129261767744044 8.78036300012139 0.24286074818811082 0.26387797386972617 -0.7463393114374371
P 6.2455485713714385 9.333361595620774 12.640626789890977 -0.6549808170280977 -0.41622303526476706 0.29200301424071645
Ni 9.1151775136167 5.570244944022494 13.278159910668997 -0.7537042364429407 -0.3086385659148685 0.7714211941067296
Ni 8.50670100255086 8.65229733244334 12.03075594310756 -1.1957977117165663 -2.6993148199678414 4.500500625386043
Ni 4.703222493426989 4.585475471159906 3.8644926201618643 -1.5660442802512191 -0.746674840399985 -0.8787187283438286
Ni 3.0439349344647963 2.082432445273124 10.856686927012746 -1.790466105007852 2.1444393903037775 1.3769401569592739
Ni 1.935957057315908 3.9704247279716176 5.369721512606251 -2.5176303861787352 0.5692404401364841 1.979746091756029
Ni 9.168276361399442 3.4828841625779177 7.39653950776244 -1.0568185301054702 0.8733862603873216 0.21776163912763788
Ni 2.1514946134442305 4.189413054588111 3.1724167519713657 0.1594176519711061 1.2688005864368535 1.2618987171106977
Ni 8.292856100781234 5.846315934757665 8.939243393641096 0.5294032535348883 -0.2710881184649202 0.2218530355881921
Ni 7.010179460788142 3.638524198444096 2.839231301400282 -0.18634301560704036 -0.3624116458712662 -0.3938007017055089
Ni 8.165738693611315 6.347668933785585 2.3197631600616972 1.5094926091084198 -1.2349810667842473 -3.513212438071227
Ni 7.907145995673949 7.046099269582349 4.24168334338643 -0.9577966056136021 2.7859404276778856 3.274186233137858
Ni 6.125603903942513 3.783746461074985 7.105851838780628 -0.02446533213121593 0.4110134660393696 -0.05490179424420222
Ni 2.799173373524732 4.590609544325233 10.319933137516074 -0.5190429933464867 -1.2714853323578683 -0.030763763545417988
Ni 1.2461770269434196 2.059838782673071 4.252345195509907 -0.16106572909749034 -1.9412667047339083 -0.44957512836265157
Ni 9.21614761920146 4.1347992343959294 1.728725664731197 -1.0919122884848098 0.10994319939006227 0.45782965506195994
Ni 3.224347574729791 9.268601200957956 7.422832695579621 0.29652661314268286 -1.6147682278194835 0.23318902942630165
Ni 1.4249157162127983 5.815249648682592 6.519796919374511 -0.964808518155061 1.3257615772029296 0.5770126278827352
Ni 5.477008679071115 5.4441749251850275 10.293434212705018 0.901505387221041 -0.33244775251932424 -0.7221295469604531
Ni 7.7084601696802695 1.3667389053539691 11.406101958146094 -1.710663433756912 1.1212076950148175 -0.7100301925937578
Ni 6.299619994034313 1.446770595971211 7.38784805493939 0.1098696658396495 0.21506892278682316 0.04568721762446971
Ni 4.760305157545667 8.917417504095456 1.0895270094709475 0.06330235960307162 1.6641349511780696 -0.8716911320730858
Ni 6.104085684719531 8.01613984401982 5.7785695481792025 0.3888117331313497 0.22072560685196824 0.8931176773779779
Ni 6.346883392536246 1.4573379961111363 1.35899103719828 0.6418059702090366 0.17397600940125524 -0.30848558527677195
Ni 2.1520557143366164 1.6541908925230244 13.313116496264607 -0.7380580452652515 0.03949291588829973 -0.4683578082867934
P 8.965840511108318 3.1612985377887486 3.6943069788287475 0.4545314439266624 3.447745723826985 -0.4032214807987765
P 3.805376900476443 8.821300921229833 2.928950398924558 -0.7005446217008258 -0.7021438478671456 1.2199979631118538
P 1.399310812156943 2.206641479484179 6.522342447089632 -0.32508257040350463 -0.7123601262785151 -1.7045298100553485
P 6.192851845894906 5.6247839507623585 2.773067219338346 -0.07814071016748479 1.8626955918972243 0.35510482779720776
P 0.38111188329418544 0.9910350994942252 12.07708697895998 1.649682008977533 0.5970700607542426 -0.2813671317934251
P 2.684914528471979 7.896157769864736 12.932532047809264 0.442569900689412 2.922766053281089 -0.5662839286113215
P 7.837532078291998 1.6623081520995338 9.237855677559697 0.6015952023181058 -0.15806653725985037 -0.9272943232596869
P 0.9182275828664458 4.720317367281664 8.932125828821185 0.3069714626250907 0.6725990443304932 0.16744232204779552
