# total energy = -340856.4833376821 ev
CRYSTAL
PRIMVEC
9.37662210228959 0.00000000000000 0.00000000000000
0.00000000000000 9.37662210228959 0.00000000000000
0.00000000000000 0.00000000000000 13.72363425018925
PRIMCOORD
 96 1
Ni 5.49193450024147 1.8766184120151397 13.098221353860493 0.889922567479448 -1.3730847877689256 1.3102773655244015
Ni 5.764437894349455 7.305776426689444 4.586575682274464 -0.30339222991426457 0.6267763295694238 -0.5459585867904081
Ni 0.29486194972186236 5.023619104923759 8.754676466824005 -0.7589420878031123 -0.0340491191649091 0.8461477363863428
Ni 3.0203600336001593 5.744943896814857 1.020276824212572 0.15414843315236676 0.0575158348282816 0.2109865251873334
Ni 8.8273490394513 0.20733493221995605 4.06093349420686 0.33434548376266937 1.6040364432242762 -1.246975263031646
Ni 4.209343857255616 1.0398955308223077 11.12319810493994 0.5059900168172705 0.5960794147061992 -0.15075791941357908
Ni 0.4283550445273323 2.613405253898808 5.913528062507042 -0.14260443706850923 0.11859727552063445 0.31343341620035053
Ni 6.370842804670549 3.5804163004323066 1.5324766867074975 -3.5627385698258127 0.056898770069572974 1.0230545462811476
Ni 2.4908246719989493 4.50797052078707 8.611361360273708 1.8175403355168245 0.9579434156041114 -1.2204929004704013
Ni 7.990532392036563 3.2539223157499015 4.618126140621947 -1.26311921978136 0.5964424544725727 -0.5092404054337681
Ni 3.9434416051699284 5.466589490459834 10.44433065832862 -0.8530089822825503 -0.03260827295332448 0.20954233654163912
Ni 9.158221906696793 8.349732034920352 8.56743188530998 0.3316530245321707 -1.8654770112971035 -1.2116822441573067
Ni 0.2162989830343265 2.438971951284024 2.9373788025363354 0.4196875967745998 -0.2792436576925191 0.9009813963967709
Ni 4.294296054303938 0.40109720381878117 4.331344026241866 -0.3123029021403331 0.928026573440021 0.3813030834591304
Ni 5.916770498460609 4.397045080270331 3.7195166153078536 -1.0347402101491923 0.13016595419484034 -3.3767544802200877
Ni 7.474771288433584 5.594992954740158 7.8340815754592255 -1.928559284469569 1.8898189304765778 2.1051151387828586
Ni 1.777601281680671 1.452298128016493 1.2776838565934272 -1.952592928380005 2.002424507190151 -0.9283806143453303
Ni 3.0733754554667394 2.6373812768405918 12.9492783986713 0.3788373955274572 -0.6143890116486644 0.4093653889129853
Ni 3.8310159051026673 2.8510182368349604 3.1655345243308832 0.2454429070929902 0.026882169102824666 1.0511842146378283
Ni 1.1697148650534364 6.965039352899269 12.149067146627084 0.7722290347200056 1.1512428079243269 -0.5147317675656425
Ni 7.306001465622022 3.63826068272713 13.308261441582484 0.1773400407774817 -0.0488563593810707 -3.216531558738867
Ni 8.672344098015781 1.2667910345944167 12.74368470519217 -0.41998944428573476 -1.0778123587483182 -0.42617320449894347
Ni 6.035225366596531 7.5248424509322644 11.598117455266609 -0.06245183867731825 1.180299358970651 -0.32151413632595593
Ni 3.474169794388759 2.050826675697345 6.512989584095876 0.4754044307209296 -0.0631393516626461 -0.08238071639076135
P 8.100801468999949 0.7246197369289329 5.927278878949798 2.1054252138241094 0.5819781994181267 1.440035799868178
P 5.757246025129139 7.040436771935203 7.31250134012466 0.6839905739968866 -0.4195289597095485 -1.1261069320886476
P 7.634314515009435 5.758446232769558 13.24289513296623 0.6826050065032696 0.2968500579203726 0.9374085288755534
P 7.640071761034564 7.533187644682045 9.974817868357151 0.26993883535182545 -1.5312778233043114 1.1774318076148689
P 3.556862225489107 0.9590315410491583 2.161088251362978 1.8115787186167511 -1.0865651652402835 -0.03128004106020419
P 7.078027650297975 2.346284040928321 11.091509810246254 -0.22167280125658595 -1.1249725613738881 0.6607424021022233
P 8.38112496601503 4.466310188393505 6.452358469685957 1.0932808866975623 -1.437780171064782 -1.1222939861004608
P 5.28245138387761 3.660811459095918 9.091125611286344 -0.8915153658878646 1.9944458598600492 0.7643545170679352
Ni 7.729130918602442 8.019806206516128 6.4187498427676015 -0.9091677888623051 0.27799898665214057 -0.7896449162036078
Ni 6.578272440774632 7.195948050969024 1.3874456582962924 0.03490503940730118 -1.6947282505838943 -0.29552722534389103
Ni 9.390312059162586 6.517774474399822 6.757462503826791 -2.199402891023851 -3.6623986421223123 -0.48864406933965526
Ni 3.1766589488980057 0.1744923753345858 0.014001172255248912 1.689931343415883 0.6154457350479531 1.1872896742455552
Ni 3.6660717441449364 6.68599107650213 7.369468070582428 1.4311773210362837 -1.806983900157217 0.5575781733072074
Ni 8.47057794171492 3.805230194078066 10.692893660659148 0.47204477022007735 -0.1946134831459487 -0.49631546984198394
Ni 8.507653105857202 5.993358748514769 11.257071890606356 0.8065131527138562 0.8234096713588785 -0.014551415451613649
Ni 2.1492624554559865 4.859678242540439 12.560803065983507 2.3506894292473905 1.2615158798499821 1.4271502021547615
Ni 1.6954714479117685 7.490111442337676 7.227593213200635 0.9660076806694847 3.1634675890343518 1.4414195675895822
Ni 1.8120697448539198 0.28595603396507463 3.396641069128864 -0.2562932195439328 -0.5096168149365804 0.6232472333702428
Ni 6.232640770200877 5.516510627003463 10.460167773208823 1.4733832649803722 -1.138298074838201 -2.601292540385081
Ni 6.805946204188574 8.658635476372885 8.47625173580255 -1.2782632745116502 0.951864042179251 -0.46556661869490146
Ni 6.117514602942676 9.201344992152118 2.104464705277392 0.09874321690918479 2.095757094606726 0.49691967908488616
Ni 7.649485889714091 3.146025524200779 8.07446535025275 0.4608023645370386 0.8157660387706919 0.8409502513458034
Ni 4.976435942059833 8.068574018530292 13.912059650934546 0.861146266677704 0.47292408750123716 0.05377359417702997
Ni 3.0058637756932383 8.586285459548948 11.55772953050433 -0.2585645320766128 -0.5425678159413043 -1.3926940773594207
Ni 0.8176798991856091 3.1311635780284184 12.501462174787036 -0.806708556554114 -0.9808974532971234 -1.7832305064913612
Ni 3.4000944790817225 2.1390513138902443 8.998243604851291 0.433350438973673 0.7165042303538757 0.1357079670589921
Ni 9.161297438775364 2.9262750065380327 0.6410037085427943 -1.297216161465069 -0.35680458409713384 2.895617003670123
Ni 0.57180986274827 5.422791288206776 2.9032488354241734 0.579817444321382 0.043248012055357776 -0.6855316932317613
Ni 3.6758421844677125 8.102104819484465 2.831542992544743 0.946739576468492 -1.3175258195566986 -0.6445408526416964
Ni 1.6192863926118102 0.38411707869352646 6.507020426409235 -0.2504401031972655 0.4184100156137568 -0.19182820709132772
Ni 8.494769626967091 7.758714161614303 2.568639384235662 0.7115615416366198 -1.7947966140624059 1.0392825781042359
Ni 7.664347835886453 5.289015019411145 1.721382805673726 2.168434981887427 0.19802353726876218 1.001906451448623
P 4.534693894030748 4.200998663505836 13.384633091664039 -1.5987147739010465 -2.866353735929631 1.704483015977813
P 1.882722593061327 4.459221462017287 6.431114794450561 0.14783277534698414 -1.703327819327447 1.352921425447173
P 4.774529136426111 5.996912488325069 2.520414478646343 0.5983538125626727 0.44261386655347 0.3253587068830267
P 1.6600840757638249 5.57488010014097 10.634266330411396 -0.9309416902042872 -0.6135513462387174 -2.318552696613846
P 2.202174734478468 2.0119136936056745 4.793033900319584 -0.15923304676412578 0.15039565097815388 -0.6171645175112725
P 8.196480521834506 5.844833053013067 3.9804848887967608 -1.5558956218529914 0.4308659819889224 0.36728028681747715
P 1.6300132483980445 3.894580026933857 0.9242855298590631 0.7183672517045434 -0.10802669909363977 0.6410958315158894
P 7.2404588765085816 1.8062281092290737 1.5231038151656098 1.1795689085625296 -1.943783043397859 -0.27996485212925976
Ni 5.614862017162387 5.617431211642656 12.62165359335269 0.29764838545195194 1.3433831469394346 0.13086683691660686
Ni 4.528458440273889 8.903449705151543 6.742654942063136 -0.055611418716717126 -0.009623124912060847 0.159607399384409
Ni 8.771820682837596 1.2409115573479077 8.4189418209726 -0.6951316782153706 -0.6897858405224249 -0.600021944293715
Ni 2.394489255611039 6.173249245244578 5.442560020771563 -0.11804268856874509 0.23640419392948964 -1.3892909652151428
Ni 0.023422802232528645 8.81615335255553 10.82593011396393 1.5337879913206744 -0.1385048130778389 0.9514480376877549
Ni 6.3816540500565 1.1543278280383924 6.970329643139297 0.3726407797984421 -1.7552620463028934 -0.799052582670753
Ni 0.8626107973993125 7.857299967327996 0.6209508643256263 2.3233372624866826 1.9712987323196245 1.350541612361087
Ni 6.326988342684346 5.207119601197011 5.568364285380607 2.4806160137379147 1.7422599776162704 3.2801380798459183
Ni 8.437347192670853 7.798049091704558 13.045865108533922 -1.5148235344030299 0.7004757161361033 -0.4019729531036561
Ni 2.887755842578374 5.106536574956684 3.433639344969181 0.8553042060746301 0.016106932864191615 -0.3745081720244841
Ni 0.5120667144598167 1.867982542977446 10.470007600535812 0.8019430168446705 -0.7539325504036628 0.0648769031790431
Ni 8.920065079673577 0.32575791984042995 1.5449794747366625 -0.24836342317389484 1.5519284096751274 -0.4316961911997017
Ni 2.1879597752372697 7.4575276802247705 9.626237250104401 0.2884348372734839 -0.3383600042387011 -0.19616257280062346
Ni 0.4463169019959599 5.7395898455439305 0.30668493264219676 -1.5782017415493594 -2.116347517163568 0.46953974441003654
Ni 2.397546034445228 3.5048969853078926 10.73525817737924 0.10152386497811547 -1.1094649526565925 -0.8304082141638989
Ni 0.4253854682795173 7.846995059540346 4.970055150659019 1.3329678651433816 -0.8997891758608827 -1.0195280211851279
Ni 1.3268482997262605 2.508977812560268 8.147612379962899 -0.3997664323706405 -0.06645710318196942 -0.03302993387177537
Ni 6.653538587099895 0.830134866441601 4.364541019446047 -0.6804632775699184 -0.9386372590763319 -0.5713502873906353
Ni 5.088036499374307 3.281405195391031 11.36130242287889 -0.36777188174191505 1.255736554164044 -1.253289635285448
Ni 7.1844991952741015 0.09943907833305296 10.825861664621936 -0.724604490863507 1.974814715892683 0.27000208448959306
Ni 5.7962902799314815 1.5986015640589848 9.15625750434783 1.375311620216915 0.11094130163727345 1.1695194947463277
Ni 5.602006668138849 3.1623408468127088 7.038810865647324 -0.782633260772465 1.6386375782379135 -0.15718079222078737
Ni 4.758692021545911 7.573835301879007 9.361371114770794 -0.026884740205985955 -0.583240611070318 0.41909161506181375
Ni 4.247553592682979 4.381404874456137 5.691547784087332 -2.419792711802955 -0.12102696800804963 -1.0069866941850076
P 2.7787619862329325 8.281892173370174 5.277930914319443 0.5623537403189799 0.7011891972633603 0.21214506427180885
P 1.6094596925558895 0.09142675467104508 8.867389091530303 -0.7441099078862863 1.2163585665870538 -0.20997273921083837
P 3.198450218869341 7.468563964543299 13.269395342601767 -2.7977302212239623 -2.594367531130474 0.08649088190439298
P 6.633632018188903 -0.28003000874051176 12.999397381943153 0.19906791937287652 1.1284754323208244 0.27901225840800337
P 4.184177003295605 0.18745461785109807 8.995540324673694 -0.09618316949149242 -0.713093919120746 0.19512384712346395
P 5.661585725538964 2.568369337516568 4.777897219117033 -1.565885900296484 1.0691515977495265 0.8506199132250833
P 1.7391946371873015 0.7760664499029981 12.423471182053138 -2.3780449384422075 1.599552953531626 -1.541638854823661
P 1.6059153293677808 7.468535834676727 2.6512689919673322 -1.4011517212084705 -0.8803981729287805 0.19002534955463404
