# total energy = -340864.35718058737 ev
CRYSTAL
PRIMVEC
9.38351998937855 0.00000000000000 0.00000000000000
0.00000000000000 9.38351998937855 0.00000000000000
0.00000000000000 0.00000000000000 13.73373000519245
PRIMCOORD
 96 1
Ni 0.17847079729013146 1.897075625089022 7.300713563859678 -0.5121748054717438 -0.5323834192091347 -0.790982918288741
Ni 1.5193232598179953 0.5028919265520696 3.1300410662366627 0.12958282799786072 -0.5475231030640506 -0.17615733332329017
Ni 5.144542999153844 6.232374474571041 7.399349372856446 -1.4871947169421678 -0.018048629971594725 -0.4165367098504439
Ni 9.100240929921748 5.516646485375434 9.707453201896083 -0.860578309989376 0.39209708875084087 -0.4674409528994788
Ni 3.7901820212114137 1.478336044389527 11.083518261634769 -0.09269161139846616 -0.5043118577838993 -0.36976320114033095
Ni 0.7702068297026131 8.517317899507988 12.302262978198653 0.12976589054294424 -0.34725242163232456 0.6144563745514902
Ni 0.21035975171140123 3.8135000684503657 13.655585200475347 -0.13007956512862112 1.2246462605171424 0.6827009086511855
Ni 6.084752937684443 0.3583406774146001 10.488669715633087 -1.4609830915438062 0.6138115418786396 -0.4276371906389796
Ni 3.7679149282142173 2.9121191357446294 2.513272617478365 0.628532135918266 -0.0018763910871064456 -0.44533023704336855
Ni 2.047333931100025 7.344565567948932 8.186580722923498 0.9457188485134617 -0.6212368878084333 2.341629118817335
Ni 4.88563291488134 3.4695377587557847 10.598223250168093 0.6908165957797844 1.15443174717527 -0.24584451340678304
Ni 1.9103345388711708 4.794256196968697 9.253196997937257 1.7414007149397688 -0.6616443450912025 0.33961830212583444
Ni 4.411230293448861 6.491040587323137 0.7831879912922979 -0.9582822870007689 -0.47077593080998276 -0.4985682704319027
Ni 2.1205066201822587 3.32711469195787 5.096999518290423 0.502388158398625 2.961551144469087 0.06648127155168551
Ni 6.804619059206963 0.9888165722117959 2.948411776109255 0.16002957452349212 -1.2118041144471516 0.3660132471795955
Ni 2.3774367817314546 0.5014731383256996 8.923476994922467 -0.4841032440465083 0.8639693379487958 -0.15660177978886577
Ni 8.7297795597029 1.1799401078910634 4.649609235927068 -0.27900968730484205 -0.3869219723078046 -0.841249527753777
Ni 1.2516208172908045 2.564037460763167 1.5573771868895634 1.9859416790437798 -0.8010122775002849 0.08694339606077929
Ni 2.163886633214724 8.800024590540243 6.5092802735296065 -1.1636010723793637 1.3073198255579743 1.1100308524623916
Ni 6.873709917082378 3.239735353571905 4.062973146643105 -0.7098288752162292 -1.0116306207149222 0.9844913412959689
Ni 4.613707888347095 3.387338123418472 7.226647563671952 0.3792971087726951 2.1540745994006967 0.3016809036501127
Ni 1.6237712211124733 5.304372495580834 6.959993260330512 -0.3247760949066794 -0.4353384159379793 -1.66075317919003
Ni 7.173869955343789 6.267065348068992 8.147274095929838 2.510465750109496 -1.2154453107441647 0.17357286042556558
Ni 6.318646557595157 1.443175994890793 7.317276415039345 1.1957594022794633 -0.5484178469641781 -1.9249574260509237
P 5.9908520528875835 4.237710241318999 2.406204777395511 -0.42427393059370155 0.48472853633533286 0.7478608902882863
P 7.442369997072311 7.258040129884392 6.1446085351604305 -0.9375594526311208 -0.30416613196581166 -0.2675603078173198
P 7.287269794733221 7.904170551123739 10.903030007541266 0.06730916676961957 -0.07317770973525461 -1.6894960556506773
P 7.290469575058565 2.3052305952108356 10.87344752233985 -0.13018755146139516 0.2677762804828679 -0.8840018311196388
P 1.080671849645238 5.723402965400815 4.770741095809416 -0.5233007401815761 -0.1764794925493993 0.0662940952415439
P 9.06467738906234 8.947533525186653 2.5119955204042324 -0.2220553814069853 0.3588444973452981 0.7868817516361739
P 8.476077329039096 4.305431105272126 7.797860899458151 -0.7381259223887094 1.6554255963295297 -2.7165610086427985
P 4.610198451861233 8.07732464597299 2.845807676497858 0.3107558693681874 -2.734108787718575 0.3928522217493105
Ni 6.569608800414384 8.52633546224305 8.293882212654744 -0.9475307049112198 -0.17524639147324658 0.5911336406651496
Ni 3.0427002002827623 5.894746040887041 12.253631947365417 -0.2750054512414554 0.9319415922237112 -1.2918538687118912
Ni 9.07424857947833 3.1077655280714525 9.278109305226874 2.145219205892596 -1.201601462882537 3.0362118665077706
Ni 8.56411351382616 1.3107651439496038 1.0612413947487798 -0.0036694784317872283 -0.439924492646765 -0.2911704910370921
Ni 0.1623198826391517 6.964730061234424 3.0269828042565066 -0.6239131490890159 -0.7972247854333948 -1.774276125511551
Ni 0.8812617274401279 4.6424308431150765 2.672735218272744 0.8389815576552067 1.8131905431885613 0.9238811838130798
Ni 6.449340224373478 4.731114490783221 0.39528453406831393 1.3656159901957061 0.5377796505240415 -0.8906355343860725
Ni 7.553198751977448 7.516152614955564 12.991793117862498 -0.6413850806215342 -1.9561572486924956 0.3149825058550253
Ni 6.716976982260559 4.567465901709849 6.139554571279987 0.30169941559287394 0.3149161713934641 0.7322494090032744
Ni 5.073181329434635 8.859084465518901 0.3320771432427274 0.714609327324008 -0.05282408577956709 0.37319356697811856
Ni 1.7271213105651173 1.24961274400745 5.373459600048243 -1.1584976897145274 -0.10725099726987979 0.4050395078441218
Ni 5.759369997620897 1.6891931226617591 12.668693188218768 0.624887082966511 0.12934140141101594 -1.6827481954038825
Ni 2.1983147681522355 3.0864743211558863 7.65029191028364 -0.016939456067815988 -0.817825749513198 0.4992717242568305
Ni 8.262893137802976 0.6752071347119183 9.43994781328922 -0.6838936434077061 0.4188872123604915 -0.72335107807238
Ni 8.972108964107706 3.771302378939876 5.275949813453355 0.9089577297340282 0.35917925497689757 0.6159805245055003
Ni 6.211871483336791 2.381349709577991 1.2632423068302179 -0.7378580134393035 0.3618686288836026 -0.7493004509482901
Ni 7.876667453957796 2.619109339735163 12.869013511865397 0.3224235355141028 -0.316483515880584 1.488094860158934
Ni 8.556484712053415 3.2788083309171756 2.445730040405537 -2.375906809053282 -0.3029088625199428 -0.595063314736859
Ni 0.5954406461146702 7.8451763607851905 5.133228350718942 -0.8684433145597495 0.5988076122706397 -0.46416999545769094
Ni 3.721579106376814 1.370660152209657 6.735611714659687 -0.2845288173508584 -1.2709590275407532 0.9230522601538812
Ni 2.3702396218794317 2.546190005693353 12.93872555876585 -0.4744950315327828 -0.9966161495839608 -0.018210866581071863
Ni 2.829881966327254 8.607380924618436 10.887839965339891 -1.0239222935980818 -0.3634197754208064 0.5691075141030457
Ni 5.469925939217388 8.977495104596704 5.896151692185389 -0.133658283618815 -1.2446967514101146 0.5485209482009457
Ni 7.707229233034753 4.498759768155077 11.605028968601939 -0.6518702964235741 0.6748425889490314 -0.7105169024221892
P 3.6959902472940684 4.837504840720943 5.328192561140625 1.2431849427512782 0.08610393087861946 1.2285530517707164
P 4.259686445195711 5.066931905104195 9.025821171029431 0.3214485731953432 -1.5724188163189952 -0.459761324867034
P 0.524417721468028 1.1804186674118626 12.978567046400403 -0.1277840842262251 0.5895840367898427 1.8733864959521673
P 0.7012492178114211 2.4420610840794077 3.71408167388429 0.7896919673914593 0.9409525374730698 -0.5353358169692394
P 7.538241421072462 8.736976719554923 0.9239970926475163 -1.3060026494084476 0.9657186886741562 0.4605146580932908
P 5.1051603656480555 1.7758968476065957 8.84706323802682 -2.497283447091267 0.4754208857811619 2.6959929546834602
P 6.602610640309512 1.2476891224042366 5.158238246616722 -0.6506742192329439 1.0683540415488957 -1.2362763885569032
P 2.1594013106472314 2.5454768581721616 10.105703866641349 -0.6739794696177877 0.9656199583127628 -0.5134022501209415
Ni 4.396244811983828 2.394711842080312 4.813494289704834 1.0632352322650913 0.27466580851384953 -0.6428781202272927
Ni 2.4279107358957703 7.165133898209195 3.513279975660855 1.4310767909026774 0.09987681629299573 0.22231377727469456
Ni 3.416286282666829 9.273179203810637 4.661873496587555 0.9410705511081728 -0.9670044973651153 -1.073871628933015
Ni 5.925007892937592 5.9983870194601705 10.322696828651832 0.7815618820851571 0.12090406927694015 -0.8409204265491325
Ni 5.489021402449287 6.4857013644342185 4.883425910973654 0.8160277770725107 0.39783373412430195 0.1779275378498355
Ni 0.679540444255157 1.0968208875922147 10.890298447583998 0.9187916851053144 0.552362947654855 -0.8073703585078289
Ni 1.1050783852060087 4.215621435202101 11.586035785738211 0.9295355538853798 -0.8608611313371173 -1.4539812063046766
Ni 4.1295464060983145 4.107063492140757 13.120051761196752 0.9216723490872191 -0.8479642207697912 0.9879661872184469
Ni 0.0718946536560984 7.963164741462287 9.965963548215917 -0.36132201235151323 0.2286335488451353 -0.016805501593112993
Ni 7.846339917267135 0.3384889024694381 12.065645322427388 1.0838577936114495 0.14731855471472693 0.3759161081156042
Ni 4.1107887495869795 0.5995862852575954 2.4857226027123436 -0.2537606829300662 1.363514370471671 -1.2018948257532398
Ni 7.425104320243469 8.075081984689243 3.862899609572887 0.28120283830141896 0.1868937459041878 1.0067797203805242
Ni 1.7051826407684691 6.914462544510454 0.2576911650224673 -0.4634436588146277 -0.4231225905980777 1.1908380537184458
Ni 7.976113999083919 9.386991918080758 6.449908865686428 0.8106521145828941 -1.3609175562787725 0.8347919450538914
Ni 4.224057219696192 5.2630474734318025 3.268036988291182 -0.36706482837256144 0.1300065457988406 -1.0799911115671916
Ni 3.3435640025453486 6.996193003846983 6.048129059063264 0.44189755721273577 -1.1503719752835995 -0.7473826651002871
Ni 7.807032351921472 5.458365442558077 3.7304934503917058 -0.2836297025753567 -0.17994508250049654 0.4048844703234963
Ni 0.12797713773378291 7.126755301345084 7.286169107835381 -3.0065871016628027 0.25803951281107823 -0.341027009547903
Ni 9.399190494101136 6.149527376352647 12.161698786715844 0.13110852061376777 0.43497280506844443 0.6226473950027148
Ni 4.970685140303417 7.874715681794536 11.76986175790129 1.6682901109970234 -0.7269048568619094 -0.3366332513555816
Ni 6.826379442123313 3.128230985225639 8.78171734298966 -0.4893590931288088 1.3868029086859663 0.857481159121291
Ni 1.9874764569200347 0.16283503788801226 0.8320432882539096 0.42820823265110125 0.16680314580189984 -1.4342765287868977
Ni 6.242574360828081 6.618806595856568 2.324090532090341 -0.056596665448121884 0.18304480447174284 -0.19779008110171742
Ni 3.8708146087061084 7.103653075066493 9.514371325589543 1.0142929980384339 0.2729190010260719 -0.21520262015121003
P 8.838872363405137 5.60931812905024 1.0021430473380573 -0.08872722743407946 0.47805729496274446 -0.22219087854358505
P 5.58514618148986 5.673351269637206 12.36087901268057 -0.6716582776837787 -0.6278795899359315 0.8853760857593461
P 4.157706349665355 1.421471913094537 0.09958542122235521 -2.1783051898132872 0.8918565512773673 2.0600398437107743
P 1.6246251214338998 6.493104961726585 10.52991216280598 0.26273948938990876 0.3621439940321763 0.7109915280657627
P 3.9928566700299775 8.816361298887534 7.767481753407403 0.7114813232179876 -1.8819896642401461 0.027887213328571327
P 2.7154593232561135 4.519469196829672 1.6188636401442753 0.9558214841651024 0.6759221951664554 -1.4446596717934346
P 0.3387629012538958 9.226674478612951 8.051495568777842 0.570955623055378 -0.355647073453923 -0.4234365222940708
P 3.2514084524714044 8.032621556618313 12.954299386935867 -1.301460795674036 0.31796524263243303 1.6893127359952778
