# total energy = -340857.574669416 ev
CRYSTAL
PRIMVEC
9.43424360111173 0.00000000000000 0.00000000000000
0.00000000000000 9.43424360111173 0.00000000000000
0.00000000000000 0.00000000000000 13.80796913818080
PRIMCOORD
 96 1
Ni 8.78955471993156 8.751817744860343 4.765268603546853 0.9975245203308432 1.8747345253396295 -1.3207690090843447
Ni 2.4516486252080467 9.1478012585264 12.481479032347153 -0.8321637634024249 -0.4820890418299568 1.6286213316524918
Ni 5.939875350159842 0.43270253383472923 9.948324201531538 1.6803809807232868 -0.34559097476950157 1.959087277855097
Ni 3.6627979716312504 0.6473844113173809 10.156824762497523 0.35375448441690044 -0.22234694450547512 0.8125549880325618
Ni 1.09802332940346 5.5666849694368015 4.579136634554332 0.40619033361911333 0.6565697587817725 0.5118040523958862
Ni 4.675233841573188 0.6743031390600573 12.800277224051296 -0.33658954260183965 0.3449181170721931 0.02843228719876394
Ni 1.4989881237789182 6.459098390164731 1.3741617576383436 1.463591475700931 -0.8357843908741478 0.5051310112510848
Ni 5.416284255290462 6.823882859690658 5.800424019330418 -0.32878675872796925 -0.06186819825970636 0.37965783454622354
Ni 8.404382849623408 9.05927974925309 7.180144433396752 1.054489110641345 -1.0048189971097277 -0.03197115358995784
Ni 1.1681669318170864 4.10711311611977 11.803107847374418 -1.5355299137124458 1.7319128300539914 2.3331030836241946
Ni 8.888642582224811 6.8609594376981295 9.14608139588753 -0.7214039816483382 0.693910918434392 -0.320014668962294
Ni 2.950163500142603 0.933304263490724 3.8936539166294257 -0.16483573766288387 -0.12041453123503132 2.05437981721152
Ni 3.2192186981566193 7.797166617996207 10.779384848188679 -0.4393596212822304 0.1653540720601991 0.06240812992357638
Ni 7.512318495914887 0.6566809151261754 12.191332638965834 0.10020128951195001 -0.6365817456956199 -0.6934339787979735
Ni 8.520103283679298 9.32432539366579 9.664391201095695 -0.8351202749275876 -1.0001064221254068 1.0586077607954092
Ni 4.022280396159672 7.528583132170581 13.521577991865048 -0.6189336935965535 1.4355253135923343 0.34616201678162317
Ni 1.1466096848076532 3.863294520184631 0.565929150626157 -0.3325022599063435 -0.9822364838235214 0.1628639586484937
Ni 4.910722000261356 8.626200789092026 1.5673703528810954 1.5711258085391844 0.2334772500906818 0.13557324125334072
Ni 8.801196576741033 4.2238335800150475 4.273276564753357 -1.7005150324690004 -1.1848108736877596 -0.8005440796146148
Ni 5.037612578938326 6.654811777127835 10.328637436299271 1.8513853090907275 -0.44480393222625325 -0.5895359571607266
Ni 5.907034747604116 2.5359058562983083 9.014808610980413 -1.3776577518515887 2.0515248642612276 -1.1789227903380985
Ni 0.25749447570094836 1.6166048408321367 11.620124085527213 -0.4814719770712482 -2.0733597007481324 3.3447527305025107
Ni 2.561991540316288 2.1066571991069725 12.283859928142954 -0.10928396853950857 -1.8496217894324016 0.4747380007815244
Ni 3.1202440467885824 1.180006907745681 7.826757123573926 -0.24524338948767443 0.7524482525486524 0.04677453715137751
P 7.632350379372663 7.368238725092977 5.88960969936498 -0.3697639724712793 0.2501523967535175 0.8280643965220706
P 3.026128030960965 6.387030202022472 4.2479116569592374 1.5896845453779782 1.0365356114867181 0.3844118042914412
P 7.332916916426317 1.1812333594354956 8.163492642953795 0.5234778891893889 0.3579199286484997 -0.28120386674268344
P 6.911225088492992 9.29021116820141 2.3485427184940884 0.8749255798499835 -0.8711823107574673 -0.7898624315310525
P 5.654659292571578 8.528235601807145 11.786855475635623 -0.18012325994957368 -1.4509316208450753 0.1498076396851678
P 9.116875807455537 8.29393615783372 12.104977232061614 0.17746859593554598 2.1914442982984066 0.20799273266633211
P 1.4271086205120158 9.38117614661058 7.1255890319606685 -0.9316893670035888 -1.663834132108199 0.6280317992430797
P 8.397467548941608 1.8892733542092217 13.916914316408635 1.1118167407182207 -0.12400970478545738 0.6237033470710549
Ni 4.29076953954762 2.1499981149762664 0.9756168467893273 0.04181642181515379 1.1582385225158698 -0.6003384470928693
Ni 5.789002923825114 2.6967314098080717 5.444496417853705 -1.1782293638155 1.518082921880592 0.4200922884121862
Ni 6.9483016665004635 5.397651623849049 8.797568166587933 -0.8795263118467885 0.5962588777068569 -0.961405406010783
Ni 3.6636847905454237 3.57045559363198 8.722300826384012 -0.9739215361999228 0.5586474951119862 -0.15526480614499713
Ni 5.3851889878317785 4.513455429442877 1.3269112911516716 0.06729271170938733 0.03555372873489361 -0.6073691286874056
Ni 8.906378960508283 7.578924256915586 1.4537028102690799 -0.4259780577690019 -0.041601477590870295 0.22598145593426885
Ni 3.3950730019884947 8.284039636121294 6.722202467210015 -0.9090122371210475 -0.34304686819140917 -0.922091953123141
Ni 6.6594062538427545 8.063599096242774 4.174149078636282 -1.6278908812443706 0.7041135699990068 -1.781830026599409
Ni 3.2524838416818977 3.9738544228995316 11.546886994582124 3.5135307406425937 2.456108515514854 -1.7207809818068882
Ni 1.7957611299827436 7.509412748834403 8.658356465550211 0.3760978851091071 0.5480005569211013 -0.6561311285824571
Ni 4.39720667773599 3.1533205054385047 3.149611904213381 0.9047339214606677 -0.0016989849689777192 0.828774792325534
Ni 9.224784687671685 2.708354398130007 2.4066048283386645 0.07708887186420271 1.0423640452430372 -0.02277406047172207
Ni 6.540157412617706 6.851081784473238 1.2658472049401805 -0.4917052247634822 -2.098640072581476 1.0874293130127917
Ni 5.617846873389604 0.9115328591477617 3.7267706351963557 0.40502022457041215 1.3165233464341133 -0.11757706178623621
Ni 8.578322001970418 6.704407596615183 3.7999803668345185 -0.09609883730780223 -1.090189135146116 -0.3508745917659441
Ni 0.2814999089681268 3.182377976243343 6.387193414439655 -2.515498941658029 0.10882065574984483 1.4767573236589278
Ni 3.990685113781295 4.469925828698227 5.148383808713626 -1.1492419754442142 0.6900599201194181 1.1997487259445143
Ni 8.227575687170983 3.464943011332855 12.177869973109177 -0.15963028220254444 0.648461013631709 1.5835784324802402
Ni 4.359516873883611 8.480073787372502 3.917528213908232 -1.7429850287077528 -2.1115871196604474 0.9929638975433543
Ni 9.163773433225295 5.573854994700333 13.59800574405241 -0.7976976113047552 -0.11223250964487122 0.5740825987201339
Ni 1.996229375804821 5.668801223979517 6.957849121193482 0.9102736203319742 0.26535995773189136 -0.9375892774277917
Ni 0.9806141657131333 7.191554207809535 10.877642497030363 -0.5073133636143844 -0.9080645284957974 0.39851687623425563
Ni 6.321065969597982 2.249850151014709 -0.2089203848136534 -0.1747763938153635 1.1856770783427966 -0.45386115733251514
Ni 6.524289014600259 4.726046678506583 10.98051160422575 -0.448414275285331 -0.9420568262808422 0.3693204571759575
P 6.670048080812839 3.3505528056482254 3.3401062675241353 -0.07830217544601353 0.24753809905912205 0.49886986083272145
P 8.966126026289789 5.672018301104338 7.389873332901306 2.4973641797305315 -0.6434111099126273 0.37931587782577253
P 6.665481906829221 7.642765784492319 8.969449710369187 -0.12058705225715362 0.2667162146494697 0.23288769613579893
P 0.3794301895510677 1.0637958930138653 4.242719049189438 0.5901432517274223 1.947994253265729 -0.5913167032102332
P 6.956283036728027 4.927241361098781 13.327548617414498 0.20881240035415005 -0.9775043684551747 1.881526351450482
P 4.2454851694621585 0.7397560354723314 5.972195182459587 0.3659427989529762 0.32741276119857804 -1.3643011280390245
P 9.296711362157426 5.342602811463909 2.2062233775592506 -0.23171064510856224 -1.0541612949882813 0.1003486137230917
P 2.9525220610845544 4.868598101838108 0.7576320405635673 2.5866346812625904 1.0154499944610125 -1.1679956019026336
Ni 7.58204699160273 1.4454110534215567 5.212729124907559 1.822981304026738 -0.5456557108380086 -0.14133636898936305
Ni 1.0621071633794283 4.399055789514479 8.59412153000836 1.4233051173770583 1.046048950293792 0.08925790312656887
Ni 1.5921418467422197 3.1059511674803586 4.726177814494956 1.5990582732833944 -1.1182444986214355 -3.3602004325161485
Ni 0.6253045072032113 7.4146363359430385 6.095831890461041 0.44835334014040845 0.09759650489925127 1.1506869354208569
Ni 7.451628005756601 5.219495364537829 6.054449523597944 0.38497281900123376 -0.49918379252871453 -1.1394069916316636
Ni 0.2242180110831484 3.1061870235745537 10.187947389263133 0.9299456448396048 1.2747879143685399 -2.8465230743569494
Ni 6.080917294488519 9.214614572889992 6.594796778823323 0.6013460624217772 0.4479409351933383 -1.2655455698346654
Ni 1.0428896088244106 1.1926299259070032 0.09838029401066511 0.20347838973574636 0.039958285560492475 0.729527124976105
Ni 1.766798001615584 8.1041757786881 3.4873134901550724 -0.14610447980196772 0.10965497872568213 -0.33917298705829974
Ni 0.23693537168214882 1.4697702708300278 8.233125852779583 0.6052070880390803 0.4705679285642348 0.10839873772107782
Ni 7.718551064679093 2.1244030116342127 10.317328608294803 -1.0451084407573936 -0.43886725502684415 -0.3662670150616143
Ni 5.562892403442143 5.690273562795039 3.7798212747514737 1.2084943333476286 -1.0557818613108396 -0.5700259121522571
Ni 4.400461491835882 6.178306992903566 7.848063419699137 -0.5142293740079272 -0.43593388343013306 1.3614546597291648
Ni 1.34149285831919 9.571040302437645 10.41133330004596 0.58741119750824 -1.0091965573521329 -1.6261844400762249
Ni 4.835257484362688 8.70761831280818 8.439776358542703 -0.8543259013217609 -1.6202055967849711 0.26337763719453994
Ni 7.192110828191836 8.603869934093632 0.1677710437716206 -0.22472264382650328 1.5466105970066395 -0.8508153170653412
Ni 9.099375285266259 0.4778001058935882 2.022494310454389 -0.5334668820813007 -1.2755962692024483 0.23262081562765746
Ni 4.041639464371206 6.472995031234706 2.2538059294265493 -0.3051596062273325 0.6261363819925797 -1.1250288685331205
Ni 2.5387266951848817 4.730405299127308 2.8821095827235457 -0.5127301637545815 -1.5861341090225585 -0.20235198944078703
Ni 2.0618822781849726 6.320122545221202 12.829813011015162 0.6460351777990357 -0.6791689842385271 0.19554910758634064
Ni 8.395024079805745 3.633089538006434 8.2969192657131 -2.081315465260099 -0.9883994181011234 -0.548147624021927
Ni 3.0845920395900492 0.405280017474852 1.569482680060707 -1.8207310745399803 -0.8977029827558154 -0.31128885905352194
Ni 7.7321458099484985 6.705171770360375 12.107600895253439 -0.7308065059091607 0.38758326004088733 -0.8338434650976929
Ni 5.444898316638214 6.145390916397695 12.644371628666443 -0.329825998625761 0.12227138193811198 -0.45239742830279506
P 2.492461163747569 2.369212203164971 2.4633829376064416 -1.03903060999443 1.2732254549774267 -1.2521223544502242
P 8.701438883140266 5.273223382795475 10.658385011320327 0.6464416692088352 -0.9220477301487668 -0.010611199856943017
P 3.0385057587843245 5.625705598448186 9.952273375972739 -0.15542987096795166 0.3658767216017311 -0.6600386911669793
P 2.2996157868898774 3.487302169062551 6.769052921760932 1.8565048897054799 -0.15285516826223997 0.6246574834542081
P 5.622328139179311 2.6110684763964067 11.236745664959319 0.1891159503664872 -0.6435939153473947 0.38402870992040955
P 2.2765113239025245 2.1963485546074897 9.95960567022908 -0.7110020695887239 1.0581927847451778 -0.01762465506029868
P 5.617714793976855 4.670846918221159 6.808820146090981 -2.10851336583113 -1.0418387688671864 0.6023804172235626
P 1.4963371012801652 8.504395267805902 0.9250757160764451 -0.2914227162572143 1.3087334180760495 -0.3221052329427356
