# total energy = -340895.54777273623 ev
CRYSTAL
PRIMVEC
9.03326689999001 0.00000000000000 0.00000000000000
0.00000000000000 9.03326689999001 0.00000000000000
0.00000000000000 0.00000000000000 13.22109920475180
PRIMCOORD
 96 1
Ni 6.423302960223524 1.784684419081951 11.489914963721231 -0.08523978310611126 0.9135864867552911 -0.9653929299036211
Ni 4.51697657287061 0.11864744038726863 5.984583397085793 0.5033271252731266 0.11272204768678006 -1.049897634615921
Ni 2.925856990867984 1.6547589453227607 4.7385607963440295 0.0714283311443157 0.7161895273269343 1.0739883570165376
Ni 3.313338962424715 4.263060481519912 4.985742587431396 -0.21927139090394496 -0.4410344378814921 0.07002965102457616
Ni 4.994800243868742 4.685058564822029 2.683472767681159 -0.11965888401592942 -0.8343296607054922 -0.3965546103015622
Ni 7.064773289263893 6.072170853535526 2.479696726017437 1.5221007847907333 -0.044275424878607625 -0.004964543094126935
Ni 5.039280048693205 4.746800942152492 11.500187594518628 0.6193890359664171 -0.5674524949981259 -0.16985195993055263
Ni 5.556452629077072 7.707923805895112 12.158386630007906 0.8911782942634201 1.5531584254274864 0.26146627910444004
Ni 1.8557581608282705 6.4097891933637765 0.6139405456969416 -0.40592396733160413 0.6348048563008551 -0.657618511761261
Ni 2.9392171921952346 1.7623451507369272 0.24939494140864943 -0.47060032446406697 0.652719788908063 0.8311196384086266
Ni 0.875192552867693 9.481135976372865 4.483988889836903 -1.2827241384964814 -0.829670564666926 0.48162032972365443
Ni 8.74282902919313 2.190305190006579 1.4664713426013667 -0.4624159888810617 0.16086621149217456 -0.31970279414883
Ni 6.909328837310326 0.5680506479534901 4.748793680768308 -1.303445944424865 -0.25844857532403875 0.5679219784353767
Ni 0.919884639457667 7.61429399740495 2.8091002131837532 -0.0033650598174909787 -0.32914491339833635 -0.584334101244813
Ni 7.786820356532167 3.9377454508246674 3.6288610287799528 -1.503844666794023 -1.0537699730871337 0.31701779111749917
Ni 7.7199199839631225 3.742382993688464 12.56541117056489 -0.41480687164353075 -0.042269193081856234 0.08004075540367507
Ni 7.979301201617394 -0.21883630376838212 7.01376604598164 0.2759189641946603 -0.09694550157881368 -0.6665829200434004
Ni 6.721987920930444 0.7075640309004719 0.4544591268920241 0.07094264975714878 -0.47239084070558646 0.11899091141462734
Ni 1.8059577619661125 6.522632759949316 9.202453377937028 0.20234299057972246 0.32954034906454216 0.30999199461896937
Ni 9.09559615713889 4.614599085205698 1.467290659883572 -0.31208770080573345 0.8986830872808974 0.23206777133766482
Ni 6.174048034447445 2.0090255955270244 6.97636380555197 0.30191076027273167 0.31058720500080705 -0.567212611073178
Ni 3.3846204693032367 4.586343027226226 0.6201933728495601 0.9966187206871222 -0.8619710765718446 -0.26945238263371013
Ni 6.043842529423114 5.65221428848896 4.720302757856782 0.07340268126186714 -0.0874470751700752 0.7100368774619772
Ni 5.39182134497353 2.7194016823255174 9.281911797757692 -0.028452856024054226 -0.06272463272273068 0.07014895021125983
P 0.2346571669222336 5.543824122345837 12.465750753280899 -0.24235886885102775 0.12135632632301034 0.7227270713351359
P 4.014988913670724 6.341470597935788 12.601545140361464 -1.2621293450642648 -0.9264800548885075 1.0249929009544412
P 2.4916188312991845 8.337325690734529 1.4361683464063741 0.0720022013699147 0.4390503175719277 0.4074681718902724
P 6.431586465711751 7.642974618915442 5.747819672388364 -0.17963217924576808 -0.021938966164936412 -0.2800625540493886
P 4.727243919925652 0.9915726433339747 12.606780821692956 0.5175473826375667 -0.03234139244518301 -0.7129859327879721
P 3.949633229693269 6.1319710785432315 8.182472014417746 -0.9747664006987213 -0.5765847963166973 1.2508522294885491
P 4.865371599773513 0.9575262614526989 3.7906215407524595 0.2063955633825413 0.2509478960716194 0.9667872391479867
P 0.08544837891471241 5.571944681326047 3.555483804046176 0.6975310316854826 1.017788412786202 -0.3029104051818396
Ni 1.8269601068517496 1.2176211071697514 2.3802738836454855 -0.426164462748195 -0.903789041048895 0.276148306596647
Ni 1.6760774545400094 6.603769560707505 4.928178095911516 1.8069039388489012 -0.8099512318611278 -1.5772982558984836
Ni 5.8512352186052405 5.51039200259455 9.24130997429211 0.5652436602722652 0.6861803825593538 -0.08045058924758403
Ni 8.678196006545074 2.1447504264546358 10.204665402693069 -0.968355354966055 0.17118379136809872 0.35605305064309
Ni 2.1433593033955445 5.226702264472644 6.992652591916607 0.2597258993745656 -0.8827347914817573 0.8604929493644213
Ni 0.5111925578830966 9.053320469369094 9.19355561031881 0.18769541586987673 -0.24437024285410175 -0.27948225606588645
Ni 1.4613657403091682 1.3719906003958378 11.659938204668748 0.21779146392430876 -0.35616026564491565 -0.9352673141628345
Ni 4.23176021269035 6.754272815821311 1.74382334086445 -0.45626616722958196 0.8356836036302252 -0.26870393450345986
Ni 5.669657526327311 7.888751737043792 7.753764923998829 -0.6610722746378164 -0.46636648888837745 0.9245368151192078
Ni 5.37949996930729 3.063036177721009 4.544699668119651 0.06134035078069435 -0.12599382509502172 1.2560633413758433
Ni 0.8022958979179667 7.248844163128247 6.804106637769953 -0.917373207491233 1.059815407950265 2.157218801456633
Ni 5.044194145733113 4.398207183384005 7.288117193074396 0.6703187329367488 0.07413493144220136 -0.9341817944081395
Ni 8.10368928294007 7.0700487169685 8.961961624106566 0.3109055075721742 0.8464038182612067 0.8439458436390176
Ni 4.666151937791646 0.21448136593209582 10.257272437493278 -0.19609855233190743 -0.012160546621933896 0.36819765642542396
Ni 8.342275920840908 7.189233636719508 4.7844777938873335 -0.45976620996304046 0.6118415626364624 -0.2759585591833441
Ni 7.284353934201555 6.025333366123901 7.021103768455017 -0.3551824751126786 -0.4857312665682344 -1.0244254584867454
Ni 2.155915543993839 5.354992716974071 2.8967165760866607 0.572897063052465 -0.6450275624701279 -1.2858840242817013
Ni 2.3259487215346333 5.4817565474171435 11.422156430823527 -0.6165991319261058 -1.1003251951388535 0.3089571255965518
Ni 1.0692677695109054 3.2519488824923326 3.765791800800997 0.41433173177932514 -0.28719273733626666 0.3963741188596399
Ni 3.743783150014173 2.607723407133633 2.7226211385479866 0.4053902063153212 1.0532868628031278 -0.7258792438108725
Ni 1.0168748231295313 3.2181012324766414 8.476919469754407 0.6311829432775516 0.3159795796609719 -1.8786444019169968
Ni 3.55049834419999 2.687776215897726 7.016000876142803 -0.5644838992881053 -0.5254964622813144 0.17811111461555132
Ni 4.0905883219924 6.520708674159793 6.133083073663844 0.3356192082687704 1.0324329021722543 -1.1684946530262392
Ni 0.6111257798189353 7.3688059438083595 11.452525369864828 1.1285085995516049 1.073325526621558 -0.804467325928421
P 0.19268499691078247 5.435596555001831 8.091576575732693 0.49686414325660233 0.18808853754323737 -0.3727508230137451
P 8.479852571425102 1.7139449082004785 7.942390370891717 -0.6285151666374015 -0.6345135503126814 0.8175411283932436
P 1.8765708071149405 3.332344955387889 10.414603035516572 -0.045094835456109435 -0.6699526078465816 1.7882526422963008
P 3.9201576807204366 6.094681753946281 3.9707719769048295 0.1028891207567583 0.6194597413033525 -0.4801429738471796
P 6.870097360390618 3.9204557785188134 10.42939771958268 0.33494429368893286 -0.42424282024544996 0.4812395493454679
P 6.216892818014145 7.593896881382684 9.974433633086738 0.05632695672650299 0.15868025958444928 0.40285304171576425
P 2.438458057255325 8.52409751131751 5.617407305558492 -0.7510153767568678 0.038611798834927054 2.542030155179338
P 6.798328057114753 4.035539595225487 1.5457707769295617 0.7283621581337263 -0.17847286883034422 -0.2605676785495706
Ni 5.387187279198764 2.916670158718008 0.3125212151849112 -0.5879318458984003 0.544224891928753 0.1501933051593607
Ni 1.3989368347157758 1.1817229056318925 6.91733140820675 0.14033929518341637 -0.4343822226722971 0.26897055790128516
Ni 6.780686087410818 0.6525008509069712 8.947100997194152 0.207158666800811 0.07909536077127023 0.8028994672206688
Ni 2.8207097674405364 1.475809933630516 9.250128249164092 -0.6655357097258087 0.6534584668463004 -0.2915489574224333
Ni 6.328778858338231 2.031400996938518 2.641641516628941 1.0177367336126601 0.21501004452442968 -1.1623404604993854
Ni 4.05390422625882 6.739358892635854 10.427996659930306 -0.11653345101307026 1.2830972055651837 -1.2147616544135789
Ni 7.952264634631282 7.337596007644971 -0.018192095640939532 -0.0073168453763873985 0.21269913700306592 1.0175271887050152
Ni 7.605676261051875 3.92498144509417 8.242786232295988 -0.2297365521013269 -1.113347061319818 -0.12376853530892876
Ni 3.055827630960261 8.520493237937137 12.450268637625202 0.16076902379267796 -0.8255079486488042 -0.03473894614308211
Ni 9.092976509819824 4.641716951591368 10.235801266070194 0.2981728904968542 0.2306588068052802 0.44216649460340623
Ni 8.337903819798049 2.1718321597738357 5.7574979142423315 0.8827648733887442 1.4844814317760626 0.21886824192825532
Ni 3.8061307562080082 2.806039742453752 11.397195708506112 -0.27275522175469796 -0.877370184735734 0.08428127584758388
Ni 1.157405351897641 3.6048786092372094 12.754936330812878 0.6801909977451382 -0.6895585550029673 -0.553250492466131
Ni 3.039459351849391 8.229071023590668 7.853835451587253 -0.1592397316323451 0.293293708027682 0.19794717550487198
Ni 5.761074184496191 7.787886281993029 3.488214874199139 -1.274757575351237 0.5841379260736068 1.10899624055029
Ni 3.233539085125912 8.51482034650136 3.670428508446941 0.32292232952739225 -1.2634660615978175 -0.937573850808824
Ni 3.5565777326335533 4.188355366593367 9.394013733153935 -0.3269183380606628 1.1128945471634317 -0.7302280076978714
Ni 7.492579763001047 6.081438985085058 11.235514689279839 -1.3711006674593613 -0.303639055817748 -0.12915319665960984
Ni 0.5804397731193617 0.012401771739135948 0.550011214518386 0.16920095661011506 -0.4459254474252062 -0.11845946439118953
Ni 4.495332866055132 0.4365768722960641 1.6648671706677192 0.016384097784978235 -1.006219734111996 -0.4986775423162573
Ni 6.024710070727294 5.719340492723441 0.2606792980672033 -0.01649208411775224 -0.24741031523200616 0.3327434293828721
Ni 7.731925195297752 8.808527977302049 11.060070585035175 0.4266267470965943 -0.15608061717807314 0.32066438673115094
Ni 0.05898994099211849 4.809898309475578 5.7047192473763895 -0.7394076173146105 -0.35202438909967115 0.24268719872472397
Ni 7.911461369320133 8.801599461806443 2.656039640290539 0.15121249045249444 0.21955395514137027 -0.8668425457315329
P 8.391832421504393 1.7078203534338283 3.6005019915610412 -0.13393030633327901 0.06637997008713084 -0.9556960143308315
P 1.9392436109070048 3.2671699367427838 1.6410030869176648 -0.5198256371487822 0.4030314762751575 -0.18868400503539118
P 4.574247483225422 0.9247264703646353 8.054187885202952 0.5075205945291841 0.35011097412704223 0.24933735705138996
P 8.458199831343007 1.3948718647379104 12.502664293986562 0.012733388406268394 0.7812353519836739 -0.47597033052672866
P 6.272068010513703 7.809819053340267 1.3784710658672168 0.26120659768515014 -0.2073108761079591 -0.45314150555767113
P 1.5307141281315488 3.2036931722217634 6.083000836883221 1.3497162882463143 -0.18163841104251943 -0.7683775221843993
P 6.856592626797488 3.958314198912665 5.944523569617264 -0.09947520997920287 0.15138578280556508 0.17683687588881802
P 2.3241059351446673 8.697256199107951 10.35153818795331 -0.07626534752164285 -1.1462769792786194 -0.26606778243219337
