# total energy = -340873.1975917118 ev
CRYSTAL
PRIMVEC
9.19898168325984 0.00000000000000 0.00000000000000

0.00000000000000 9.19898168325984 0.00000000000000

0.00000000000000 0.00000000000000 13.46363954076887

PRIMCOORD
 96 1
Ni 6.768675080152744 4.661363168148005 8.928425786969724 2.0493880204238835 1.2621799957965423 -0.4132608673126496
Ni 0.8790905611012246 7.110739212262768 0.9673327123363628 -0.47550753195769724 0.22110381612699342 -0.47614233732821865
Ni 9.080434359002858 3.4742713840342487 8.075046379539268 0.41544399100689744 0.042966476259196966 -0.3378033604042827
Ni 0.5941475054558295 8.534060844771991 12.358233893269569 1.7748672221283306 -2.3170113202686546 -0.02979857141867126
Ni 6.864031723784652 1.3100821685782185 5.154958445144288 1.0382099138653476 1.1349157886295294 0.6364498481034457
Ni 5.759031651784647 4.728791703535029 5.263798036159111 1.4700971380299328 -0.3302767130099344 0.03529636130844889
Ni 7.878936969648162 8.827572751810703 11.361709132611626 -2.517012292978762 -1.0552270172486344 -1.5170269698122518
Ni 7.127858517086131 2.2899116974661875 7.54900905400964 -0.9450804435985143 -0.4922757525549716 -0.4894439395331312
Ni 8.986089603350838 0.7586050593360654 8.264843448232204 0.8583123967733348 -1.133072050552571 0.5245667513781934
Ni 8.480449179801244 3.9254170403761037 0.1210650376081856 -0.28293473339086106 -0.9672392390837407 -0.608755467511971
Ni 2.4623098122940466 8.547601745739206 2.050821885680295 1.2892089748898765 0.4247493275682233 0.11979489537316144
Ni 2.0830633964139893 8.071591242037035 5.748812503085951 0.8397670296709796 0.3755949773307595 0.6899326505129344
Ni 7.552980254381615 6.092595924863619 12.372774723540548 -0.39458771638317847 0.5925294925714119 -0.389250106220349
Ni 6.42614179997932 7.156154584596428 3.447108631061424 -1.1683797247149297 -1.1619771636226957 -0.8322912901192248
Ni 5.696349790921458 0.9576047892569933 12.822312397892546 0.15792255548281836 1.3456200066897537 -2.1464957586121742
Ni 7.705756941381299 8.333909402350319 0.2572228443854694 -0.3019992062214799 -0.21424231312046974 -0.40477571265977386
Ni 2.237017553062997 5.766400036074552 2.5026344681907116 1.323479208926656 0.8439676980158884 0.41328554990299793
Ni 2.715337001155638 0.6190942237527011 7.445796480061154 0.03024362937588985 0.29093806331131183 -0.04351746366666054
Ni 7.551554412228138 8.334001392166671 5.177752601738491 1.1464803535386772 -0.7802822440417853 -0.7131443127427072
Ni 6.780891327764472 0.3563906261088977 9.343805802713387 0.07009212883139541 -0.6400481069776655 -0.10322207861614481
Ni 0.9385996931983862 3.8561487086620123 10.115218604180333 1.07939615829567 -0.9484820130808954 -0.9896849696817664
Ni 7.349232010140526 0.9054106873562523 2.750675809005951 0.7741805020194216 0.21300381272767832 -0.6722776564353325
Ni 0.25741142350899376 6.936676081758913 3.6796938429329695 -0.22473472801136135 0.999783491568349 -0.22081019614597452
Ni 5.564822751499403 9.078336991190001 1.2825634150161067 -0.9764113925013119 -1.6452486557965276 1.4814323605370938
P 8.07132447156961 7.843953242488974 2.277226301791057 0.8873591776276459 1.624508080815067 -0.005249421324397411
P 8.011751866499164 5.2450385529101675 6.881306491397653 0.1361615096566429 0.49828339220163226 1.167022696466403
P 9.12450668001776 2.445862033130063 4.039576402470641 0.3982651652347657 -1.2549081447254775 -0.8058822039980766
P 1.9893717684580774 5.992952555789643 4.797862257143961 -0.6940207045393789 0.6271828209792231 -0.7353743277855013
P 8.152937836638324 2.1293894679295486 9.548157500149754 1.227268785741654 0.712014055793006 2.0133457820883454
P 7.326602515317596 2.0053503995586586 0.6306435451958673 -0.09150144774510693 -0.7549167686938031 0.6109357629927413
P 8.278825900317917 6.055726406469186 10.211833668499954 -0.6302126089444824 -0.026473106589864088 0.6101695742506782
P 4.414388909202466 7.084016170612112 1.6767618556462411 -0.952417857800192 0.2508900462504905 1.0980613388053413
Ni 3.1650660143256513 3.9087576846345073 10.738881962111307 0.6882488350526083 0.5802635307198653 0.3256908934114649
Ni 0.2137604158529905 0.635487728925036 1.0818333566495715 -0.7223498905013752 -0.9934560066884245 0.11451333525924792
Ni 4.664086066712065 0.458405492648463 5.840943983756509 -2.0816903321010147 0.7185053199443046 0.6013368064503966
Ni 6.311936442976604 7.071717132165666 9.664684680117228 2.4986520453040195 1.3406194681513686 0.644166242911097
Ni 0.3041983640044836 7.927608781480734 9.814548969531165 -0.6779081152482325 -0.5552924625968243 0.47911787501677483
Ni 4.152760672511833 7.82135134461095 8.097773383567533 0.2075754426232554 -0.6909124979277004 0.060745140398856666
Ni 3.7887937651280716 6.017155076472216 6.050694563514656 0.681743944054555 1.170855439948932 -1.0450189663673808
Ni 2.2455358100573193 0.9657090920777257 4.680917443410243 0.5605920204328667 -0.16189645252890184 -1.4466576760600698
Ni 3.0533627803277485 5.055125577048625 7.850581108757235 -2.3256419993604593 1.9113262084207343 2.146888880285535
Ni 3.7705889804717385 7.495532614068933 3.9802963250161993 -0.6187804558481408 -0.3523126097640513 -1.1132524447234826
Ni 0.727849184136478 5.467193959403566 11.749704699925054 0.028831579519711638 1.1729061518303736 0.9882392383741755
Ni 2.048604011208015 3.517598587536688 3.789906841905948 1.4878814585965472 -1.8211051700499474 1.5119922356018218
Ni 8.457709297198688 1.6652732474818681 12.211332595840377 -0.5651369594910718 0.41431656227067354 1.1363455790975205
Ni 7.33489999675267 3.472376393817369 2.398102760275718 0.06473934915991432 0.3210269122768923 0.4313184961453088
Ni 0.3178570119366326 4.726252784603676 3.3110317753225313 -2.5668729252546307 -0.7916262082996948 0.003395398834794152
Ni 8.360807224652044 3.468660005236693 5.759543115163572 -1.7866801556028584 -0.051053624142705624 -1.230635645331358
Ni 5.234864479221484 2.558586354089488 4.005055384087711 -0.6791103630864498 1.5644334841206735 0.14520845035025962
Ni 1.0060006316405037 1.2416509441929433 10.614127212969185 -1.4473205064550494 0.37631822865002934 -1.0015233570775912
Ni 4.75690379141262 3.7604976976177737 7.896707562371308 1.000281000030058 -1.1793969017610397 0.36069620584205625
Ni 4.767951768356661 8.634651708954404 10.567180210193241 0.3873716582507135 0.23727039858452686 0.8427325400572067
Ni 4.927581696674671 4.932723927408825 2.45736995915587 0.5505842584878776 0.6058647762277373 -0.14632379490162542
Ni 8.117466563452462 7.812345541589955 7.917239689381381 0.18249150307143408 -1.3200827816505976 -0.31363293380566626
Ni 4.290441830647929 3.9483225046480936 13.151727010355815 1.2226310298593266 -1.3410293019952777 -0.4049533758882187
Ni 3.161873967698189 2.648083246419686 5.855161929772088 1.23515024537226 1.1065151259996493 0.8819434059287135
P 5.809948015136239 7.904040990531 12.60895397753702 0.46262784778155164 0.16891376438699943 -1.0396422754364996
P 2.2930853461303786 3.1088694355153743 7.89766333656322 -1.1411363156179444 -1.3146006754901036 0.10900937472188323
P 4.682024080900973 0.7310301919859779 8.758003613397136 1.8197707675092403 -1.7788079519436333 -1.281048036345639
P 2.3225588832899997 7.068157126272791 11.887585475962636 -1.408129952298517 0.24359171281686437 0.11877031076338898
P 1.2361867491015528 4.879783788097458 0.654649207671444 -0.1509263266706433 -0.33811009301142414 0.7816858092575313
P 5.441749576200222 2.688374785982464 6.239534938117518 0.24354106208458703 -1.1062883547008238 -1.1792382646959885
P 1.2748224719699701 1.1782147668356562 12.872249069699974 2.341047278171936 1.6632967715474902 -0.053540395120301336
P 7.5319053874550566 5.224018879873421 4.007923626561609 -0.11080451894909304 -0.020057947092139646 -1.0064611606988407
Ni 8.117043410297237 5.782535049862934 1.4368938100139994 -0.9225583512365982 0.38517233660654954 0.862452129973321
Ni 1.5331574732351518 3.312654475683005 12.52887224291059 0.31200876793868204 -0.25291504710031926 0.23403363681478404
Ni 0.7787269117652025 1.8477258492371513 6.49779450773329 0.7752536804789423 0.050173021309965204 -1.301425057340094
Ni 4.380812626233483 6.325624527649987 11.523892698231606 0.62019044882179 1.0261169872565554 0.2698115657453418
Ni 0.5882454388385969 9.219311384751547 3.3064681605332407 -1.191288253881987 0.8683396991023496 0.6356258095402537
Ni 3.5084823967360688 8.150840468825468 13.170051381773407 1.2880656053140527 1.2638123891936428 0.9369033071043605
Ni 6.1846685320517105 6.4380452822154455 7.088969822222741 -0.3677297156500699 -1.1269906202451816 0.6225970013807536
Ni 3.174274194942624 1.7975178074714795 9.518429151198834 -1.2698583382774065 2.4187308461973442 -0.4341531373806265
Ni 2.509206220670997 6.152150131970793 10.073750514866395 -0.04716148817715103 -0.545776295576273 -1.6300038138223156
Ni 1.2748684668781467 4.345893291945743 6.070458575558179 0.8886185039560438 0.40589619941746224 0.6291353167199036
Ni 3.056343250377598 3.569959191005029 1.7493712574902869 -0.5554361872635402 -0.505417175032936 -0.9927283844937806
Ni 2.4177867411790133 8.666535379302486 9.759321043487088 0.9425720753543638 -0.26729599841233964 -0.4222545861708277
Ni 6.1306429129073745 2.6106801870904044 9.731720418988422 -1.9400143203840459 -0.7307663966998447 0.7539886004525788
Ni 3.08340665434876 0.8796176627489296 11.535861493237345 0.8487471216824027 0.17593236179667768 1.4716166599982528
Ni 0.26187476939845955 6.697290982662526 6.021518153461857 -1.1050079453265034 -1.0216944327088278 1.3088650585579071
Ni 0.6811809105040841 2.7202308593856377 1.977822447014911 -0.38502218418193046 0.39514564576917754 -0.3099102335384405
Ni 5.224212058487763 0.2676038951609477 3.7028642378760575 0.135691769109076 -1.3989631981975843 -1.2431137231937106
Ni 5.805753279510526 4.587338962928445 11.213057268977227 0.3861041043921996 -0.826335586756422 0.09540232546140989
Ni 5.1748871189590835 2.5315781440081375 1.5970572792668598 1.66556345609448 -0.2827478141910356 -0.8513012555628241
Ni 3.424238122919648 1.367695390560337 0.29894390569437884 -0.9226228859259464 0.650396540091525 1.3676520467891287
Ni 8.11642707852767 3.701808194784321 11.136220935071744 -0.7110573483066915 0.9334354031604183 -0.38815738737680244
Ni 3.223203578260984 5.8351348268537935 0.17050220471281613 -1.1126994004334902 0.4763351700653151 0.6281390142449053
Ni 6.248224296170258 8.745665019329659 7.099309477580861 -0.25962922589570125 1.4487099306034084 0.8995130393813605
Ni 0.4356214549340592 5.708547640569915 8.57737516970014 0.35363801344369417 0.4651354446947537 -0.9225442101692111
P 4.908346626075181 5.737717611335571 9.227883915737518 -2.8628230970685538 -1.5649070813229824 -0.5146124683789589
P 3.7211444541818 1.333806342215754 2.6172638982468155 -1.5415799765612677 -0.16225460719926893 -0.0581328995869902
P 6.343847710269591 4.73670282774142 0.13714761720124607 0.021215200625034434 -0.14079952264928655 0.3272312413153913
P 5.347460014438014 7.508218009744063 5.366929659069205 0.6211602689342269 0.7994138226649135 0.9138770214125164
P 3.8399033070940063 4.529826929744315 4.413434974806881 -0.02917893555680136 -0.9442353219893996 -1.1372115266422413
P 0.11524024243668993 8.903896702439097 6.267634147420819 0.04250573457269454 0.8747286333478291 0.153475061234426
P 2.013951447387699 7.1632745963821804 8.081805791244914 -0.13194027248644374 0.6597185888233993 -0.5635454466342359
P 4.75376693867497 2.619345627790892 11.421043484057718 -0.23834280571309918 -1.0446399857614073 0.7708205844082532
