# total energy = -340858.8088658133 ev
CRYSTAL
PRIMVEC
9.42902194134322 0.00000000000000 0.00000000000000

0.00000000000000 9.42902194134322 0.00000000000000

0.00000000000000 0.00000000000000 13.80032671130168

PRIMCOORD
 96 1
Ni 5.369149052357547 0.009586486511959223 0.5398096149428182 -5.158904609163076 -1.6205488390570026 0.8334752831249969
Ni 6.620917705714652 4.535812101509748 5.928233473760232 -1.2388379786364923 -0.29956308597616155 -0.6464534962833769
Ni 6.285678262962417 3.4017082117827573 11.732071748095876 1.0519565740274788 0.2343285423473835 0.41436849855453156
Ni 9.258988296143468 6.070951148438126 11.699544451429894 0.12836129688593376 -0.16701551892302205 -0.930677895019939
Ni 0.21072166604363837 3.27124826550611 0.8749858832486783 -0.21856485175522355 -0.03487984259632058 1.1511857294341465
Ni 4.267943019855131 9.125577066028674 3.226764969137987 -0.1912599932926835 -0.5436543641372638 -1.042305938311592
Ni 6.569859552412539 7.856977608674471 3.901200272209507 -1.4258325117846025 -1.3522902196210775 -0.9964893941981098
Ni 1.900541930569526 6.77165947798444 3.3142172609655858 -0.40100210454995455 -0.654011511136293 -0.8096552978872636
Ni 8.710313514859994 5.52956500104247 0.32533331239965957 -1.2136054293219487 -0.5401790039941535 -0.5721023350653115
Ni 7.4507753475008665 0.8637653472506146 9.567173046509783 -0.3403466956514267 -1.6343050123008307 1.5261448729531202
Ni 1.3579677264211347 6.1948484955091825 13.796641885619957 1.1837713766796516 0.7892106568796665 -0.06978385356235724
Ni 0.9229569747980477 3.7927486058262048 3.5465738176374235 1.6400668544852721 1.7558667697664276 -0.9670255804110378
Ni 0.2586569273099886 9.041819064960773 9.654556506477897 -0.42170565564589313 -0.2340071544522228 0.5749053517317454
Ni 8.67793425383701 3.121260814984092 12.602347834931924 1.4539518957286377 1.2614228059155437 -2.0023674286999706
Ni 8.43551410214775 7.979800047254957 13.177048602317797 0.25541518781435363 0.3668869080338004 0.7890574191312539
Ni 4.563722006177201 2.3187850526418927 4.044613808699718 -0.7821468080543498 0.7279086155360754 -1.1206965597063538
Ni 0.4494776998431115 4.151607748305457 7.5996332012056005 -0.7560519107395108 -2.2784296033407148 -0.8479814471609718
Ni 8.577185155400613 1.8761207639855049 6.143077508155427 0.327490665624365 2.6566807873473985 0.6483779669995995
Ni 5.661448729618032 4.529532372959571 3.230614838758163 0.2151432276681843 0.18540044918811296 0.2812753434105672
Ni 8.373820012202094 7.089841820215249 8.494983885839673 2.1886551655890436 1.7930189533366925 3.37053678144515
Ni 2.244324067115246 1.794946314903714 2.914380532440967 -0.01940720088201819 0.02917173646794976 -1.5922746747026577
Ni 7.258064998989583 0.638183542775927 0.7535429105644242 5.014301396496983 1.1748018261911897 -0.8078346997387571
Ni 8.098115413392525 4.891305083189582 2.78218753194882 1.7610873947354186 -1.6608012588191463 -2.668310401166527
Ni 2.7452408527430947 1.1060431207099843 11.273652506835148 -0.04950607714992764 -0.989145809348845 -0.934500611200139
P 2.5170773820866676 2.882329401378262 4.819515339552222 -2.1627641567548945 0.18223850652036355 -1.426517453666769
P 9.14064464294036 4.876152645081272 9.334664682586206 0.2671209062870561 1.7388182989245733 1.2699634963967033
P 4.083388775241599 6.985764277066822 3.2752725720304574 0.6568574652255204 -0.2105700064752051 1.305671491321274
P 0.9186139673352677 5.16625536025138 1.8790663904105427 0.38350908997151373 0.7813726488924866 -0.2010679805220408
P 3.183398068956563 4.6423223322947305 10.236764661058443 0.7702593125881444 -0.8815523411378817 -0.48553946227240247
P 6.963266630939612 2.6806614821122214 8.813923378524805 -1.6147535725314641 1.3994383380617899 -1.0940637876101738
P 4.225125831647393 9.134591210914513 12.451854988838901 -2.2391835133558984 -1.6473988693703112 1.7566913225502518
P 7.28132639588641 5.4354256469208995 12.240709959714328 -0.8342751533184729 -0.0002576245367608467 0.32194608165705196
Ni 6.4712979870446725 5.4864460841356255 0.849468121423838 -1.2292215385926508 0.28720584996238924 1.0815409725528147
Ni 6.399807143399866 6.468469280490539 7.949153840447473 -3.8631701744498566 -1.4527015682613047 0.12041016035965715
Ni 5.071031668617392 5.670906038530687 11.193140917989211 0.2236471513741374 -1.4895395630252604 0.23412876763175164
Ni 2.4164508609342836 6.226350857500386 11.547934266247989 0.604572796889191 0.397431870700193 -0.09147599382381019
Ni 3.9138738204742114 3.776445827052547 12.346116994943198 -1.0271084046355472 -0.47239418313969617 -0.012831347436713384
Ni 7.608249441369492 7.869895368605015 10.948475716198153 0.3885749345301953 -0.00592587856613173 0.338987610520371
Ni 2.7286646323358705 0.5904000887613152 4.7966895634647315 -0.10192675684348898 -1.2102174866863222 1.269615626138981
Ni 3.275378177075145 7.56266954976055 0.18978075142338635 1.2740644059389543 -0.4420070862074065 -2.6550429946336593
Ni 8.28775190078165 9.113715356545006 3.5015709821655254 0.613778374647859 1.891708948410439 -1.4333290772719638
Ni 1.620820568453088 1.6626099932794907 6.568790301335077 -0.4718095142808197 1.104071292444847 1.06058879578118
Ni 1.344173067458809 6.797438423714445 8.44081792693675 -0.40240849797917794 -0.11029132675810038 1.0419156448517088
Ni 1.163041557775779 3.447882131768067 10.343675625271926 0.6692005601719055 0.28460800732822594 -0.3243850301158478
Ni 2.425823308650313 8.496453870345638 1.9096616805000532 -0.12768381120293493 1.88658448269968 -0.8305845918407632
Ni 0.17341102659461444 1.8070343209117121 3.9761364804372485 -1.3050870795727136 -1.3397756320938345 0.21368361240352232
Ni 7.116865396829073 4.661189805010802 9.887492005091149 0.30877432016178435 0.582422486044397 0.0319572696328869
Ni 9.259902911262639 7.57563445480033 1.6516506411865919 0.24270339667464008 0.21668100446894942 0.1950315445199738
Ni 4.613969263600463 2.582326213268686 10.303172319025471 -0.06951234506852545 -1.0615213348977783 0.8821665776831129
Ni 2.6681680281647973 5.335562876538131 4.910735468509926 1.239201532623498 -1.1460939167335358 -0.33392279440295397
Ni 6.145732720707574 0.9305859963745463 2.748142162765451 0.09405301052236706 -0.1059747016606175 -0.6280539107302667
Ni 4.946342283711177 3.501910426952021 1.02192398810534 -0.524330209887355 0.19326596797911877 -0.13476205820595502
Ni 1.5668582764220635 8.726257990803461 7.157539368370962 1.3769067326181772 -0.5457148462107183 0.10810151819563318
Ni 7.22437510392985 3.433135141599183 0.28216442167702466 -1.4100389963957716 -0.55514796659916 1.5112697556135004
Ni 3.0903241943037156 1.5579101346891542 13.63001692604871 0.8408540920875712 -1.5136295140949287 0.22102514037025806
Ni 5.353025424998983 1.2897864694446644 12.353114272055938 1.67828810275 3.0540686921835336 -0.5510946224653929
P 3.813077576928579 9.05352048107304 6.688811377524787 -1.2375195169353848 0.4523542337696855 -0.29493818560964047
P 1.8282401910458679 8.26492423888979 10.754249180973853 0.9022841743685945 -1.4926984203692164 0.8912454000559297
P 1.1320389339424732 8.90151521987574 3.405865467515149 -2.0114123125110583 1.194381290985014 1.5849238907645413
P 4.143121628643056 5.501362796697757 13.61680969514746 0.018718145234793572 0.014929881836954931 0.7204570443540366
P 6.486365563956359 7.708517659691686 1.3231614351747036 2.0242511161469396 0.9524978191085081 1.5914043562825624
P 0.9407476532191794 6.336924996701474 5.83528877670669 0.17599946758918722 -0.3335255589645353 1.2383145020328543
P 6.397581894243947 8.196271530820965 9.296424341583059 -0.3817154884062006 0.2450613553838554 0.27366204983968356
P 7.371062396805379 5.781329313382219 4.374689919088476 -1.6037502794424252 1.369190594920842 1.9997251059811174
Ni 8.955213499295047 4.29188330632495 5.26608041454676 0.23217318656727756 -0.40755121852238196 -0.5899905281996419
Ni 0.10313181225716181 1.484976650701739 11.38510354506802 0.9401668083469809 -2.2405449124797996 -1.835268606034523
Ni 5.393805944487745 0.432496031496462 5.100711400685548 -0.5018446271903292 -0.5536934935408206 1.2667437039078249
Ni 6.148146550300435 2.3809694517235993 6.340505196296823 -0.006778970595046389 -1.0636466087708973 1.9111125497480312
Ni 3.527472505179543 5.274990840192281 2.1456191806153035 -0.17240198004591598 0.027895183748371317 -0.5092067239823553
Ni 8.83424857801844 0.19319122862548693 7.65829774643178 -0.5049978281073303 -0.1265725804166272 0.060644096044618144
Ni 7.6093337788819095 7.893920516271457 6.391041924690791 1.3742512972732008 -1.4538217979086767 -1.274667843850908
Ni 4.784351688377786 7.895617740203937 10.950959320552682 0.18380276568368992 0.3753011002394246 -1.9567858834154301
Ni 5.81819678880443 8.74350367176183 7.339731643011793 0.38969233596409014 -0.0003856654741928842 -0.1162503725550127
Ni 5.018408297688657 4.199252595698916 8.83416843133274 0.6367208423766453 1.5559239039877655 -1.4234362436382841
Ni 0.2415564532880655 0.8317057300682476 1.4678167738421792 0.4342618950443489 -0.24144664144940353 0.594667364850021
Ni 0.1624328164580214 9.266314646118675 5.477970336397256 0.8480824915152103 -0.7238596422776824 -1.159146893262752
Ni 2.450706497304843 3.5349874355916917 0.7871998040476922 0.4377863632578396 0.9645953737029904 -0.18392926395922515
Ni 3.8715280833588293 3.0804237213642476 6.241060131581881 1.420459163287831 1.3107478774029169 2.3156164968036568
Ni 8.208236959544951 5.737314639399899 6.856195373354726 2.3244790894006098 -0.7462799189544115 -0.9565102827020108
Ni 5.750883001837894 7.160059745910696 13.265605032603693 -0.7772642831510678 0.12176281773280964 -2.647269264225512
Ni 2.9864823767014665 9.064373285219068 9.112894088742122 0.06579273012509314 -0.2067298067935085 0.05530108656514992
Ni 5.000125424327106 7.317316972276838 5.552091877137407 -0.8363052963746243 -0.9976541039301721 -0.5920155290494706
Ni 3.092992607486449 2.940996775310996 8.52473810718042 -2.0244830296520875 -0.43316943331111846 0.0751335479100448
Ni 2.2985503717579894 5.116649276313723 7.1474927455928645 2.099441999657481 -0.11158716275138847 0.24122244125373937
Ni 9.19873684654042 7.010477743328105 4.181637297084141 -0.962207333086788 -0.26371213771582325 0.3081562269618112
Ni 6.9407312687250124 2.4632470963615027 4.171079621321929 1.7649725887224375 1.2360624727738843 -0.25370900375652433
Ni 4.823368980781137 0.9965250319557731 8.336542374329534 -0.5193001036626153 1.9367171376900127 0.4738851658629258
Ni 3.7194851060741407 7.000671560607107 7.604545721587946 0.15065173285301797 0.45929415542262836 0.3515052833714076
P 4.046728738300025 1.6634586052457305 1.8621328100753136 1.5887597195708638 -0.11163292838765934 -0.6225404371112052
P 1.1108330638083173 8.87914958005439 -0.07329838713289802 -0.40137517161865716 -1.3043697417907147 0.5795258812228922
P 7.999723570417906 2.4840286605125383 2.0566629598030906 -0.47879545868034956 -1.3751612106819802 1.4246847713334045
P 1.6523512175098323 2.676371277171785 12.406893641063132 -0.5132698383081353 0.7782567289713243 0.9553967379228577
P 7.570165622129005 1.2234627297720755 12.192243844517986 -0.9374607222697275 0.06582409758366083 0.4625802823730678
P 1.480771306957927 1.3202233519671434 8.9883593397942 0.26123282293739525 1.0999451860916154 -0.5503289479439619
P 7.409042496805546 0.2906769426005978 5.546489152355853 -0.13394444740066608 1.1131094913877153 -0.9660714440278846
P 4.797854047662851 5.211175220331024 6.797115951167274 -1.5212744322346963 0.13912419182939265 0.2132660652501295
