# total energy = -340891.4751295405 ev
CRYSTAL
PRIMVEC
9.08450925807130 0.00000000000000 0.00000000000000
0.00000000000000 9.08450925807130 0.00000000000000
0.00000000000000 0.00000000000000 13.29609757545832
PRIMCOORD
 96 1
Ni 6.407195157688181 1.8111876365165016 11.334617375701676 0.8122536547420591 0.7333716955331756 0.3969037661108648
Ni 4.620844568677265 0.40544072657993296 6.002284057980807 0.522402653847339 -1.8243997816408193 -0.7417779173189999
Ni 2.9791647849064558 1.6264268932214758 5.033476592552524 -1.7487988071760525 0.49171062408012084 -1.058995740262447
Ni 3.644405207268938 4.210788003093094 5.117242124350167 -0.7495483052930382 1.0310064541383728 -0.5390847424887103
Ni 5.298230979523642 4.453671434735134 2.79313766106195 -0.17721559938447543 -0.30620424544176295 -0.7877101610747401
Ni 7.287638512881613 6.007976411297194 2.6450719748222684 -0.30265560885855614 0.17779949691240346 -0.20179894515079438
Ni 5.021852963334018 4.683645779140365 11.45142326659874 -0.4768794726045594 -1.4657110931470951 -1.4415882319569622
Ni 5.393055084082275 8.09159938711326 12.555956929741889 0.8447027764097002 0.22714436589411852 0.25118032379739963
Ni 1.9159229403540645 6.609779707569147 0.24480480528777218 0.6002654277630888 -0.19394782453749176 0.3628361350031945
Ni 2.8284346121878468 1.527242224360472 0.40652269159745863 -0.24666880908029132 0.9494734304598874 -0.1531585584352717
Ni 0.47771889679351764 -0.03214644341743429 5.008188044951464 -0.15464748427597236 0.22517515798288962 -1.0735183593586544
Ni 8.772665024089761 2.1223320685085674 1.4182417435646528 -0.12412309043487012 0.8770763076443991 0.4647302388365351
Ni 6.783039462516671 0.6360664302778302 4.8746948195397675 0.2097876197832258 -0.07447020329443305 -0.9952233830014925
Ni 0.7231950472936756 7.4220347384842595 2.4767305730274605 -0.43283956077552554 -0.14826369223681563 0.47949068497516134
Ni 7.427249246629177 3.757561850915454 3.820473892387905 1.548952614876255 0.0513618994117438 -0.27088217310170126
Ni 7.739047763266599 3.6464492217856743 12.757977331616235 -0.27814605375296614 0.08268950588043178 -0.9312250257726606
Ni 7.864632015174871 9.0815655823679 6.915287201749503 0.48514659770935803 -0.6189923147486307 0.23316254706374034
Ni 6.9739958409246485 0.7975181404748929 0.5407708397040033 -1.121874896285171 -0.8063244337418178 -0.3309559984651461
Ni 2.173041797541552 6.680348173195844 9.174426524539568 -0.8632908238245327 -0.5258487034144105 0.23810035068498997
Ni -0.06152483695375961 5.065921916314851 1.3188971873458957 0.05585747328925218 -1.2295095021467148 -0.4198773441879026
Ni 6.4277988240168815 2.030696626596043 6.926548359060375 0.3483705943971677 0.9442137247228448 0.6446786637711414
Ni 3.3729509949374075 4.259480971136232 0.6431105585279513 0.15155033340788737 -0.4143440730744993 -1.0467943131002486
Ni 5.944957172618976 5.514187926598543 4.808759453484339 -0.072416663199514 1.7672377306075306 0.09654132416185955
Ni 5.243424136948222 2.7707388957621064 9.250652822348592 0.6257237199351933 0.34090308237552897 0.11491854111746659
P -0.014286298795641545 5.516241025624244 12.497094762365267 0.43055796383020045 0.533943821717719 -0.32660697746783107
P 4.230619486159917 6.19815152193433 12.575316018342622 -2.1946977722386976 1.0030169109039824 0.12233720217904091
P 2.1937999005226283 8.454743548411093 1.3494738276144767 1.9593562152457675 0.8054420311368644 0.17975739196972265
P 6.317630983819282 7.761377486298322 5.668750853648757 -0.31113973507016734 -0.49715313525193094 1.030876613428728
P 4.853235392466726 1.2502827995971986 12.780208941951157 -0.8167672263416966 -1.4491357052869172 -1.1062760134056495
P 4.20352948043144 5.891313147190854 8.382245533080598 0.1615555242497153 2.0127210040201526 -0.4726330386233795
P 4.429679246563133 0.9342963243277087 3.7043720509354965 1.4965360489477515 0.22151776373596044 -0.17607634357370966
P 0.30032841562039436 5.42436030196971 3.5568123718450693 -1.0550647806391573 0.7807712678630617 0.7603502810045486
Ni 1.7007200075231141 1.2076673680504897 2.5782862987278783 -0.5454597927771186 -0.6047108651289521 0.8447793952839063
Ni 1.7573437518911885 6.545170679822356 4.853381653061035 0.7561388140263623 0.16128401575588353 -0.45535008317321574
Ni 6.3726831081367115 5.916695265234236 9.135908206535296 -1.4541514133339537 -0.5908431060079244 0.12826668028959845
Ni 8.80983883476747 2.3045491492938774 10.058923387632413 -0.03698454764414921 0.4291713678953189 1.3705733342009816
Ni 2.3850469832174306 5.390693111751824 7.00261567796254 0.12215799628869928 -1.016075286749837 1.0344201078056119
Ni 0.6380995433838105 9.221775893707038 8.872977988964003 0.015122971684367504 0.005245050449023225 0.5507997169327934
Ni 1.5887534345507868 1.187272645427944 11.429790325404499 -1.6850570460427172 0.5685722104248659 -0.04980355378568842
Ni 4.268401958938165 6.303168445549754 1.4844696308086984 -0.055224981911575856 1.8588600202012182 0.623139761258101
Ni 5.615716398772072 8.058995084444076 7.989558548634203 0.40727559626349213 -0.4745603375530794 -0.014739877313335904
Ni 5.553859977241153 2.856187787070643 4.870506860907699 -0.7512799432721642 -0.5311721725098529 0.113389763177766
Ni 0.6809738834359726 7.49844454337434 7.066822261962258 0.1719746627005103 0.4231089637513229 -0.2294316192663984
Ni 5.253925829309765 4.581063503927098 7.027532669147002 0.7497344531619152 0.36655446439504613 0.4445357661665312
Ni 8.379323954998009 7.179941659122024 9.51829063246465 1.348879908387948 0.7098831254929323 -0.8026567550822434
Ni 4.538965889391295 0.45747951927424396 10.272352115862837 1.2237869978406408 -0.48080271891836557 -0.12518212782700378
Ni 8.190211731909576 7.13322911403288 4.646946179830539 0.0897214730265487 -0.6408621182385286 0.6378945509697723
Ni 7.3968615641470326 6.348872610143975 7.0422377638058515 0.14015854663117797 -0.33736421598433514 -0.5377220578132288
Ni 2.127128689241175 5.396171070656678 2.3422807488219313 0.5478930848089597 -0.8077120581179638 1.7094203053784303
Ni 2.2480162500154357 5.3131749967682245 11.457180119928763 0.8315433562096065 -0.10101967164818731 0.20418544310509998
Ni 0.8774890728785762 3.2524813215754573 3.856306829542635 0.9039078260149466 0.46909160112902437 -0.41745999299566167
Ni 3.591696886264034 2.87930786238217 3.0010757120749716 -0.6762032167419838 -0.19841280228738084 -1.0602180427053225
Ni 1.0975994574514862 3.389548392813305 8.249337350046137 0.40868430368556063 0.7318089790317461 -0.46550079845397246
Ni 3.8476710953221485 2.795067210765749 7.124487999508419 -1.097649190968587 -0.5966391438644111 0.2322588043025484
Ni 4.037700853815872 6.8184327094375785 6.103599952644595 0.6525781211238761 0.6091380476623702 -0.405261908267573
Ni 0.7659594647873822 7.317817251657603 11.61344911776228 0.02818391863338372 0.5202413845299622 -1.288582397049471
P 0.2876264551879474 5.702073740976935 8.110938489794272 0.39096220381544927 -0.700643094951903 0.8659233763513732
P 8.535377649969096 1.936108719270455 7.870957558765998 0.37619224459512635 -1.5056745209139102 0.028379322473641444
P 1.7177080392844328 3.4146488910788255 10.474478806492051 -0.15552628733649987 -1.2839742088534984 0.46571754245046887
P 3.967441261493927 5.983275631426057 3.716551652102555 -0.9684612844162999 0.44713592279353964 0.7130119009299011
P 6.796747986542248 4.0659264231647585 10.432995304762168 0.8631884939187134 -0.5348768750549497 -0.11014194566442967
P 6.562304063727087 8.091472203987772 10.19004919000828 -1.9388041021260287 -0.5037991798135388 -0.3558514761552452
P 2.324980209952276 8.510467926391804 5.954484097168758 0.9871300644703966 -0.5546028927289675 -0.8308820684765238
P 7.058327337630701 3.810397355045844 1.580547397604263 0.28765116502992394 -0.09168965249651305 0.49472344276451574
Ni 5.296286894605502 2.81661566602663 0.7602534847075512 -0.2786867567477846 0.5858914184296039 0.22368366103902768
Ni 1.5398515228014935 1.2723309028510599 6.8661708955886755 -0.9803482656618728 0.00442384009930851 1.3178914304262337
Ni 7.087370512786282 0.8518398702716741 9.126387641141786 -0.9201361149483509 -0.6335678985699604 0.23327747537504984
Ni 2.752142905914289 1.6710954237938842 9.295155106406973 -0.762812369391796 0.30473228888192677 -1.4718840547270264
Ni 6.322009717139579 1.777302418083497 2.7503105604563967 0.4302576589809622 0.03400335352863822 -0.11960000575353595
Ni 4.352560849973917 7.148073201678867 10.347794420548329 0.37189284588882404 -0.8703590435252236 0.09235788220813126
Ni 8.114446927155887 7.300384078957084 0.48091301014500404 -0.8573415482196332 -1.1304181578694918 0.3473130996669309
Ni 7.792028619540401 3.951697807460577 8.365465536574538 -1.0154376531658382 0.5629384091778562 -0.7796083579032121
Ni 3.0538939556383315 8.686153245232521 12.281844590087706 0.29578742098381317 -1.285759068668063 0.45275661141442664
Ni 9.065722198735953 4.877300256710434 10.309501398366345 -0.216302280973292 0.09260547944256309 0.2668815365827404
Ni 8.531952790089942 2.239077093195576 5.5850252936905544 0.21483469528883004 1.0238420751794497 1.2295426693774953
Ni 3.683223314068999 2.492525808761901 11.255452239243034 0.5859775503855069 1.0422534878071017 1.4661222125425846
Ni 1.1547773568663202 3.368899303939788 12.803317207401031 -0.4140661368227643 -0.03552647504138398 -0.8741182534573397
Ni 3.186282504760094 8.667847959671528 7.96244764853511 -0.6167837371330862 -0.7382012557113351 0.19014516296194997
Ni 5.490540949767146 7.841902573748765 3.5061144526737373 -0.7435519785002872 -0.3226780747270701 0.9750757044090239
Ni 2.9943904219289 8.21676575160922 3.635246205332167 0.0777604440099306 0.3488040823901606 -0.21930687212757066
Ni 3.297649500140846 4.24392829179111 9.301803150066293 0.36455388902524954 -0.34518216936685714 -0.023465173001475718
Ni 7.105875657544468 6.2820469622101465 11.41520423781307 0.08673770780787642 -1.0309786862242307 1.0732095698689839
Ni 0.5254843364715055 9.04005846091471 0.14979265139359935 0.5488150824025968 0.39230174856247924 0.3999479522538273
Ni 4.525638914742174 0.26788763411255 1.6370684870210523 -0.3792055775001534 -0.4890875846349771 -0.5795222816784664
Ni 6.005678030529485 5.255733646593455 0.26423747841110734 0.861638118712458 0.6934859150818314 0.5869928790238987
Ni 7.8203995410327 8.606945411581753 11.804847003305872 0.13421621300481398 1.1109783039773253 -0.7534597245323025
Ni 0.3061234238880655 5.026086344510902 5.975784545334943 -1.3965337628204852 -1.5469402124319165 -0.5870263033649955
Ni 7.726520225406247 8.523222576976238 2.771784522743779 0.2858655338844109 1.3879429358276805 -0.4465291424474761
P 8.56553821972716 1.4478981230752543 3.5975245987639726 -0.3357477634268347 -0.6184464695474897 -0.856623439106686
P 1.6376099237552637 3.2406351218873506 1.5926198015655555 1.445088531800737 -0.04072575985413631 0.7166404988214239
P 4.79213298517976 1.0190184549191834 7.984266822163097 0.44422954778002205 1.0415086392212773 2.109001618321458
P 8.517163209497737 1.5276873652996725 12.442580440978462 0.4916023806370308 0.9485699448090116 -1.0834186491915019
P 6.122831858119841 7.8059733407990235 1.4400073185897564 1.1377347461355631 -0.7952092976652627 -0.807526681580035
P 1.8143490456357203 3.2183235678735547 6.055986224266293 0.2723263617473955 1.5167989129618458 -0.5200094710248141
P 7.172174403958426 4.256228716927381 6.049139229860676 0.35730183544852656 -0.8512032965323791 0.23531661729226572
P 2.460094111763021 8.602185128884999 10.13917775671575 -0.5539747722266654 0.19627107335402974 0.5916267782514844
