# total energy = -340886.68998483015 ev
CRYSTAL
PRIMVEC
9.08125530296273 0.00000000000000 0.00000000000000

0.00000000000000 9.08125530296273 0.00000000000000

0.00000000000000 0.00000000000000 13.29133508324265

PRIMCOORD
 96 1
Ni 6.539765932337153 2.1446019494610695 11.363705913150115 -0.024343718951687108 -0.4931499276298088 0.5759934425896015
Ni 4.969335414832899 0.12601603573765136 5.940255982532524 -2.027451111141476 2.2238561389702087 -0.0005916108374118844
Ni 2.7206986074890396 1.535440441786518 4.570703734917681 1.6586258484343823 -0.7442065813651506 -0.6100420475338784
Ni 3.779118883871648 4.369872687554543 4.516288854642395 -0.8945520958316593 -0.09320917446483303 0.585509866720469
Ni 3.7942119297690984 2.525542436408282 2.403524877270298 -0.8165031740470325 -0.11083871462113815 0.49100614181392854
Ni 5.113700126404364 4.462891983058507 2.4896133589181053 1.4721175108940714 1.0232116406843024 -0.7635384489245431
Ni 4.845458014660139 4.156871850295392 11.479340258111613 2.125390858312759 1.9858712308171607 -0.6616669707990217
Ni 5.5393294694655095 7.7582796540423615 12.407527163910133 1.9699954401271684 1.6726828407480805 -0.9474553715885939
Ni 2.026854396448827 6.479484561297877 0.5045218382052573 0.05127242502173105 -0.2455874030906545 -0.9168006228172146
Ni 2.808160174900802 1.3196062529509498 0.04305786270648219 0.7973880504841364 0.8332073741755909 2.9783216790592064
Ni 8.269073006986956 8.84500620242398 6.81612850234943 -0.6571063480115329 0.9770451694305688 0.1894692199408479
Ni 8.633149603301458 2.5578444606304442 1.4213753376981115 1.1280758828895605 -0.12293806898783344 -0.3360485824967051
Ni 7.01427967134654 1.0429548990280002 4.8604148417318 -0.34713080845279565 -0.5029108636713145 -0.748004614955002
Ni 0.621311318809449 7.7391000433712325 2.3998569583545466 0.3763809635671647 0.07467640576796816 -0.2616226021766462
Ni 7.716669343391267 4.093502852538225 3.7362871444159755 -0.27494785853064263 0.5616695697677617 -0.03729359424413577
Ni 7.9722612668471955 4.172854859187999 12.508527974479843 -0.30157497419986773 -1.3202049090507586 -1.0584558085985771
Ni 8.264650435776332 7.6178380446536265 9.082367506361779 0.11801800597839675 -1.2607923714203964 -0.4543139285992176
Ni 7.197221554381526 0.6227279945976574 0.2256274142843111 -1.552211488133185 0.1528345994369497 -1.2502814445867434
Ni 1.9552123753387245 6.57361176991826 9.029508245077006 -0.3031554313131102 0.8288082166666307 -0.6263613535191923
Ni -0.10369975957134829 5.164773104820288 1.3713203679735873 1.2568274732353772 -0.5219120873641656 -0.4891678030536092
Ni 6.489755460762387 1.9319734436590754 7.065155586527821 0.28474170469261284 0.8602034431484605 -0.2647297803470602
Ni 3.338723420094946 4.33149530370218 -0.02803474247293651 1.2747218370172948 -0.4844372303471593 1.6088973708610033
Ni 6.067758619722288 5.995953136021239 4.682630203441196 0.6707442505099416 -1.2379391209713067 -0.43251148801214545
Ni 5.275555335207172 2.791777590785879 9.267130181034814 0.5326047911913214 0.07825640980974263 0.28917865741804394
P 0.43589933440015066 5.714234441778928 12.419662445036947 -0.6347837732549326 1.028869096080396 -0.5772226870110123
P 4.157098881671707 6.121819331050523 12.620241941635127 -0.3272885769158879 -0.338977583218042 -0.8405995528746039
P 2.422315810225175 8.408878928522007 1.2621464278565209 0.25019636261757555 1.590924074212034 0.10281070211033906
P 6.500498585489633 7.921996520130955 5.685447771387636 1.0669026538143496 -0.9625354058501682 -0.06863122801515278
P 4.886350906162077 0.7952164449415752 12.532572413482661 0.6414840680932437 2.106103470838057 -0.4341554513734716
P 4.2855078281157235 6.284618990378802 8.25827811910591 -0.2733206073398648 2.3958454569587384 -0.5230006924426541
P 5.006405097957685 0.9535317805248724 3.612837471356194 -1.3063119531187501 1.851268066786573 1.3592800206753493
P 0.13538789095195294 5.93122195000618 3.456119528536653 0.7918707202103329 -0.7386828233334439 1.3112397294376708
Ni 0.47211537954999055 0.6223411331324159 4.755121321898717 1.0571111216452245 -0.9835027521304547 0.0640124982962188
Ni 1.990111638505935 5.885588643366775 4.831865192097381 -0.0527117285714189 1.3799663453801074 -1.971247824477031
Ni 6.1647555049393 5.891146371458977 9.153090504460556 0.5961331507622701 -1.2182881795095988 0.35117798193897587
Ni 8.977183869714832 2.53517764801911 9.922233758020559 0.3729997057997576 -0.2856230788563016 1.0396816133148676
Ni 2.740268712127431 5.595660494556898 7.015870707231759 -0.16918964375620538 -1.3453487553062378 -0.34956127227115924
Ni 0.9129113266745129 0.08165319668010798 8.537555771990077 -0.9321855899137171 -0.9440825984616191 1.7638359040148333
Ni 1.5306727828838935 1.3079368402083358 11.410251885922307 -1.1182812653966419 -0.47475111340764686 -1.2038066980639721
Ni 4.473735001591334 7.108997161545344 1.3156677126346294 -1.4658573889169724 -0.9184232460223021 0.6474780808931494
Ni 5.928706442356604 7.893862791977946 7.917474963240258 -1.101004480594065 1.596024371553077 0.3819018933853939
Ni 5.023359801140923 2.7863651627745187 5.189388754765914 1.8732810807225544 -1.9046104869634553 0.1372819964143313
Ni 1.0273351403374975 7.28458322798771 6.779817104021537 -0.6200012156291194 0.18433626958965674 -0.6771146728126596
Ni 5.189810125000355 4.698986451916466 7.069886920410235 1.0690896341633396 0.050054236343913795 -0.7834855814704313
Ni 0.8263043053632019 7.502161017793381 10.990073112143742 -0.8689727047006583 -0.42189000374255725 0.5272707805729177
Ni 4.660427442963051 0.47185747190649624 10.100271763327132 0.8214522905221916 -1.1526119203577119 0.9947662408594159
Ni 8.40486501378875 7.6879907399351 4.666946875965325 -0.27235207277900836 -1.1880206388743089 -0.4511694694329649
Ni 7.2935282642145385 6.251472409436748 6.915880640349405 0.3113945313934508 -0.6747145480115994 -0.12133267217392651
Ni 2.574880895109155 4.969816721350687 2.3116289330163426 -0.9017779241561372 0.5861318165751841 0.07674640092311943
Ni 2.2085249037764463 5.652091413453865 11.071415729901052 1.4838687378927282 -1.566827952494779 1.8153384427694992
Ni 1.0902319128319287 3.3214781167500247 3.6161339669402945 0.562996001888669 1.124517733224657 0.11933492501760737
Ni 1.654205095364654 1.21751478364942 2.385302430881716 -0.34077632698967764 -0.8410759782903903 -0.08576145993753617
Ni 1.2703132005253404 3.6605267741395116 7.8751290709299 -0.187963839039915 0.19105944724610321 0.38720762186902347
Ni 3.6394945874376488 3.0701725456789313 7.3510516580943355 -0.6683824351459844 -1.0986118119921724 -1.0001755848004452
Ni 4.146210456863618 6.995254442011306 5.473863609916694 -0.5772527689179994 -0.07760360671709216 0.12985202249884734
Ni 0.6532891422262321 0.469081332236911 0.27290715246475533 -0.4097160873841847 -0.2204139891488204 0.49638488962733857
P 0.035307011519072874 5.678608678207509 7.961336517018895 1.1814077615434815 0.4168321296036757 0.48123774957325516
P 8.884155492955815 1.8615392294709716 7.866276663504609 -0.38255186826456694 -1.0223158683429103 -0.050421904095977674
P 2.08028850117843 3.5458940916103168 10.26180095507355 -1.095285832942733 -0.6983041624060812 -0.08795461093411304
P 3.9896223759913294 6.074133660769227 3.371214334422202 1.4254044231082483 2.782196130144105 0.7957638846171521
P 6.911307320304906 4.006304641522989 10.294710515258732 -0.06490698508603014 1.0593909188183366 0.6910389962032356
P 6.659910936683287 8.335011999924015 10.365181054467046 -1.1000557435275506 -1.7508101811791268 0.3757641559187722
P 2.448724099918188 8.420639153815149 5.390686578638756 -0.8021633603855928 0.984313420957208 0.8549524791621663
P 7.092205920953054 4.002790195817624 1.1986493844031119 -2.286798029910068 1.1694449327546503 0.8341717949713892
Ni 5.205339071140331 2.8957125548630906 0.46968796007442587 0.2747874216933784 -0.5246122599041481 -1.5783549792977718
Ni 1.8677326454168568 1.2628030025968253 6.831666529744459 -0.24392004269056058 0.7722370051398055 -1.2408208133944758
Ni 7.168506625905149 0.8321662554996666 9.049511525581407 0.16083201582012946 0.693309023184335 0.1988054097401092
Ni 2.739978111965747 1.4768572654420802 9.067082845982716 -0.4302234633089171 0.8504373649006322 1.1471493545812437
Ni 6.284864184265223 2.360081969349585 2.4691314962724307 1.4660656482730363 -0.8325771967907596 1.018878046305955
Ni 4.321070022901774 6.895596749063878 10.514762038940736 -0.2490699623226162 0.23714698563278513 -0.952867800853417
Ni 8.64196750195755 7.611172403445004 13.088243512646283 -1.1013387240050323 -1.4183703990796024 0.8477225370726303
Ni 7.736194041754395 3.929504467542999 8.29029680817043 -0.16484910739932254 -0.1849196528969525 -1.3086251746329591
Ni 3.2989566042195326 8.342513116597477 12.288596323364535 -1.4368671723322093 -0.6951877282642865 0.3379486277328954
Ni -0.014463714922304423 5.0323411623879615 10.166063639932336 0.5597620683324037 -0.37002262544930464 -0.43219292833046213
Ni 8.931378019229427 2.676890633115211 5.869094359814706 -0.38017925426733234 -0.1857326357165511 -0.16784264281000771
Ni 3.5332348220669676 2.360018400564217 11.496472953893882 0.8755495865872277 0.5228477118045576 -1.237591764934217
Ni 1.3833203384001165 3.7593943978973616 12.588701834711882 -1.9767008771718022 -1.766924827352802 -0.707733169029465
Ni 3.0284714224773106 8.351376421528832 7.619616154392929 1.7731260710675074 -0.1466976333012764 -0.03002971359287086
Ni 5.9353357585450155 8.17882349427404 3.2787326492173525 -0.1715306331845562 -0.7256527296223632 0.6040902008258178
Ni 3.228731258897639 8.275593348114736 3.3500813457892553 0.36676169530984576 -0.07129206267676753 -0.12028829006981218
Ni 3.7007658152776615 4.538139262424499 9.247525567627223 -0.499614709418546 -0.2337166197949975 0.5669321037182817
Ni 7.358504644116019 6.249765133486855 11.179381863096118 -0.19849816291233557 0.974081715926871 0.5205069794865229
Ni 7.978472845303187 0.31193112167686465 2.3228996786621465 0.25003978243505326 -0.30691644101743915 1.4778402723104613
Ni 4.863039324442006 0.459118287318684 1.4321284518059163 -0.04587645081714035 -0.05529851546198864 -0.2151275439389005
Ni 6.392940200646429 5.868924540345221 0.059717425100509605 0.028650830967473236 -1.6243430159921122 1.127053355162317
Ni 8.455520254472253 0.11090301107908476 11.235696541928412 -1.116978487424818 0.5612509941731043 -0.6305825906893914
Ni 9.153360217735619 5.014278546088304 5.6962808005399035 -0.5590280183798565 0.3539689144205517 0.38445088505949276
Ni 7.316749033384083 6.350013108012703 2.5502479907789293 -0.6694463576341245 -0.1694441829691727 -0.34354643353564707
P 8.50581224495365 2.0462428759861657 3.61663888472122 -1.2355212555584336 -0.9858450271103861 -0.5909732038278854
P 1.7891343829364497 3.236404919417101 1.4815450093002414 0.265830983831039 -1.5633860166927656 -1.2436816798820387
P 4.605958075157449 1.147353007112895 8.000519408194426 0.533647630633539 -0.7043357133121417 -1.1617465356691283
P 8.576382677967544 1.896057079925972 12.368570395985413 0.537386785960997 1.4998892816907008 -0.15252683838854378
P 6.502505542856262 7.794795380608937 1.100234007146882 1.7486841359750591 0.7244815921323975 0.8714404495148605
P 2.1625646719551477 3.3432368038560973 5.549956354128083 -0.37606574631959105 0.7014216249891404 2.238952628292015
P 7.039125985170503 4.0926128895430685 5.991441568511099 -0.6752470234763016 0.006337512182253601 -0.750003904773218
P 2.4768487468161458 8.552008589406318 10.31180325351877 0.626202973564457 0.8644179954504403 -1.8496138190126017
