# total energy = -340896.09054678143 ev
CRYSTAL
PRIMVEC
9.02304732031307 0.00000000000000 0.00000000000000
0.00000000000000 9.02304732031307 0.00000000000000
0.00000000000000 0.00000000000000 13.20614181688460
PRIMCOORD
 96 1
Ni 6.481236719761422 1.7668118849463648 11.345620988944594 -1.1576901062115676 0.9818153371257026 0.4247835232402684
Ni 4.602863879886699 0.2655446683241367 6.18640414270209 0.16278579711239063 0.5180729161237335 -1.6538903906319258
Ni 2.72131492741615 1.7775944262873051 4.771075134024231 0.20847712850191838 -1.8858458047614424 0.3193595518767984
Ni 3.5023047732446924 4.409184172871394 4.715424588438971 -0.884871892429418 0.23766532003010035 0.21088625216404325
Ni 5.1235297924704915 4.4055388618239135 2.872850688120885 0.16464239070515516 0.4753005581532137 -0.6357415091825116
Ni 7.143456195990968 6.188438839833791 2.60982435225554 0.31177556888195335 -0.34955021652756574 -0.7685099339972055
Ni 5.288236495096037 4.408760089655475 11.698726209090168 -0.8450629879625963 -0.46883114837878614 -0.5687462741088849
Ni 5.6799811100402 8.01518180393206 12.2493567589452 -0.21045919192895368 -0.25711520122459597 0.855475955765804
Ni 1.7398059048347034 6.4030339701363745 0.4038896364043347 1.0077629102294 0.20306855589183737 -0.6892309964602193
Ni 2.6421196426049076 1.4322553428213498 0.3493516325323289 -0.044024228099749985 0.4463257681874184 -0.07707498790713177
Ni 0.6651546734665399 0.11439419173258913 4.772026163193548 -0.6213271335293945 0.27659362166418167 -0.6806396552467827
Ni 8.563034157570458 2.233195145892418 1.4113931555122379 0.5295636903721525 1.24340400074062 0.3492429696997921
Ni 6.7788889990542645 0.9505058325835625 4.767799767909786 -0.20060261084984807 -1.2949780161631699 0.5293340908598496
Ni 0.7544828402241226 7.48463565472205 2.63124416387835 0.31484238073273524 0.5636493192019518 -0.7724925727940374
Ni 7.635879971003929 3.9176446564788625 3.733719765734429 0.264361598374364 -0.18431312966120517 -0.10135108684567706
Ni 7.647546770965298 3.9786855704298767 12.800276948613657 -0.29023075283164207 -0.9036558579051406 -0.8017545549829481
Ni 7.848950206338632 8.723256405763832 7.210989192364415 -0.26629506795165103 -0.394066810882702 -0.7539024684966757
Ni 6.842690965432331 0.8190120642022566 0.3976447854737364 -0.11102897625507331 -0.8181772193153458 -0.08940728422023957
Ni 2.019592550776029 6.460727333595767 9.101184028611438 -0.7363986552849576 -0.22403590217212385 0.3519369715921874
Ni 9.212260445907992 4.886169514215444 1.38686941567078 -0.7485905693654591 -1.1896142086136738 -0.09145593921915217
Ni 6.522264515139879 1.878011917988834 6.963664763144681 -0.4195883521925742 0.7810790289114677 0.6501738825577577
Ni 3.6643677230561 4.246922716022747 0.653699012808416 -1.0038800302352258 1.3217177461508594 -1.0711400889344649
Ni 5.926346389348184 5.6354884645572065 4.794978088221958 0.07765939965569205 0.2921554806581807 0.12681837787884612
Ni 5.209772077103722 2.7620178930973074 9.27705043594868 0.41683752892031434 0.2783591982050367 0.4525360107631884
P 0.09917592041407006 5.550437222147411 12.383147795130192 0.7815796226969701 -0.2559533197060108 0.09472998198473363
P 4.056518375121888 6.108792402665186 12.606952749655953 -0.7812860027159513 -0.09777159702453483 -0.19614354663722994
P 2.2888312546022416 8.370265778317025 1.194341951776177 -0.032152930583460755 0.7645846308008704 2.0304361619117293
P 6.289659382731422 7.708289924360454 5.839240599102964 0.6919370825374729 0.1658963177169143 -0.23337054930948842
P 4.596186824997749 0.9510742845538379 12.562950055633054 0.65290593677694 1.1262452574387247 -1.11093150989979
P 3.9992581179255624 6.032773230449768 8.135062008330166 -0.09821871186428245 0.7280646814979654 0.24974127735802798
P 4.5628376427415835 1.0617870730503571 3.8797271054520555 1.6689665682387578 -0.26712836248622385 -0.36134952315533897
P 0.1946289315751928 5.638908199426007 3.4053358901628346 0.16272383352620362 -0.5664675053770374 0.8730905835237738
Ni 1.5462434974323134 1.1932167777969174 2.6305575099904464 -0.7917429363832171 -0.4851990482138483 -0.5934862000577262
Ni 1.8975829072511772 6.509560064756578 4.777704366763301 0.8110424080427774 0.46855912566432206 -1.2741569656527605
Ni 5.900738981544343 5.6275572061147905 9.213304412462927 0.2948065451277826 -0.6092252080595378 0.1455475788572332
Ni 8.527338983056014 2.239646624602688 10.100004669449563 0.47464132730266 0.8047684021086075 0.24832177130268202
Ni 2.4427644389339953 5.209302878652065 6.908766739691501 -0.6520962963914512 -0.1892051676461838 -0.47616136349161226
Ni 0.5193765191464533 0.16386846154556906 9.147458725906013 -0.1372169475043508 -0.9135219520659429 -0.07412798946366589
Ni 1.4018927891709188 0.915117441672124 11.446872210202526 -0.5422937363443112 1.135852955731818 -0.5685974072358465
Ni 4.125057441252252 6.9577077474180795 1.5266562666851051 0.12107761874032696 0.22827822238824558 -0.4761958162739734
Ni 5.526255455792834 7.632767019738134 7.926537584148237 -0.13405937571197557 1.0912736264595464 0.6465658534915251
Ni 5.042223114626797 2.8443171061271975 5.3268289700494575 0.6960888999223173 -0.9457777267758551 -1.4785738080423763
Ni 0.6290011281570164 7.419236608998923 6.550100615589085 0.5942176789071121 -0.2804127382999558 1.2366224590424124
Ni 5.094222935336287 4.390912502398253 7.096412735079452 0.104632071589794 0.2856806715671144 0.41003850372060996
Ni 8.346589302602691 6.846137769442574 9.230393161455067 -0.3330115954425942 0.7385573534991732 -0.16546102995170858
Ni 4.522324161050519 0.19675746839722447 10.385771791040074 0.206238983200019 0.7357967600349006 -0.3933242762897226
Ni 8.148461233343802 7.236817664823363 4.622506151221505 -0.6259494627927542 0.2581089325964329 0.2913476400449047
Ni 7.096581466061106 5.941017864009581 7.046110149538356 1.006897734015627 0.7271064313497542 -0.7923579442593967
Ni 2.4354106555090023 5.27350185910461 2.4031352158633585 -0.7059166846460165 -0.19814360778639425 1.1849096040491527
Ni 2.4461931968499426 5.132354332580483 11.351141289189268 -0.19176110129881813 0.1806243679557083 0.2538748399104273
Ni 1.1801514055277276 3.390030997591702 3.6401146746290594 -0.6967591865164646 0.740484395318557 -0.013553056094086337
Ni 3.617294486088998 2.611802204190213 2.642839681767257 0.5523758031706616 0.22997129381995232 -0.2603933577552354
Ni 1.1659942445537228 3.4339732371987153 8.11887195483389 -0.5856888155004945 -0.49025949345589126 -0.5421497545672792
Ni 3.5233645652863284 2.61783862273171 7.255005420958034 -0.3839891149317258 -0.32746778280622957 -0.6664718483868329
Ni 4.0929263703609635 6.85504351697689 5.9180812781613215 0.1656312369809857 0.18543567330142255 0.14388433222219735
Ni 0.7921603781968132 7.368671452785843 11.493555651532867 0.5929028167504306 -0.23455171410178316 -0.8434565627074248
P 0.2988342984691292 5.542199180101989 7.698797678761568 0.1223595707765441 0.7010053633873282 1.3436911650981567
P 8.441611012110176 1.6950696370787344 7.932929510747336 0.7978824736220518 -0.03146027539181033 0.19364263459224715
P 1.6274509217573885 3.1912171767496234 10.259099036749532 1.3835247521553269 -0.5830837737774797 0.8188320792905253
P 3.9160926923695385 6.285102743922071 3.6605572902458245 0.4790412561425686 -0.4247670681800362 0.38273724480249566
P 6.783247130826377 3.9529247708245334 10.273730810003482 1.3911994950917652 -0.7137225538436804 0.49790929669166506
P 6.281926631326246 7.641167476632206 10.128873006492412 1.103849149131712 0.3942601578404307 0.027361936952720614
P 2.4961628319513056 8.554480308874883 5.721177636400311 -0.3149154000625157 -0.4291803667563834 0.24503410169034576
P 6.841599176727517 3.951463037186682 1.6258348940133196 0.24084268931681746 -0.24670943251023963 0.2830668880933512
Ni 5.25802733324711 2.7743975137833075 0.4722094424890203 1.026016457122949 -0.9741812176192125 -0.3526401683067991
Ni 1.5172524469482616 1.0486224472625476 7.037751198661161 -0.8226475963818736 0.7958304761890294 -0.5459596152316726
Ni 6.795771120266732 0.6239816070290121 9.189955473360037 -0.2794660581159703 -0.38909558292035573 0.09197015985140934
Ni 2.726557317808691 1.4914194629657405 9.293597802111988 -0.12165945938572598 0.21365507315843207 0.055308799874633774
Ni 6.316593178465905 1.9099805740314721 2.637490819418378 -0.12280797116787236 0.9441574175636126 -0.029821197126490576
Ni 4.177571575649133 6.825826890314158 10.50165568785667 -0.5947316424290532 -0.37027639333132356 -0.26139711642940144
Ni 7.978548232514305 7.225602017219355 0.20925799791499772 0.011975170084005183 0.3405665249717167 1.1541700088734508
Ni 7.77222723644573 3.988114654698733 8.258553236196592 -0.6395989352553887 -0.844238949399404 -0.3910133687683588
Ni 3.0154391952744253 8.358220010375472 12.417233258033567 1.122670138492957 -1.3447221774658324 -0.9940021089998816
Ni 0.09627861997509433 4.733815363134456 10.243304192718306 -0.3629060690091815 0.3358228396391442 0.5198387497749046
Ni 8.625861634856625 2.4952875963780246 5.824000672471292 0.714601356904208 0.3897316738424579 -0.00571453388627403
Ni 3.5187989034298295 2.710388017320854 11.463075798269523 0.14214240983042614 -0.35315850270411436 -0.028119126833719314
Ni 1.1325999470618224 3.3424254008429135 12.500537638515661 -0.5815850777447661 0.17013529549892634 0.22909557608321837
Ni 3.059579941918677 8.4304585258362 7.916553582479827 0.37142336245157326 -0.5578054588266652 0.4617022506434887
Ni 5.608708060624226 7.827033224818009 3.6824273519212825 -0.6812538917920138 1.0487470659512454 -0.1259909968815443
Ni 2.9770010144272225 8.359979504569182 3.3423559233798796 0.7986021253968956 0.2297463222933398 0.8003219363014797
Ni 3.3652717562197014 4.159931518476298 9.104617298050961 -0.23849218680676992 0.5538351613250074 0.7323651086455323
Ni 7.151522800140592 6.110461666387423 11.554674163689349 -0.015773460784172834 -0.6272576400812164 -1.8603985683329314
Ni 0.4585214799666716 9.026114983260626 0.33276727187571914 -0.5215552182453792 0.5438459113227795 0.06640619533937596
Ni 4.647338479275398 0.47205244146865855 1.4979070338645992 -0.5637051121405517 -0.5847968998138445 0.812475026724246
Ni 5.9385455490912396 5.570477409861411 0.4382277446278353 -0.06052633951983124 0.9885194886187557 0.8867331140078729
Ni 8.066261273832533 -0.1977400782315579 11.199164301479033 -0.8734366540092828 0.2514531178428121 0.24174977451211915
Ni 0.27448289882818333 4.991847442403809 5.517750331551854 -0.8677894830258345 -0.7487543486368331 0.5510791958464251
Ni 7.968613857605203 9.010090051527145 2.539250588993476 -0.35976315250482555 -0.4365494055269449 0.12524152031002944
P 8.533267125031745 1.7906417524622005 3.694074301178927 0.03702337130188462 -0.679152786288611 -0.44088068591244717
P 1.9186066071042243 3.170419053075257 1.4414895292718253 -1.219194750484268 0.50606509302958 0.23227268825961933
P 4.838230064722208 1.0080638503357462 8.16435352628422 -0.554100242060936 -0.5546689700802124 0.6116649278492821
P 8.408613728692755 1.824857147244499 12.431759461635895 0.6492050908865852 -1.266790240875044 -0.590774200443202
P 6.212052154218092 7.9223526948813525 1.4355469504206595 1.0028068517757052 -0.7188130809927104 0.04909238665127674
P 1.8277084301430235 3.291400069225325 5.848947593223955 -0.2176593092218187 0.851962800406223 0.9957733419676916
P 6.937568306185461 4.045149335716378 5.881408005336117 -0.1898299457143763 -0.7679959704752645 0.46867585374784443
P 2.371491389518021 8.384883114695539 10.1620336070632 0.003051128121497971 0.004613587512611409 -0.055557939770962385
