# total energy = -340862.0307927124 ev
CRYSTAL
PRIMVEC
9.31074190778264 0.00000000000000 0.00000000000000

0.00000000000000 9.31074190778264 0.00000000000000

0.00000000000000 0.00000000000000 13.62721192625817

PRIMCOORD
 96 1
Ni 7.079943887373478 6.331788545193104 7.631197525278243 -1.9803276752911119 0.9048714754797964 -0.635974194018608
Ni 0.5121159349795203 0.9930092285912474 10.167671689797956 -2.123519352321659 -1.1445561399327706 2.954112428802854
Ni 3.5978288928903734 4.013627997740052 11.31937506283989 1.0477453641596084 -1.7076912385024654 0.18271210372267244
Ni 5.075322568184407 5.218000374685291 3.2191973380126915 -1.2792320661828227 -1.2115454614691263 -1.1293706904415841
Ni 3.9153344971377395 8.297304749053037 5.336389249195908 -2.583973332380343 1.2491550442917843 0.08888355050628563
Ni 0.9199003533350747 4.283676751312986 7.856510026914643 1.0814165311598085 -1.5928853117034631 1.582305479305088
Ni 1.102159054068268 5.696470082220786 4.507922241945405 -0.15710134513310361 -1.2242233140471108 -0.5011226614226401
Ni 2.9164781227306116 6.97039370000142 3.7401109928670935 -0.1343573665683686 -0.11255569731224485 -1.365298201844971
Ni 1.8615897045018754 0.5849352461674225 13.034400657236509 -0.0070872458640845685 0.6346847857832231 0.4626466168346291
Ni 2.5103808107792567 1.8890563926497224 1.6656674902578466 0.09861466175112049 -1.8734253196099027 -1.3030055144533366
Ni 1.7281109108450838 3.455905256470837 2.860120202947927 -2.1557041645843196 0.5078072725316674 3.4262371603312474
Ni 4.7900228196331085 4.182366570385283 0.9351290025332505 -0.6624596419036461 0.13141628166217367 0.8252726927095465
Ni 5.667001584597757 0.12956269567883064 12.283023798412351 -0.48608119370848546 1.407142648684583 1.3416211699430056
Ni 4.126967657002337 0.893927108163131 3.6432345871583753 -2.1258037774804617 0.24650760091207868 -0.6634906542713219
Ni 9.010544809689536 5.603735094440258 6.589288281042084 2.1296565755676484 3.049729441378232 -2.8317729126309685
Ni 2.6483566926988993 2.990759220372484 9.303351809309854 1.423857904556735 -1.103139524659197 -0.004427439643734311
Ni 7.623086007069971 8.303924686433756 13.540460885785059 0.16673938244349995 -0.16438990837471687 0.5957521132737675
Ni 6.022923309285129 1.976726336920952 7.26566152866495 1.5601541400190293 0.6568129851408301 -0.48799538001206283
Ni 2.6369324125777442 8.934801925593694 1.9795977696751204 2.566771623790076 -0.7197651604933346 0.9893656386691347
Ni 6.861923558671788 5.7676786350867975 4.463865674156258 2.426534401402163 -0.17619847097387073 0.26983496278410946
Ni 1.792643661879907 3.2398215620521134 5.938848242401656 -1.247297165147439 1.622962847815134 -2.0269718575122124
Ni 0.09522468012314934 8.568247333833495 11.955670222621265 0.5906153062678345 -0.011904464747069821 0.4303535611288782
Ni 3.7859431191070176 8.352275368315713 11.862351451333325 -1.630341142557076 -0.428381782114488 0.13267535088025537
Ni 8.504533928072235 3.6713092667421727 5.4732878782956496 -0.42609221474936293 0.23717218244376576 -0.3964749061035624
P 1.4873351293185335 4.45199634057969 10.222425368777971 -0.706033669839855 2.0774842644394673 0.2776248911421735
P 5.39474618523125 0.5731096730770563 5.343897431339102 1.2310897021496412 2.2890017224296058 0.9217453684169996
P 8.20882477024999 7.318494401622965 5.544231075021927 0.6892639065806839 0.910638974091193 -0.23651629402732172
P 0.38439024864698473 1.9904783024783657 4.785726843391951 -0.04510691964096748 -0.44084006248249885 -0.5226651634801063
P 8.128873430885392 0.43746520089037016 1.6680119350292457 0.4330473059109574 -1.2098919850261034 0.05141409280591791
P 2.46735587317546 8.57824707046766 7.819538933593467 1.6753799279642696 0.3553226002349687 -0.4397614847063394
P 5.521688838183029 2.4464532579578613 13.55427895760886 -0.3246421404319764 0.19810606968023947 -2.510886382586682
P 3.485960330823803 5.565588985510858 13.178412693029454 0.07768691045951781 -0.7442451479125699 -0.13832612140812953
Ni 8.776221372192294 0.0534222429104752 3.7293859494509896 1.2587367744429483 1.135165185636174 0.37904694043510206
Ni 3.5179241072345007 1.6554498822668475 11.74002040876786 0.8821380384380227 -0.8862014098741189 -1.0383536385320633
Ni 6.708948071800897 5.839250306880865 1.2029990425378467 0.3419055554981144 0.13139545572656725 0.8226008023043382
Ni 3.8245082114149436 3.0599845852468035 7.1862418326539945 1.4341924537135236 -0.86773266164597 0.6935725612583667
Ni 1.0809771165983182 2.9247739936254358 11.711347979564032 0.6007696210930169 -0.4818499292359572 -0.09829353096627587
Ni 2.0940230614248763 1.3903451325605258 6.968151673389217 0.4916373476400243 -2.313700510727867 1.1406699175044872
Ni 7.156115065589592 3.5586120486602946 1.151187557949262 0.45278695043172984 0.6570706096775909 -0.4359166570389525
Ni 5.254656764935485 5.937208620780357 10.590660549423148 0.7104495395193636 0.10766443065821459 0.0002391125939995882
Ni 0.628386615743142 6.3557171514778386 11.092482528329361 0.031101606500810956 -0.20872806817045989 0.40611242919332635
Ni 1.0485571138421137 5.093040909725205 13.443162703475291 -0.48101869158391347 -0.5698009406256445 -0.02571925914297506
Ni 5.922916632201731 2.3104326318046757 3.8934579783336103 0.25881032953883165 0.24977855835386664 0.4806487098390045
Ni 2.752366988732662 5.021180604937041 1.8673232592684668 0.013794996901563338 2.6970028840052134 -1.040228744067589
Ni 6.074104456657574 7.893134760642905 5.3353799647907465 1.8350670315466782 -0.689720020281496 0.07621032591399132
Ni 2.782235848250727 3.1153090126957887 13.395876239374791 -0.035442657078326056 1.1050544822937227 0.5481504522354044
Ni 1.8369348603610283 7.154588103943406 6.119203827522165 2.9119669057830557 -1.1128140716344836 -1.295834193515878
Ni 5.587189906359335 7.130547768757731 12.81958136154676 0.1051617188410189 -0.8438257731213854 -0.6242584482435765
Ni 0.5666191550065939 7.809477746063784 7.652537745357859 -4.79839635096211 0.09164697218403571 3.2968484506220643
Ni 3.813614643573255 3.586600138345864 4.730263685890964 -0.0505849120364032 0.42115029736305537 0.7216929736436667
Ni 5.836326733972925 4.030480440298562 9.031830096392856 -0.0010428394422175586 0.13266866601203603 -0.6326790682071038
Ni 8.542624172551164 0.6568979691147817 7.967653282199276 1.9902228229176369 1.7548123603599841 1.945235459573669
Ni 8.366362520575947 3.7915481856375273 12.472946170675883 -0.24168498271245473 1.1226475127851374 0.5229952931260154
Ni 9.019594850665708 5.163104241356577 2.677992783673339 -0.2116490984719968 0.13156180610110246 -0.5668652550360882
Ni 4.556267337382313 0.23097343261737985 7.416214360533783 -1.6184312784933674 0.7186372175364785 -1.2103383285349028
Ni 4.018153018228138 8.38571955266387 9.333631272538877 -1.1084413964880846 -1.1716583954662017 1.9576652006965898
P 6.0326437236669435 7.354070745830736 9.15725416736602 0.11772104356326824 -0.1944417334547748 0.6261170987188701
P 3.1144896674222258 4.892971691107937 6.54395055518882 -1.8793457988593956 1.0010014231358502 0.22401147669209162
P 4.956424396100337 2.017470142797216 9.152008495466868 -1.3064001419571825 -0.11166866672160122 -0.027341368127430335
P 5.560533252743306 7.289053836225172 3.431154511690016 -0.7835573152486313 -1.3703930998693754 -2.23589198708882
P 7.818360193688545 4.438598183208588 7.660291731083123 -1.7830854962730647 -5.055361656872403 0.1417606010109752
P 2.0103008716535404 0.20266598448995635 4.5435442087877265 1.2347121293935768 -0.9960566775360653 -0.8938008194879317
P 7.222947569835438 4.1959881855582655 10.69308243291521 -0.25668505566571276 1.2668192943407666 0.46736793356969836
P 8.248022992996578 6.040567164891966 13.446582538918241 1.287724677034866 -0.43978462463479095 -0.12490444868558488
Ni 6.2562411866739085 0.14586952877108125 8.973423813426265 0.8429554547012903 1.3873484967767913 2.660532556993321
Ni 7.952351078141314 2.727162810828858 9.265100488998737 0.44065674282709916 -0.13279105052251325 -0.6037464443331538
Ni 0.7242760828268868 8.701195415210819 1.096524193164174 -3.9758940219088497 0.7253891915483314 -0.32734796939891364
Ni 1.8209296953013168 6.420138173611722 8.766576374818614 0.3157854613722949 -0.38158873302034924 1.2730431637632915
Ni 4.552589594393026 5.933344662956167 5.5428959146556895 0.32954394860896796 -0.559270730518282 -2.2505488177700466
Ni 4.617988244410137 6.735148499071419 1.1370650248703962 -1.5484836456596365 0.970380870036516 2.114537717648339
Ni 0.4531202820604685 9.164954150789162 6.023663513253859 -0.532799937921263 0.7902640378448454 -2.2286520176969553
Ni 3.83621181378845 5.390826362956592 8.515808305251294 0.4720943925110902 -0.7332927626661242 0.65062665382446
Ni 8.455587358718597 8.08704026822496 9.794285806819424 -1.0061222893021833 0.2837847400959822 -0.8111169700344547
Ni 8.696186236151991 5.574555229811326 9.179004060082416 0.584186262813039 0.39509808036069377 2.075683978005935
Ni 4.74334807126526 7.1779580657234385 7.313588571797507 0.03700100270438144 0.4994352464178883 1.43025840876644
Ni 2.9614583161008654 6.026368283730791 11.017369050375482 -0.4160178612324964 2.709769696752578 -0.03861642682061736
Ni 6.338594697408724 9.242438143591325 3.1004900361343943 -0.23611391638258045 -0.8505875173252513 1.8795319467282727
Ni 7.85483036910384 1.3123024952536602 5.857085032693476 -1.1724862906841356 0.058435775539389674 -1.4389927033156442
Ni 7.556104530956205 6.644564292633994 11.529534332286252 -0.2880028919423879 -0.7953064853647593 -0.7418936169612578
Ni 6.004543905080434 2.242752850060032 11.125392276101353 0.33158103364365477 0.29910440117218806 0.1233903260339036
Ni 2.1594682651507124 7.232612119766782 0.10335947518578457 0.6296917034440059 -0.24959266759530563 -0.2236705484129051
Ni 7.237779581435275 8.576822526980669 7.133000218133373 -0.6718009739092301 -0.9626086822902646 -0.7183713654696015
Ni 5.936603422566929 3.852049385496751 5.727108009006991 0.8393026884400514 0.30427900339459213 0.7715728891932453
Ni 6.327989762561132 1.4747004527705239 1.619785086012499 -1.2529255670778099 0.11728215625363672 -1.334130260882599
Ni 7.877297188934604 7.53942899249085 2.60951600243532 0.42334884767627085 -1.0459854440457084 -0.5450995812242225
Ni 7.980720908238429 1.5295686538740028 13.157018470647717 -0.557101490781105 -0.749867893415986 0.11485349220748607
Ni 8.973171492324974 2.5699136934969973 2.4043575323802187 0.09350459421806477 -1.655344092359317 0.584244112634168
Ni 5.923140090003612 4.481418284493994 12.527346041469587 0.4183724775076021 0.34847832361962566 -0.5092203508291101
P 0.8382125606350288 2.0758484935385724 8.627333300947473 -0.37085540576324516 1.9524972833424052 -3.6953699548420103
P 4.656227460756987 8.957799457703926 0.5859165983473491 -0.9697707472563427 -0.48113233434364233 0.4250074663256164
P 7.4859294704238915 3.680908641481302 3.3904637770416985 -1.1222212238809963 1.930378339956179 0.9555895706599542
P 1.059972083221524 6.973010018431775 2.282585134319457 0.9105014200720641 -1.2803512673889303 0.6090819976134543
P 0.4369680072811854 2.4668437823794833 0.42965907501133466 1.9887164135754396 0.5568718912688023 -1.8212159845961993
P 2.043568151908543 9.123865847468332 10.860315458620267 1.463276001343041 -0.6885553105494334 0.8698196260819858
P 3.8507831246194266 3.1685478339938866 2.734054621868531 1.2994231964187168 -0.39527420092724186 -0.9368763105211672
P 7.473527562419508 0.25235089566397534 11.398113212555113 2.174106321240591 -0.39076551442361085 -1.8519226696514364
