# total energy = -381165.90209942264 ev
CRYSTAL
PRIMVEC
9.27717065242030 0.00000000000000 0.00000000000000

0.00000000000000 9.27717065242030 0.00000000000000

0.00000000000000 0.00000000000000 13.57807700059698

PRIMCOORD
 96 1
Ni 5.471165059792165 6.056545256500617 0.20863893142323528 -0.08479009716320236 0.6377875930782628 0.5006776034654216
Ni 2.95155970337698 3.778925621744146 5.842103454777676 0.5844749976980514 1.330598850690573 0.6763729095506287
Ni 3.937973436961023 7.446478808719358 6.262290638369131 -1.305981566362525 2.3502202029204553 -1.5576848525429303
Ni 4.941540659248752 0.283201408118352 5.501442961945883 0.31256078378741003 -0.5230276890258476 1.4045859437010004
Ni 3.5056016173157967 1.3951844308592425 10.835672342986955 0.12392537260176723 -0.5761199408651368 0.3620051544614669
Ni 4.806372281524191 5.894825616109775 4.780365588780521 -0.09475826411950777 -1.4263583023810855 0.9198062424127578
Ni 6.86629382762695 3.640194810454297 12.894040890707348 1.9921722333345238 1.2657450874399814 1.6218611301105228
Ni 2.697615708630621 7.9374359616062184 1.0750728712230495 1.797754668249465 0.8942242801785953 -0.6327862832089296
Ni 3.0324566322553723 6.180812958602231 8.997906566079887 -0.44887604541309784 -1.0552848670697632 -0.26011310751065525
Ni 5.228502104669216 1.2325834592478218 3.573491952812595 0.30644567202860773 2.035110684569263 -0.6604742360425013
Ni 6.986108487771955 8.072177589476604 9.57323680372252 -0.6694003348875375 -0.5766609009702715 -0.4557434619568925
Ni 0.26132862265773427 6.758446717740331 7.989910422479481 -0.675891599038836 0.024725270660821932 1.3581703325509382
Ni 5.466999610128588 2.769124140717164 11.582344502515001 -0.8434727606573409 -1.4261778109391632 -1.7197584540796447
Ni 8.089776382375954 3.107610992443888 10.548183954268293 -0.012872999307926217 -0.3043862183964177 -0.14847863646109913
Ni 3.7837126418475004 3.301847116288717 2.8819196934780638 0.19460525561583258 -0.43165505354912104 0.09061133183066974
Ni 4.093718579393414 5.785772474026575 2.7302258915091118 -0.2432988641667939 -0.31635187539872617 -2.1952767846706194
Ni 1.0054690422900316 1.6689722938247384 10.281157293340248 -0.18379762347736733 -0.23550790736746535 0.12867111481686871
Ni 8.902168947164023 1.997263534904977 12.637822133694822 0.5209944606459028 -0.7745165452026015 0.06857234975275932
Ni 7.154656125829597 6.7246407075530765 7.367451229745667 0.2345748540302347 -0.15286956643994318 0.18378399663061254
Ni 8.206807891298077 5.78958539120192 13.501143582710382 -1.4650546905100188 1.1427594530436642 0.543053240218155
Ni 6.272053932858995 7.535827240144564 12.134850116978788 0.28794427079031054 -1.4755262794653041 -1.307637356798393
Ni 6.252210064639857 7.5701713262349095 5.156437970055172 -0.494692075305948 -0.007968620027773373 0.47904768390047175
Ni 0.49216040193221855 2.4323442884071396 2.7511904419539963 1.7409746831459436 -1.6975721477905925 -2.009541834961223
Ni 4.670786431116197 8.028398620740695 9.872878286114426 -0.8274730427949749 1.376888992006364 0.1988570889136511
P 2.2594549344418042 6.8132098566358765 4.480833577003381 0.9509613278593235 -0.8153009262088152 0.9527857826625722
Ni 5.377595515678924 6.037963083502518 8.861528445290448 0.8131900505133995 -0.9328255374905613 0.34624429208278434
P 2.056424052732673 8.903245098970203 10.327430893288934 1.3659782586311313 3.4472880674642754 0.1878468538460765
Ni 1.1657043353620038 6.505745863873527 0.3052922070914286 0.06779227705362519 -1.3517286906906527 0.05311436332647626
P 3.0248215207339366 5.141036938904826 0.9743190860864789 0.5216020123229146 0.5896794247171264 -0.16092868929899382
P 8.515004780549118 6.263500381434009 2.1575025388452462 1.9322313340045174 0.8262340281815512 -0.01926733287004424
P 2.051414380531488 1.763423169158559 0.8797726558940061 -0.8464089604675294 0.4265460144573299 -1.0548151265221961
Ni 7.895568090043353 1.4230716061125048 8.37080322167216 0.8456114042668986 -0.20491897883701482 0.45516290686307415
Ni 4.814137273436027 9.055743231642568 7.6865766261318855 1.1247843566224822 -0.3793289904518951 1.457107410638484
Ni 6.561770697990111 5.190595585013584 11.473501952207664 -0.47770351116775145 1.1602244425976471 -1.65350626781963
Ni 2.0729466938258403 2.315925072754049 4.419867721749109 -0.18291959174778818 -0.7584625770635325 0.058836610522234156
Ni 7.395862565145905 8.98937435214761 6.726226176033044 0.5336987955864486 0.8263067904010156 -0.6307327431140106
Ni 0.8369650069348814 8.63790873855152 5.5379950146730454 0.4355122225116822 -1.9280162674819052 0.8606199618605889
Ni 7.9309419420861635 5.2621040171001265 9.472786382069241 -0.602175243191292 1.1998641684764562 -0.6934676602493862
Ni 1.922971951595554 4.698460231442371 3.4451794042670616 0.8139798934045465 0.3310267038020815 0.5637740177052742
Ni 1.5321525797079338 2.3466696165961354 7.1734479628864865 -0.2935919559943912 -0.44763420258619685 -0.06054433724196025
Ni 0.27609509532926385 3.9429367233084927 5.6337474770621 0.4452093951947881 -0.2663644877370058 -0.11527078225056277
Ni 3.464726403022426 1.574493586978689 8.569653810244526 0.21730629675777413 -0.16920584170612146 -0.8764731268427616
Ni 6.566613381117923 7.017808580200564 2.66931384384515 -0.9812288684946133 2.3283979648390414 0.2796342082627184
Ni 0.06974576964538487 3.7308698772957434 8.114231932171403 -0.6352941372324478 0.7253336557200476 0.38212635069137413
Ni 7.02838455484751 3.5410311323830657 8.408971357542743 -1.8247911035419668 -0.49516670094952137 -0.8239485745814842
Ni 1.7784429085913707 6.97370491048865 10.674201330772025 -1.044401644498356 0.775928852169096 -0.7844538589209716
Ni 1.7346824941969465 5.884416630536203 6.603860293933732 1.4188535093636079 -0.2042407218230676 -1.3388896299444553
Ni 4.29275100051234 1.8572988599063176 13.48132012426688 -0.6688418912809061 -0.38840215639775694 0.021580297273937028
Ni 8.62005018487137 6.778856493374788 11.009905958992944 -0.3966852223421556 0.10838896752906495 1.4153686361388012
Ni 0.04643966130498372 4.259418126032975 12.33277762706223 -0.37117319411398014 -0.1495448729420844 -1.1005072292426725
Ni 5.419982908803393 3.7537659346893064 1.1544641152898638 -2.1434633995437538 -2.0381170754957543 -0.2591204045800828
Ni 4.1011588703292485 4.378481335347803 12.78972003342012 -0.14243911513523855 -0.3571851073650042 0.10370955977552461
Ni 6.1054637778281124 1.1155890590086692 1.5531690823089785 -0.10541163006829589 -0.12175741841617095 -1.5966478640696888
Ni 2.1969639123173943 2.823247154831446 12.246691976587313 -0.20721060308466896 0.3721414715645204 0.17697622968015975
Ni 8.081445483048796 3.2864470128554446 1.1758953074231178 1.4597178516781377 -1.5356391855968003 -0.06214099230511879
Ni 1.2643021060179165 7.041632354668421 2.659402114623398 -1.2656044480970592 -1.9736255806805878 0.3756607975716885
P 6.831996127390319 1.5637506232583702 13.108954900421104 -0.18996595707160832 -1.2744822102026632 0.08470473653824769
Ni 8.070322155328018 0.47510617895548124 10.817056772174183 -1.3373996756624902 1.5854103434826567 1.7760213903374316
P 5.656912572407208 4.050783833195111 3.687045450423193 0.006466581560950153 -0.0755382395476312 -0.20959427282549709
Ni 1.3249005853107674 3.9468516893620116 0.7233243039192999 -0.6510331452342594 -0.9884017320939688 0.7530825436985417
P 3.1672910318331886 0.4493796567682483 4.289273916917889 -0.6959024949431241 0.2992409267500524 0.009823670958641145
P 9.280232209280106 7.87242154903973 12.739182645797982 -1.0178871431475955 -0.5031173232551657 -0.9925442935074325
P 3.9626414339664864 5.698696949433388 7.150296783297491 0.22818154890938122 -2.6804184972839704 0.20274279712130244
Ni 4.17392899763683 4.081305724939368 10.29086585252273 0.3555190325164909 0.7153953135604131 0.4914139187753085
Ni 5.1811792567095045 2.6892198691082654 5.490078427785787 -0.5414946374817835 0.7625202920726739 -0.1267903528543881
Ni 7.403005986617965 5.225524132860733 4.648590800113724 -1.3654190436935516 -0.7220547278584597 0.09551159734576453
Ni 9.2147168294935 1.144431782848454 4.65914079868259 -0.9264779980059785 0.6064540730723039 0.09191436691280945
Ni 1.9795534159567143 0.39428810602840353 12.575987935259011 -0.6258404480187156 0.9181663928164897 -0.2623126862651353
Ni 7.5621744050545 2.406897009059269 3.401009866642874 -1.681335631327072 0.532783997081663 0.38551763576111026
Ni 0.3140841818045081 0.045456281206232615 0.5516678859457004 0.2756410279429253 1.4471852664287657 1.5113414893917003
Ni 5.615137472551773 0.3282689758704556 11.765254128599778 -0.08349940337623685 0.8777406807012754 0.21129762866984902
Ni 3.4643089303389933 0.8629392295809507 2.1698309710455326 0.3116809522856181 0.2961237212773094 -1.2589270360768836
Ni 7.53710748970709 2.5481697651326822 5.904168654764985 -0.009623382022376975 -0.19260416602540378 0.9063187494492844
Ni 4.471920999070643 3.741844770284635 7.95661743983431 -0.8855756033646619 -1.349573849131179 0.7544341726304297
Ni 4.342792059499732 6.280690978820668 11.275574442124222 0.042655372776681376 -1.3145492534268781 -0.048294316230013595
Ni 8.4292187826892 7.396465581244196 4.507623262957754 0.6551481958438975 0.31729855558271164 -1.4203043828775217
Ni 1.3600981711094624 9.180985036672189 2.6129921402647915 -0.47656399824666956 2.4197076082883164 1.561269741680711
Ni 7.364097532522096 8.715966853182575 0.20314035232389777 -0.5247642121009801 -0.04212032620881778 0.5058743171750126
Ni 6.912364257536365 4.974854979386632 1.9577279440668856 0.2907179768807058 -0.22846899824281297 1.2515870507720446
Ni 3.5940316088374527 8.240159320118927 12.103755823799693 0.6571906801952231 -0.15553220087377084 0.07213949827872737
Ni 2.5460360158618074 8.447077336369349 8.203426362562277 -1.1133519464158246 -0.48047567459625 1.0764455603077783
Ni 2.0623336104959225 5.4010667576585485 11.972143385620898 1.455563463190132 -2.1994224314078763 2.3370996063780978
Ni 2.331380839211779 3.5122255172262524 9.214789191425295 -0.4537904519955798 -0.6934095533179413 -0.7614388860830371
Ni 7.993655616308404 9.287746717581884 2.647331587769765 1.3004274693135152 -0.33109869469059755 -0.9087157889265511
Ni 5.863617213730542 1.1682741116577966 9.633415027180714 -0.4238538123371475 0.27932978964842214 -0.6501080623168288
Ni 9.019803472184437 4.371412131241685 3.260028413730789 -1.190158511152918 1.5867740565994026 -0.49104753657482525
Ni 2.5946020047010716 0.539165042935447 6.370154447163087 1.1257140675256032 0.31022570789633025 -0.49322706072464734
Ni 5.917146488917276 4.7806095783710605 6.6521711605775655 1.29950135795482 0.7424263495362762 -1.0307786543982829
P 6.936883819809942 0.2557224283777787 4.404374846608408 0.9554967538358319 0.1276817543204059 1.4105439610566484
Ni 0.8596773763477347 4.869030292721972 10.075286669666706 -0.7283120216220812 0.21393866583712184 0.22300514691476434
P 0.29163157317245697 0.35207512371390093 7.530605120733367 0.7302938279388004 -0.4842641951044047 -0.5479229096056305
Ni 9.263477638918365 8.469639415616166 9.571485273886251 2.2516024558455414 0.5526989908380352 -2.2063844645480066
P 5.5973716905790525 1.7811796739605363 7.473454965805665 0.6133379446763307 0.44366673329801654 0.24104992023161712
P 4.8981327773425605 7.981753006245219 1.3244840403444096 1.3429231765838807 -0.038145914942102045 -2.116606684362226
P 8.811197010858802 5.946907652660611 6.091560082035676 0.17354894916616562 0.09971766500731213 0.6373494770995798
Ni 4.285282878064278 8.100148259266554 3.232559638878033 -0.6525123008829471 -0.058781331804266514 2.88609363756072
