# total energy = -340865.85826705396 ev
CRYSTAL
PRIMVEC
9.29149256796086 0.00000000000000 0.00000000000000
0.00000000000000 9.29149256796086 0.00000000000000
0.00000000000000 0.00000000000000 13.59903857167590
PRIMCOORD
 96 1
Ni 1.2844930746408072 2.0654987593866743 3.40991824337764 0.6396161616465694 1.0000418874360586 0.24055729686591476
Ni 2.770146959631239 7.617574291005887 3.27838787703541 1.0144161538798593 0.44387010755807427 -0.40335929192822145
Ni 2.213019784140531 5.44446146670146 12.15766228268817 -0.28196568460937244 -0.3454634480527018 0.8343162909690535
Ni 5.326050687620831 3.984563598629696 0.5137665679314196 0.038357002511643624 -1.1789698415259502 0.12191194171616423
Ni 4.44938908866945 5.844088554606187 2.047525296497976 -0.21331594465145845 -0.9269338545964745 0.8408512638740938
Ni 8.121721376860865 4.138003304039105 4.651441882288984 0.9357013163764595 -0.5887126899284829 -1.143327409731992
Ni 4.7698619528620085 1.5914003599368092 6.197680014291135 0.7717544090764321 1.0615285339866298 0.9861859553895725
Ni 4.50993245311463 5.411281547359265 12.357241681032184 0.6303789593190176 0.2844318867616779 0.5128942001362715
Ni 9.182428857170462 8.362547568244326 8.2879071515376 -0.8015344685523421 0.6325019191992913 0.3122450523192042
Ni 5.928845548232482 5.132796937299268 7.664363459258895 -1.630103058404341 -0.09251729060413098 -0.391355582599126
Ni 6.366967289129287 1.4864529533363933 9.192664365192686 1.3542781965853838 0.13884034204038667 -0.6756560859892622
Ni 7.631242076318788 2.7728136179485756 0.9405424674648106 0.6901427096412114 -0.43940307292565617 0.7136582762646484
Ni 0.23166570903132655 4.178997368485412 2.7006735418453185 -1.1593032163349581 -0.10274539609004242 -0.8400040853824501
Ni 6.644903701137985 7.5061228397290405 7.942749579499506 -1.5640174796291773 0.8553774825147269 2.5619088963811363
Ni 7.728096593043245 6.399190184754806 4.160272223861966 -0.8760000438610849 1.4854003440459065 -0.2961792571055931
Ni 5.503722605196144 8.160903600290165 2.5194392660858003 0.54298716286691 0.1786677584499697 -0.7346526191281283
Ni 1.5106108335631379 -0.10252697283154412 10.236200238407264 -0.27416572894897945 -0.7079501701362776 2.8898752160903394
Ni 4.735901548158642 3.1206499272441204 8.896014887500655 0.08643791717927049 0.7537497449688955 -1.2172898201520712
Ni 2.5163126788949155 4.026923512458054 2.657849982546455 1.7190920241402394 -0.6155287816800625 -0.7158902509189606
Ni 8.258445687451845 4.508659518656528 10.39298302278036 1.080496076228068 -1.1320310108825664 1.0021738461773966
Ni 7.073808281579049 0.735700367828326 11.284373495476139 -0.35879538927491755 -0.7706521771511888 0.7178679434706218
Ni 7.94011915800251 7.692380096277242 6.238204858371498 2.7138526085727004 -2.1839374483984 -0.286491597504184
Ni 3.729474966420062 7.1745838080941535 0.256513017993773 -0.5224391635122294 1.075754704888341 -0.2127348753370078
Ni 6.941813340617073 4.962688294533406 2.535866624639987 -0.21211241126166047 -1.3480913510483814 -0.32824374174030563
P 9.30199178130806 0.8115328830093173 11.784369142529075 -1.341962612442824 -0.33256936569885304 -1.7856869384516536
P 3.3253229217190174 0.21032686759719504 0.6556996891589819 0.7077493669793812 -1.5832421321867443 -0.43011779096898833
P 0.8304745194055642 8.227263438974555 6.261636143892962 0.4786285940851822 -0.013963404158627565 -0.09751242982587723
P 5.0678401139665095 9.3502146268376 8.462301030595992 -0.6962529363040073 -1.4872916475313482 -0.7943816595576448
P 3.2363568820378323 6.952340601500497 11.032818417824286 -0.3950327743403971 1.987690029193454 -0.11182370424222676
P 7.562354951702986 5.416698487425493 6.27106050462911 0.012392717237398012 0.6265423591817467 0.20967294858223243
P 5.590756014459189 1.8286028692862577 13.204802325802731 0.46549848446112735 0.6523922303653151 -1.0500686129761465
P 2.9067318978362953 2.5891208133013666 9.856134529441524 -0.4416530453020974 -0.7366179703846152 0.6408433491854512
Ni 7.875403913472018 0.01582898644395474 2.880344059434774 -0.16113386333126445 -0.7488479367919039 -0.5561442690741583
Ni 6.808285303409939 0.37774376501625445 6.883017705891374 -2.1880823238047094 0.7341638524171679 1.9321408311732404
Ni 1.3055475964076546 9.147195518008994 4.119053305299703 -0.7578563109381012 0.1681007815674008 4.0605709905329554
Ni 4.316697285777857 7.159689545785126 8.475627818138 -0.22919559199619235 0.6998105717482787 -0.5558725034700104
Ni 1.4118329779129366 1.1191602589659242 8.491362031359525 -1.2606792428812998 1.4340219895739301 -0.6593159540683419
Ni 7.094556184096864 3.088148286846754 6.302949835677653 -1.5919926246858647 -1.8497739987395496 -0.8738452023016111
Ni 1.532092763980151 0.9294930247087934 13.128524748136025 1.292755040369922 -0.45656415808597495 0.8468547897556964
Ni 1.78483994010627 6.125193365521547 1.779678516080902 -0.11322546968575985 -0.23366031263576528 -0.5334267728719846
Ni 5.514138368170829 4.296785617575582 4.587417924792674 -0.5956410416172 0.5455443820711249 0.829776751227487
Ni 2.70754088387439 2.9196099062956296 7.589093079367794 0.20058204202455776 -0.9507039604328789 0.5757147350069182
Ni 5.217349518092875 6.53093425542212 6.095904723194338 -0.2803695437668462 0.36021720932310863 -0.6376785783042244
Ni 3.2972068657320444 9.061806702899847 12.133415204134435 0.37222323264504925 -1.9010417957755905 -0.7944526220048963
Ni 3.3765562107845057 2.4178693169709313 1.1689691622472744 0.44776327196489335 -2.529521481189366 0.28889660740125084
Ni 3.52094600260128 0.5437093313232303 2.7260225913970895 1.0246969669805772 0.49188520198477215 1.019198148649535
Ni 1.9559799385279668 7.410457634031131 8.841850132584575 1.5338286147506228 -0.8634425189110484 -1.0632509159943755
Ni 6.790975253078237 5.713831122722058 11.777311324905908 -0.07572053076176638 -0.18275915491052397 0.30300784999165237
Ni 0.46693558796263557 6.636123240824803 10.460856445575878 -0.47935647339014226 0.8090150932001036 -0.10191441554831479
Ni 8.210938286836711 5.9927524329246165 8.66657170345019 0.5827510730284092 -0.1626778107796166 -1.4742839224177706
Ni 8.518319438244855 0.8491987348797703 5.525547391682529 0.9169044953849306 -0.7924972980507383 -0.2360907764541289
Ni 3.1605383040954336 0.24841548237161606 7.258649514686267 0.08332765368506294 -0.21903304964089373 0.367715831692999
Ni 1.255262039566446 1.7565659287485837 6.114698624861505 0.6884915471910336 -0.5133667688973159 -0.6145273369987416
Ni 9.027149436266862 7.099266970741079 0.9170442831981038 -0.5708291247798427 -0.5530496893092346 -0.677059394094692
Ni 5.5442706780074955 8.865942043215316 13.087456351750559 0.005762613515390076 0.20995654126092225 0.429985122045866
Ni 8.674258555108493 2.140564726445086 10.008947059114275 0.8787886623498156 -0.8404082627994044 -1.182140783054764
P 7.856486434955998 8.029484731856675 10.130726004188057 -0.5928511375768887 -0.5719812361064149 -0.5113229989944097
P 6.838203908921522 8.744204909857313 4.910476611318734 0.874344510535533 -0.3219399110094649 -2.2399802982255808
P 8.42886094946674 1.912728041429699 3.7507376176165548 -0.7403653532421894 2.0821191921083173 -0.46414197043323285
P 0.5974383152459896 2.066214204301082 1.2737047228210867 -1.2060978080909937 0.8607482599083369 0.9620139861290594
P 4.967677825949468 3.4593898654850554 2.721643511031372 -0.8505924024212577 1.2703075099996832 0.3219052011167875
P 1.054454305927828 3.8548822392740516 4.972665499067052 0.24429233842831477 0.3963813179484915 0.1938292966817565
P 0.36921138755001615 7.762252119086904 2.813015118093597 -0.23013095932626818 -2.6446115148876905 1.0246159772309966
P 8.099524001529444 4.680886621688428 0.10882102977985063 -2.469794754752695 -0.9288431558040454 2.016780004580875
Ni 2.922741139232711 5.584753710372082 4.16002785761198 1.479169532644846 -1.0953429114329134 1.9994654245618273
Ni 4.56664772269311 0.8222431862929206 10.511498795725052 -0.2924149049671545 0.5718915046060861 -0.2102689302950185
Ni 5.323133159008831 3.374400584548889 11.15626983152915 0.9083452929610099 -0.40021483276196884 0.9915166235738666
Ni 7.1870436993957165 3.4891876815955056 8.434096705431267 0.2960388748729869 -0.1209791454892497 2.725649086986996
Ni 6.216194242037215 1.3866530335227527 4.175448947539799 0.46166239854448876 1.1635524785296154 0.2520933225299723
Ni 8.77900154887622 0.34062518204786124 0.3559449947085753 -1.4385016226118388 0.08929287012956234 -0.04779372244451124
Ni 1.330476670503176 0.15737558158788906 1.9643673687128447 0.45553108883577037 -0.5089089902362784 -2.9107469173330256
Ni 0.7464125294104084 6.026592048226849 4.548688197043004 -0.3529936949914759 1.036579063130144 0.20563117441269102
Ni 7.80193608310553 7.881666379346182 12.354617763579864 0.522990408030009 -0.23778667609931303 -0.19138186358252846
Ni 1.3476659314337447 3.1924174145023416 13.267045104206941 -1.804228963119899 1.5796212476047053 -0.10489278145034837
Ni 5.409116629631253 7.644120084778122 10.777632224944506 0.08571286608778787 0.03389870962997388 0.05470767595552514
Ni 2.031194569464697 5.070525355268637 7.081699546070038 -0.7950802282865662 1.2376994941566748 0.06950514597967385
Ni 1.279308421884452 7.711111744945364 12.575044483410316 -0.06605241154438302 0.16179309418181811 0.09141043069319742
Ni 3.095191238082089 2.911702846267568 5.12572239498979 0.3737808069401563 2.2237833767507444 -0.8664756493104175
Ni 2.934671415467765 7.478499232838997 6.191519754833314 -0.9374370681206436 -0.7248955397413644 -0.25300812103475784
Ni 4.801908310132025 8.804785440272072 4.899475484323171 -1.3721545626451723 -1.2851998537304834 0.12313758659314922
Ni 6.398799942074221 6.095507047319836 0.5869426454367085 0.5856407358713785 1.6811502547891435 -0.7863811578506714
Ni 3.223553205517658 2.174088431005892 12.149231182489036 1.3464448165838938 1.1056854310095021 -0.8989517675612518
Ni 8.182441279661548 2.7110344850148733 12.188681930048551 0.050981376143873484 1.055016186789409 0.7356062412906492
Ni -0.07517281922095317 3.422707053509983 7.371576454955425 2.5533604925904925 2.0993316993318616 -0.32898859032613015
Ni -0.04386234814861302 5.634602567070731 12.473935392318236 0.6616821403076734 0.6425163660124998 -0.979414440993694
Ni 5.721217859176005 1.7718318507534077 1.9049668578322374 0.20895638213118206 -1.9459620533270485 -1.1316605149170251
Ni 4.0040385666894105 5.241814017568651 10.002650214718251 0.46987450204163594 -0.42292024477928447 -0.5328822132224241
Ni 1.1804469428026965 3.60283192507755 10.98629591540301 0.5943997130109311 -0.5752861321099317 -0.9427988466531891
P 3.063869617218875 4.128609605227859 0.24079645860779658 1.135869153681734 4.7364142528323585 -0.9722102099357708
P 3.1608077573748856 0.8227282021959345 4.901310554071164 -1.049044028366374 -0.029504437217020157 0.638959501899177
P 8.318905428465472 1.6264292862655891 7.790930310363768 0.30267129258784 -1.4202426764016507 0.707417180450943
P 4.819627186129103 6.740764028176188 4.035963205409053 -0.637696061805721 -0.5021531595696835 -0.5849840761239861
P 4.006798139930696 4.368924764529599 6.661054173218804 1.5691450306637298 0.3877454966503645 -0.26883403232342085
P 7.171210996354804 8.279853285929699 0.9263840913534591 -1.4830673250373556 -0.33079427607630124 0.17107451948374408
P 0.9739528158183985 4.844184600528828 9.229721624311273 -0.6228134882669338 0.6155184972674174 -1.3898861755969805
P 6.311682909379622 5.118227877224062 9.718729152457996 -1.0764959539297396 -0.2090152603935755 1.5676409353143776
