# total energy = -340883.38406210346 ev
CRYSTAL
PRIMVEC
9.17090245381009 0.00000000000000 0.00000000000000

0.00000000000000 9.17090245381009 0.00000000000000

0.00000000000000 0.00000000000000 13.42254275018274

PRIMCOORD
 96 1
Ni 6.394246646077295 2.5873591910839564 11.836373869785728 1.6084844516933008 -1.3727436023794228 -1.1771376734132177
Ni 4.777077223518761 0.7216463903825161 6.0677946175744575 -0.14019865584049404 -0.8798767532076717 -0.08683952349306334
Ni 2.442119609231824 1.1930977230937072 4.613301413666405 0.13106506897034204 0.7290383582651445 1.2915936730719693
Ni 3.6234602354047487 4.870381984885408 4.85941725393495 0.38854099596846636 -0.8519741132601327 0.1977476578995562
Ni 3.878347126761465 2.864357128209789 3.302884921181815 -1.9800127151538545 0.11021547921484244 -1.4554755314620158
Ni 5.180862886798899 4.859798763476217 2.2931071181182165 -0.6129358241419056 -0.14764817014000378 1.4414396221942403
Ni 5.414803436995657 3.269839408440274 0.5416004825214551 0.4235614779077092 -0.7942839576375159 0.07914215484880563
Ni 5.837123494095531 8.243274823979998 12.28973376326476 0.5556647583345785 -0.6761271120884097 0.6363935409442136
Ni 2.326887220144746 6.84596861638156 13.410811472451606 -0.1264638227529048 0.6465244587306285 -0.8971581659959387
Ni 1.1896494637784076 0.10094870854564308 0.08139359328496858 -0.44303089948623053 0.44470854429896967 0.047579549551176124
Ni 8.170054338944485 9.015308903607332 6.759726366979573 -0.6551453676304201 -0.8057179105060706 0.6226401959138632
Ni 8.97372803197018 2.522154074776028 1.6603010937973273 0.6232225507798944 -0.4769116113940754 -0.9409602507825537
Ni 7.00482698834864 1.2650251108859836 4.970743755675255 0.6841121871764153 -0.8021232511762767 0.3009445397047204
Ni 0.7046939772326981 7.244049978347559 1.5825309240641536 0.03173178388564212 -1.251106254480884 0.4016345959276309
Ni 7.890195080259149 4.2951096169861485 3.7470500678802106 0.26885125871460147 0.31846609352825156 0.02509422396446646
Ni 8.183764838083775 4.002420265795215 12.7865022892361 -1.2821813786191336 -0.7061732807415129 0.03579052733604804
Ni 8.479893277687575 7.290647333616277 9.181314159841468 -0.8084851888385625 -0.0627364597972726 0.8551825928951015
Ni 7.131128656673926 1.2987556900393675 0.3867828101669314 -0.08830428096404792 -0.7797554250040377 -0.5782431578557267
Ni 1.9640863198435297 6.595639663534695 9.263030568892125 0.5887157752522765 1.1477409654186557 -0.7131283719031073
Ni 0.13561563683757 4.830644464637553 1.43731243528762 0.7105726953607892 1.02054334982352 0.49898504625434703
Ni 6.167817064974235 2.685992246764936 7.169852792202791 1.924198693508028 -2.6448691394244515 -1.562451163583322
Ni 3.7160955208936914 4.852553750553113 0.11190793695464091 -0.14382519684948777 -0.6416123661409918 -0.06360240734199368
Ni 6.4767114007665905 6.164552223707622 4.535799034284314 -0.6436854466199365 0.4431121463461272 0.5114965484577966
Ni 5.5384272018101255 3.058871968841457 9.375242979807584 -0.034431442204992314 0.6144409479325226 1.2859004793419337
P 0.18305671513024424 5.84335970775086 12.679752984900759 1.286550968441739 0.00014603865956103881 1.6175514469915753
P 4.365615514901107 6.512633825601775 12.153602721710383 -0.19275586111191964 0.20070211254218984 0.9546598597568332
P 2.866475606672114 8.63621130968035 1.483405390922451 -1.4504474821198052 -0.18850737024821082 -2.4079730934602077
P 6.553270094288192 8.131674112256906 5.616877852503925 -0.9904141345383074 0.21970565022788613 0.5301630145190482
P 4.985394272314062 1.2612650408879174 12.905304910640856 0.6383483506777394 0.872683320783026 0.03149832771859737
P 4.3106542966123005 6.305123816220691 8.079095494420534 -0.2634208317276496 1.040046452853454 0.7992513289451203
P 5.175745523240555 1.2291852241727086 3.81938464374057 -0.28714697169999576 0.2593785433374759 1.2193657288444937
P 0.3691911851174422 6.106298651444899 3.772325074989163 -0.8166823799373742 -0.2717761456708803 -1.8474931731251731
Ni 1.0966840258018293 8.617310079763243 3.5018201367868205 1.2206497377632397 0.06713381753401987 0.14369252792636542
Ni 2.261122678788325 6.676233554127391 4.504538179156488 0.14029764331220354 1.0941807728040125 0.8133664281902637
Ni 6.2243189948720055 5.880272590048948 9.295097546343925 0.2002017758670036 -0.6890718451745358 0.3527504686324183
Ni 9.198965395756781 2.63460768042551 9.534367307945258 -0.5647284111987435 -0.8016131443090776 1.550400403066375
Ni 2.4936509100101993 5.829089783563077 6.970246266539595 0.02856624167346693 -1.1383654377410266 -0.08120443669447304
Ni 0.7041262983720143 9.030954463160262 8.9379239117764 0.8084497076149368 0.859594605919868 0.3010710379802557
Ni 1.5950216931796808 1.497269044132394 11.265714465810925 -0.756441947089078 0.6443251370864645 1.7988743836762051
Ni 4.471759539675785 6.971334852658548 1.2608248375710704 0.5114047600749386 2.1069066834656427 -0.10166116188692814
Ni 5.8955879971142435 7.961618068417538 8.153764982040668 0.2721828941909958 1.2120342281800869 -0.6343592841230044
Ni 5.610464640431613 3.4928665847402054 4.561248288539518 1.2589213796499286 -0.17384925401540383 1.0074050126693488
Ni 0.9192454055028422 7.581319086271662 6.699607433161712 -0.9204934982877696 0.1747555678797571 0.3601794141066378
Ni 5.257916809051953 4.63744106305399 7.076083066082725 -1.182474512245099 1.942156306427713 -0.30182565675809314
Ni 0.6027181276144126 7.28437443635121 11.201340233263545 0.7256864110737761 1.3726482144521392 0.013820965043492327
Ni 4.757258903358222 0.6029327267313753 10.786530228167125 0.9376738667217981 1.5537826892750466 -1.824035970543497
Ni 8.586468334876665 7.977722173092182 4.701366838472333 -1.6441585080561427 -1.519076910362745 -0.06787326680320568
Ni 7.623991295298496 6.508369355969821 7.132833527436464 -0.6535430561403066 -0.4789384120161171 -1.9096544771452661
Ni 2.609873756560182 5.8185615875684915 2.210437852304636 -0.37065023173097456 -1.2448911268091076 0.8722413481496011
Ni 2.5603600543173544 5.637885638710194 11.275633713883872 0.22444676445729733 -0.5958960950507995 1.3387325355413011
Ni 0.9944192927568632 3.5999185288558806 3.793801494309825 1.7092387854952433 -0.7673084574899366 -0.1490998149848658
Ni 1.9215149907434728 1.273205555857386 2.372528050289566 0.3897607273081804 1.467747921071466 -1.3037729887469804
Ni 1.473727337583526 3.57064500828557 8.004735066212437 0.33524305587627423 0.8525592963396413 -1.0757361929455795
Ni 3.773734642693316 2.6157247923132703 7.3270035421366035 0.1956180131510631 0.6592239085751679 0.42501183720099056
Ni 4.266890750195784 7.208549415024352 6.014426385038489 1.4857459003107831 0.05725846740183687 -0.5945130986603439
Ni 8.390559517074983 8.052923573053507 13.050040092859101 0.19144485560997995 -0.868594495425633 -0.7711957083594847
P 0.3649505598318183 5.8588218492551025 8.033271246227029 0.6769470368865438 -1.9097444657559108 -0.9313314694435381
P 8.841199320891999 1.4564310155924216 7.759182319353358 0.8705446771734685 1.9779604606105161 0.6914377743035511
P 2.168936767518663 3.5047979288072395 10.165119967211107 0.2912147140114662 -0.0019375833423450502 0.5412876636773
P 4.512074826777003 6.559680555089773 3.494867675651371 -0.4979146960083037 -0.14400054608508747 0.7679057247543032
P 7.402137994510157 3.835610721417591 10.328203373929673 0.15872473966913955 1.2386268910669507 0.06195741553940296
P 6.769538315494039 8.027501831505605 10.224407100178178 -0.46923841111953385 0.08069381560664167 0.88856296812776
P 2.573116779603476 8.547226043360261 5.896657324338083 0.7770074299452554 0.7910176281814183 -0.5724322076009045
P 7.138859727426048 4.256270845176855 1.6706908091651547 0.7698672193560483 -0.8522911302799193 -0.7800968675038564
Ni 2.855057833141401 1.914811061063994 0.0714605888583698 0.06658000191307888 1.5722031007637631 1.5831187192350027
Ni 1.88716996112699 1.1161630225722992 7.132322708170873 -0.595906893684077 -0.05707411930517267 -0.837540711443622
Ni 7.245443955517573 1.0330746465174705 9.205770205363038 -0.17089068560771212 -0.419596065502058 -0.20462253064251856
Ni 2.804186837338295 1.4209304522692159 9.403806672529479 1.1185448034706738 0.5340700628829383 -1.120707101229315
Ni 6.884431381191046 2.153025251795139 2.7157564106154823 -0.2946646202332796 0.3012358456928941 -0.25486831417194816
Ni 4.297677469667755 7.540325152390306 10.186192866824658 0.18729355244576776 -1.2473982095016773 0.6751904592067532
Ni 7.5806037558817865 6.051346604058526 11.455133953050092 -0.2973089998346622 0.7796392111411475 -0.6191725490802369
Ni 7.815929112346125 4.221944157365241 8.121416457884134 0.8410206995724226 0.07284320921397133 -0.17608020022845158
Ni 3.344673972304226 9.14207828795677 12.465434497552447 -0.4420137710756259 -2.5999121150977866 0.21975578673953122
Ni 0.4438505847448986 4.9427679177994 10.440160833757458 -1.029159373627305 -0.919062679378514 -0.7300076641569493
Ni 8.943225610473673 2.560213319878405 5.902106674564549 0.3605514527340758 0.14265920156584463 -0.2805369225826459
Ni 4.103813763108922 2.980790905515761 11.70677893039628 -2.0359776605552486 0.2946142266113185 -0.9355511639518405
Ni 1.4213706555860628 3.8805114597359616 12.775187229812651 0.5404114317199339 -0.47494188926221437 -0.09045783697194099
Ni 3.51857262426357 8.537376494145816 8.207790768281177 -0.6589146048648652 0.5745687943279331 -1.173274590913386
Ni 6.278289755697907 8.331205436520142 3.2505777620574974 -0.5626406754317794 0.6465391140186478 0.1038813094666985
Ni 3.599496667343902 8.631158142439048 3.381340157326832 1.3090676614870165 -0.547407917642425 1.6654950647503897
Ni 3.9651222055948856 4.817007332717736 9.619104612257775 -0.21508229252326186 -0.442915714064605 -0.4479208805886802
Ni 5.6114642687969525 4.76966713435184 11.730953429213116 -0.28238734552782335 0.0014537017273910447 -1.4295295010202154
Ni 8.579590158050934 9.032137509574287 1.912887005733276 -0.7862772852829555 1.7697394139834617 0.5827397601744996
Ni 4.905855035501311 0.919419652649094 1.7151320852715666 -0.5571241164889243 -0.7590945542205766 -1.0091399930825846
Ni 6.25858148636658 5.766856039643864 0.25665137298507745 0.31804211861695547 0.42756442841951525 -0.8139274429000564
Ni 8.471887079862423 0.4747473550460815 11.138643358771398 0.012569094914262226 -0.42192034275986046 0.5912477976455107
Ni 0.192274389166967 5.119775505683974 5.738647260846177 -0.04466828944165211 0.07941366334263744 0.588923006167076
Ni 7.397323270732144 6.499721194974269 2.1237682388492103 1.1955076912799734 -0.15511876748543607 1.4763125228120253
P 9.050571023467246 1.411961309688463 3.607899048154215 -0.3349916019871005 0.34601340701890093 0.5573082074752723
P 2.4604063886858336 3.6479740576116533 1.5697531057024328 -0.6925888571888588 -0.48562610844893794 0.12006254721225129
P 5.200919650422731 1.1233254973734936 8.586279414286519 -1.8069234792329267 -1.008725274142669 -1.5447537463035588
P 9.097150036931096 1.9226980371574987 12.720328725631111 -0.02417608302557127 -0.10209824942434674 0.450461901842979
P 6.825645896587134 8.219081983358295 0.9415682991181908 -2.035631332959423 -0.03516343527501041 1.0748463341414587
P 2.2467427037713303 3.0433456310201743 5.821128523159854 -0.5528067200604931 0.9734654224991104 -0.26703991653747555
P 7.099865050275371 4.482379444694714 5.884764498061273 0.7704860838869698 -0.4870803243969611 0.4891222945276544
P 2.2463942094788267 8.63648643675338 10.549500918030494 0.6758126661717845 -0.03342356976576824 -0.7268323517527612
