# total energy = -340857.0309590271 ev
CRYSTAL
PRIMVEC
9.40623226903932 0.00000000000000 0.00000000000000

0.00000000000000 9.40623226903932 0.00000000000000

0.00000000000000 0.00000000000000 13.76697172227026

PRIMCOORD
 96 1
Ni 8.59885775809419 1.314201152230435 6.344178231695448 3.20186212965215 -1.0053473588093718 -1.1162074135867486
Ni 3.629441764678881 6.571146854636697 12.0577193812326 0.8384033165542335 0.15676041685391712 0.0481881296694525
Ni 8.73102472816197 6.744419059861846 12.441459796695781 0.7185539137940529 1.5903990549464997 0.6443032827095936
Ni 8.107683119776684 8.583205787544566 10.934045226761107 -0.7432704427041265 1.1638263010162924 2.072907186591746
Ni 0.8728503857905179 3.5229161838648744 0.20302035550173797 2.09235783911719 0.5379447153469961 0.28964479842118507
Ni 1.1101517549149178 6.086283798193468 1.3589230837077146 -0.7512855996991191 -0.7429997055412431 -0.5208615346124643
Ni 6.353336139464147 2.8973735171210473 11.19066229391655 -1.696273483583827 2.4710245133947377 -2.283189486623203
Ni 5.663191469273911 7.690667216923866 7.633097312746027 2.167083352955539 -2.1116071742651057 -2.0186641089774655
Ni 3.8685481897819303 2.4005833581195697 1.0461752659165546 -0.750771636177178 0.570579470662882 -0.5577301255040394
Ni 6.4362802958984 8.935845436526206 2.830310843304576 0.3754713072687017 -1.045832463407612 0.7344757272306319
Ni 3.2015052261240724 4.822876300390903 13.60171290734118 -0.6005721603702302 -1.9817618366344776 -2.010665407042705
Ni 5.311294912644083 2.2516356696259905 2.9433784586842457 0.17571998867555544 1.0710012493637555 -1.7074176731261048
Ni 6.6661592071137195 2.0840730474078266 6.6351713154197975 -0.20757055752724898 1.288478267371439 1.619195924573534
Ni 9.341959516141634 3.5058062473085236 2.7999813878717563 3.2661237678446975 -1.2713778602457266 -3.6820418702745363
Ni 4.0726069933297495 2.0259519380171205 11.75342870690368 -0.22573488714110154 1.208051332272939 0.5946974467570081
Ni 0.8549888912732804 3.6779402984251957 6.440533794145119 -3.255344932061639 1.1436333710081854 1.3451075858297092
Ni 9.401322248196132 1.1348054897770379 2.826566222225366 -0.9236225308350545 -1.213818059553387 0.42361212863998654
Ni 4.629785163706583 2.1528326055314806 7.546117882654449 -0.5777034833021728 0.34450545501480667 0.2395638226043939
Ni 7.32411575036837 3.655882683678278 1.994531359637332 -2.1892426626613974 0.5255504554477013 -1.3311344114790689
Ni 9.06481428761149 7.980746014868514 6.516320748421191 0.05437497520645474 -0.13385497301065333 -0.014532646398536263
Ni 5.771758202497332 5.689547732182594 4.1921526808954335 -0.1273210285468775 -0.2976751249248292 0.151377555275449
Ni 9.256851926278046 6.8501168922333235 10.079226588292483 0.7555150643994343 -1.2651236518058988 0.25394323125451745
Ni 2.2805692401852737 7.877493802895415 2.794076155232901 0.20457907899909283 0.3402628776883688 0.3652473155478484
Ni 3.5861354711629705 5.6891338579613295 1.7122531501402831 1.0574476790490368 0.8453586648261441 3.3757964871821926
P 9.01557266151336 0.27463000201273385 13.066811516923888 0.8728638122249484 -1.08935738327344 -1.0159894119042503
P 4.412369510290695 9.287572680974606 6.118359050341438 0.02123396967811182 -0.32913205788252997 0.959961988696037
P 5.606989231272701 8.989150554978567 12.920922735174742 1.5350444894355952 -0.7318184921134429 0.45225421785671144
P 1.6435885949628735 6.488005167324115 12.868470761992125 -0.6996555342276531 -1.31627317809652 0.6120333669322943
P 0.897807941955975 9.322469802813014 5.207535704749936 0.3034811900836451 0.3175081004903564 0.4016631351727212
P 2.310396402813195 3.739287745495302 2.0009877974890524 0.10752199154307934 0.5331146409482045 -0.2655036823986073
P 2.5103540890775786 4.359638172008725 10.347476342935138 -1.406331208526881 0.6599924113100764 -0.9190775917768494
P 3.6975522927737345 0.20321694575683838 2.0543625220604427 0.02484431273718947 0.0012089327064366277 0.30977345085026003
Ni 1.904818478438951 8.44099296137883 11.99892102311619 -1.6110632681640704 0.22029674684466577 4.632863587232202
Ni 8.151713693179806 5.537684111675563 8.017553542487347 -1.666729451378123 0.16050908526307195 -0.3406140903802005
Ni 2.070368166944603 5.391294918367979 6.09616692647261 1.2658376471537878 1.6414398235733991 -1.3015235305911714
Ni 3.8754523642912004 1.3885386061088536 4.420491791883004 -0.7004931996376002 -0.2633141309464562 1.5901087773995906
Ni 2.2966350849561628 7.893390335484878 6.705066205782238 -0.528311048911974 0.08441780142544816 -0.11218057336101325
Ni 6.820063980030167 8.902406280694525 5.978623825763906 0.2938331254709198 -1.6887450364172656 0.5684248862137243
Ni 6.353909919634536 1.0863822058891346 4.61324336358124 -0.09602530375738946 -0.34137025181993463 -1.0708724370953753
Ni 7.702744819198938 -0.008070547314650529 0.9755767893779653 -0.4969243070705764 -1.4180706084509964 -1.4453335579320075
Ni 9.197714943798784 8.186055847312428 2.094796152231488 0.5038585722965645 -1.656514201408018 1.55243363144632
Ni 5.8663848994499945 4.273561740218087 8.927109868587843 0.12117120689539777 -0.6878711399982153 1.8255840317569074
Ni 4.57018727584455 8.382965914311137 4.138062142045901 -0.6865421367741467 -0.4053133303307987 -0.20998148096158675
Ni 1.074135291432637 2.4585821864903568 8.35748819349941 -0.48181856177738963 -0.9559582668532828 0.856335732662938
Ni 0.7304992880099507 6.9869305410580225 4.5654446535181545 -0.16676457925448054 -0.0018046573089065695 -0.590688582707931
Ni 8.183770132863172 1.5095309722025014 9.94185985300846 1.0086805369476626 0.814484858065423 0.09758082116996743
Ni 7.878885925276031 5.922963386743262 5.795138333505835 0.0037828640811999373 0.07669266486704855 -1.6062607045691046
Ni 4.461789854802553 4.450859812868259 10.920622533266927 0.9673431116514567 0.6799716826454806 1.251692208891341
Ni 8.129740734523601 5.602803457898553 3.1351245041494566 0.18443937082642428 0.5394619233224709 0.2704216885255149
Ni 5.964830526717049 6.989150411881167 11.72878531889709 0.7549226822310741 1.6521924341042125 0.24569564653374462
Ni 1.2654580564442823 2.2615028073102192 4.985282426061407 0.2801260602974724 -2.9850942218963494 -1.7954974967841724
Ni 4.447210194735294 8.96942568584241 8.686353590339118 -2.960476166237353 3.354509038558326 1.3227904103897477
Ni 4.256574084681655 6.614443741920306 5.994276736936761 0.18821015072276617 0.348248981217639 -0.38264957018469586
Ni 0.822041681390965 9.163212883717037 10.143408133155019 -0.5012046796134852 1.2097104651429167 -0.8634571741990678
Ni 3.331057263612046 2.398655080497771 9.524266407492332 -0.2573481431710084 -0.16354838631002802 -0.042803468318771444
Ni 0.2549737983723781 4.625505328009421 9.25067579414891 1.4901237176635047 -1.4496555823461292 -0.2001567815616811
P 8.749818380300281 4.964976251769021 0.02564515174669371 -0.3575211505481843 0.48160001800868024 0.5653506181637747
P 7.369096353233939 6.972303849829256 9.47364488711558 -3.3416854044310966 -0.25874990861454145 -0.10439141633389763
P 8.480141700217496 3.0193065064448406 11.545725928962275 1.2139566420137804 0.6695098638822082 0.02634275165958689
P 0.8885578531107218 7.676153400482717 8.441687141322678 0.6913696400697771 0.4605599095089294 -1.46305360091959
P 7.876148711676307 7.554361504643446 4.061132330545202 -0.020881985655331777 0.643294381829105 0.6252321250107555
P 4.718683465187659 5.835889894328669 7.925879461854113 -0.9165118879322023 -0.9953025729788602 0.7796716070409798
P 6.211932249276337 1.6698790142454472 9.100862732283597 -1.610788160125813 1.052336840185033 -0.1741125349791195
P 8.466521475844985 3.271647500396041 7.620253102538386 -0.4328763275507319 -0.3170843826893765 0.5629327527509015
Ni 7.608466152841429 6.730243867783549 0.7171377350257302 0.36213473806079566 0.20545402540487845 1.307069142999749
Ni 9.029305760673488 0.18731853192091494 8.22014873628906 0.47035684099469316 -0.2838994112969756 -0.05052500533274524
Ni 7.205531379743895 1.2546879204591135 12.144382761918848 1.3378411340752832 -3.134892605610136 2.178700111258861
Ni 1.2513110830628904 2.7412582796137572 10.878509890630072 -1.1819975726086804 -0.4707946998630602 -0.608109863508172
Ni 2.581813235871751 0.8794422733873793 7.2110989286431275 0.05583947556712319 0.19752140082136305 -0.9531832752113067
Ni 1.2250676949418238 0.24206092266893725 0.7754413253230844 0.15992544484546006 0.3966206876528073 0.25655135830132586
Ni 2.0639625227473104 1.6389136975090492 12.718534478483663 -1.5683189352180087 -0.015901244611288744 0.5062137027923024
Ni 8.538375684395819 2.1421941567985323 0.4243791014983974 1.0113385433958 0.11798303897540326 -0.462834564475719
Ni 2.1112100275975316 1.6946550301274863 2.8595651663853388 1.8820801670714231 0.4822181112086533 -1.3066048017688205
Ni 0.326822363183831 4.973996828546119 11.467377657630518 1.5751012482471647 -1.5011465511365696 1.957680113094925
Ni 5.243993320527156 7.6578959035855885 1.0645569250800628 -0.29713262215779795 0.8458091221000014 0.06716415655132305
Ni 2.050285860980991 6.937820602212113 10.28534629733755 1.7170976194180299 -0.18367215364309658 0.2605699925424158
Ni 6.317658300344719 1.8289195899984905 0.5135915711383409 -2.4153588444013177 -0.08900207836202091 0.33581461210902813
Ni 6.872729474686027 9.025439799197589 9.054234157518811 -0.18078866144771444 0.24657547803553662 -0.6880418612481247
Ni 5.712903406987113 5.693404287426191 13.66714736234627 -1.2052079492868726 -2.199263794342825 -0.7737161607884933
Ni 4.636962118952596 6.972557818101396 9.84390805293723 -0.22707443188813153 -0.8493562160213115 -0.33884928517029383
Ni 2.380030740540885 5.689481888556484 8.449369211243276 0.9370904834145022 -0.8865305110787635 -0.7648545966328054
Ni 3.090474060037668 4.116129630188593 4.273612533872515 0.2266553420728419 -0.5882362645126966 -0.9719183897269649
Ni 5.32185811151862 0.3137721564887889 10.91632764759808 -0.11847026302446693 -0.8157467554969822 -1.0398271377537962
Ni 5.993312598125861 4.387254870045804 6.749271735106167 0.2150072163109523 0.9442957429136898 -2.334705138003992
Ni 2.7026080710870684 7.769999380154359 0.5194046227006416 0.3599770682878446 -0.43934702287674016 -0.18909949530625497
Ni 8.024992931614571 2.779071333465616 4.534427602504098 -0.6692954338785571 0.719739963682354 0.15513008033934575
Ni 3.7512995041442627 0.35766916139323074 13.506651642456191 0.29788055606741604 -0.7885678810893452 0.804357539823434
Ni 7.380760081287747 5.308642355135072 11.068975747879055 -0.5789000747134352 -0.9792696878857134 -1.0577220157563463
P 6.082991616887957 5.581366654483531 2.061948648411568 -0.25459140636147765 0.6017070453056218 -0.36534270347513204
P 5.701164429074894 3.1364329110625895 4.9468579671099535 -0.7455535823113483 0.8113244580595705 0.018272573056942725
P 2.8018626343320476 3.3430313973318015 7.156732787187163 0.6001371297153407 -0.5137421499588637 0.9066792181124965
P 3.183191291833135 6.328014562108624 4.105131863381729 -0.35192617295891004 0.3557558311176454 0.1131935880065599
P 2.831275922738705 0.008997061196344093 10.612173363637533 4.030502710392665 2.6446837628865225 -2.732466624129462
P 5.294391913198365 3.351271256827878 13.220244096978803 -1.0869649717818635 1.1694590738220374 -0.6135094372571885
P 0.2517493419394385 4.413074977713305 4.471278861948264 0.3303931839831407 2.7546539588597785 3.0490776667268453
P 7.358476716965594 1.5124280917513502 2.476829336531954 -0.4392480354050306 0.5115060615394932 0.8142226055429719
