# total energy = -340857.0325160625 ev
CRYSTAL
PRIMVEC
9.43905199069473 0.00000000000000 0.00000000000000

0.00000000000000 9.43905199069473 0.00000000000000

0.00000000000000 0.00000000000000 13.81500670237195

PRIMCOORD
 96 1
Ni 0.6997546714728862 1.0384561697929764 5.596832004859045 -0.6397521730038015 0.47951305357266455 -0.05479277947016369
Ni 8.298512356131793 2.7869366994954876 13.655014773469517 0.2850983167010832 -0.39553028280210595 -1.593834305880294
Ni 4.266328738433315 5.352857999409977 5.165513585666492 0.9652011256077894 0.1325172280358363 1.3682698828787854
Ni 6.5384784269380525 5.378645489124062 11.795708447928424 -0.2970272069281852 0.2570285550480606 0.2929723201325213
Ni 0.814350424629113 1.606545506704456 12.801634813255205 -0.49278920185628033 -0.04377894485816331 -0.8460382073916719
Ni 1.2381109949878193 9.049606030736049 11.4576138806437 0.45171274353094465 -0.34582803048097216 -0.60159957319348
Ni 7.403246603235837 3.2553118924320086 11.342963380986616 -0.777898317190641 -3.165337809473871 0.7675485985252006
Ni 8.281946820096573 5.708417644373316 13.614951661704344 0.22864177637525138 1.4622812415299395 -1.254385182342472
Ni 5.022226890440379 5.349120134868698 2.6565701784716573 -0.18773578218950895 1.592872970408289 -0.43452877555249037
Ni 8.558095721661452 0.3759961361712317 13.71160094553649 -0.6663355799192847 -0.4271391679566386 0.7347752607489216
Ni 3.4503227041058673 5.695193532700757 8.348974471344262 -2.190388346230067 2.1447582070957774 1.297156254761411
Ni 7.177775971171294 4.80676165336007 7.71591614039836 1.1623633433175207 -1.1383677517338717 -1.27408394632298
Ni 3.323631749880963 9.303809136698716 2.0375335590814916 -0.9251433383549551 -0.367807877186173 -1.166047219927011
Ni 0.8601704141309722 6.845908346406473 7.409582094852269 -0.4809353878414878 -0.06362606149107752 1.354896546895673
Ni 2.68191780836851 4.5520488385963205 3.7684159204739953 1.53083559356057 0.5547466173956832 -1.5013746079869754
Ni 6.0990528060927085 3.293521174409539 5.86891833849825 -0.28368446707269207 1.2747334069815206 -1.0937840515862258
Ni 0.35915969934728875 8.270922007510173 4.6972261759123795 0.6508192294512404 -1.3297573286258841 0.5386288858982143
Ni 3.007886025713381 6.8366769536757355 2.149062564284532 -0.47318762557526894 -0.789373407709776 -1.0988972044430751
Ni 2.30353453597887 6.528010518412093 12.590334085860789 -1.924848154166569 0.4959498589724491 2.856446504118248
Ni 2.394508117920431 9.252111449596212 8.830524692883609 -0.9004206387972945 -1.7251914521697578 -0.12321677657051681
Ni 1.2341937884609728 4.1769126000506205 13.418929927575002 -2.3564551280865738 -0.0744393500564976 -0.5908490195451953
Ni 7.412949948560169 7.452037062361789 4.060451690244503 0.255423929565102 0.8252300123970692 0.24091288043312056
Ni 2.1317343528580617 1.2020632558889583 3.3571989061478833 -0.9473155035766203 0.8370000084488036 1.3717354728298827
Ni 5.3518952161190425 3.387326471912676 1.5963381160101624 0.182475305121518 -0.6483252593847931 -1.2370114669507148
P 2.1994689890909567 7.439634148202086 10.155867629650961 -0.5805052144170261 -0.4980082841633746 0.04179996675492156
P 5.541686232107729 0.4389262950013195 10.315637741161007 2.1982690345297238 3.580756603669788 2.5605253857700485
P 5.153429711460062 4.979609571238662 7.410963972046318 0.3266141765566826 0.006465810230001767 -2.9438231310617042
P 7.061930487547224 1.0941560148891738 7.185557525534504 0.7724393509585987 0.4255096027730155 0.7075418789542653
P 8.044233737754151 8.784132696838311 2.2678992834468117 -4.3674504076648715 -0.7606264174840707 0.2077893584062744
P 5.3516875569778595 9.264287826510989 2.4214386768162046 1.6391877943144284 1.1676958112740277 0.520551202460897
P 8.337797690022722 2.671034581560187 4.3083202484959235 0.08873776895704072 2.121748890684797 0.6976261625024501
P 6.221439552664017 5.516540597920935 0.5255116617276251 -0.15457266517397897 0.902299343877246 1.1733800061429984
Ni 6.655928549380348 0.8897004879122726 12.206221308984892 0.17624500794109002 -0.006121796627021715 0.05490230846483449
Ni 0.029423412495147714 6.6585242886451255 10.16357555940957 -0.8405023651751072 1.0901515970399613 -1.1486184829276025
Ni 6.334132392962865 2.3815294215965412 9.065393788897023 0.889960619806235 -0.8404874527767718 -0.5401311814753537
Ni 1.3870025992154786 5.309683776147818 11.185775794068727 0.3140965037056462 -3.119593256248905 -1.4853908309642097
Ni 8.67152480800631 5.323974500681904 5.751090653981077 0.7085466660696959 -0.16816557336706522 -0.1901806441855757
Ni 7.809692176840694 4.748673728140277 9.828976273033016 1.2162292400980408 1.4409588259030797 -0.6304792323423077
Ni 9.280749532975616 8.946786438695229 9.334454906411278 0.05062887790046119 0.17649157673425733 2.9712346903054376
Ni 4.594354669086264 7.448761711362233 3.738768802449483 0.07531275380038642 1.251949833428102 -0.23798490815304818
Ni 8.09919733680434 4.211487847057462 1.4553554933459845 -0.9200697804867897 2.0189906390789485 2.5200539080185633
Ni 3.934612138498445 6.033819518605872 11.030840364927476 0.5852329589099986 -1.0705572198478015 -2.1884579619765727
Ni 4.965026236096546 1.5091344913862461 6.721884868240573 -1.2127356251224857 -0.4874793596075927 0.2128382336840915
Ni 6.431873775096593 1.9608403187169576 3.358165465059568 -1.1531024868408852 1.4470407704311015 3.1760281993081816
Ni 4.687272695713441 4.079180656968766 9.207922528257821 0.676969405484047 -1.903284054842548 2.3572879084005143
Ni 7.0002746007198455 1.3832552956223267 1.4499818411153007 -0.5566865147308735 -1.5674473312463328 -2.6430912215884224
Ni 8.38307682185232 3.0263582502267274 6.535520228081393 0.5930992490319528 -1.2156669398366677 -0.0685055010705659
Ni 2.7975650719032688 9.196553190278093 5.995091088775386 0.10163210842120561 -1.4811102013109847 0.12578376596674468
Ni 9.07576164347314 2.3327767186780766 2.1313652859298697 1.616512978424732 -1.4720707168165357 1.0281052213311777
Ni 0.4636632182420592 9.099868981954021 2.3533727298626053 4.875068961224501 0.4425063944413282 -0.6579720384459378
Ni 8.354769105288433 8.370824932522568 11.507817365834878 -0.5746037613309265 0.9093374816709501 1.270774936554405
Ni 2.3234037401692604 1.988713838894736 10.881071872780915 -0.504681325308176 -0.6631342993731676 -0.8900015003464995
Ni 7.149468254607406 5.068969075310124 3.910945603739981 -0.19769829271885953 -0.8568370977793889 -0.029095631814375696
Ni 1.967239995886119 3.7845595308905393 9.243869269501651 0.03178603416234526 0.39728583204063195 -0.49867831364720566
Ni 2.8479696088993194 3.0591967116891357 1.9259913392058305 -0.17656228207119268 -0.3019480412685703 -0.28321524074575744
Ni 1.7165954124791665 5.856516368243734 5.393074967720665 0.008265582442901894 0.3944735594028174 -0.2889845391293668
P 4.022404759959169 7.447421365996419 12.56702812288383 3.1405690871696232 3.2586007199947753 1.1967464487830808
P 2.152594657495004 1.8323370665326444 8.349236876986302 -1.0901379701932064 0.8453254975953635 -0.1264288557499113
P 0.24839997687181004 4.246459534242924 7.978263260316118 -1.3067348995887815 1.0639728817620644 -0.31327683601782824
P 0.8796167487975008 4.026057673033602 2.871601219165857 -1.0855467512780983 0.824895768986102 -1.9319816798875564
P 1.929946301940165 1.3441021084576041 0.8542389139346579 0.29444530513362194 -1.220206479578234 1.1000837685520086
P 4.777094713326627 3.546261227332058 3.807664442062624 0.4406749976595443 -0.22967150319134638 0.27289354710477515
P 2.9289472349085175 6.9708247588794565 6.810674253578972 0.8397706292154054 1.662250589671163 -1.387827493295739
P 3.3128523526432305 3.8802243216124443 11.112542910120439 -0.9059816778248396 1.0932968275371624 0.12112904080355268
Ni 4.527686645714896 1.1900567819078767 0.22476836660527216 0.772040058637651 -0.1113184824710341 0.29700175300688847
Ni 4.8097821499590845 8.589131324216325 7.597894011412626 -1.1118987589090659 -0.33647667117305924 -1.2307526305251963
Ni 3.5854899269117557 0.21867829033750968 11.873404115601756 0.7772208315076421 -0.5592049102773531 0.5748906964437261
Ni 8.35425939648735 0.6303880231713362 4.168277755398189 -0.322108061156213 -1.312709629114978 -0.9808935966423816
Ni 5.097069132732829 7.856509874125415 0.8852584701013473 -1.8798955007152784 -0.7843409874921912 1.4854900755462352
Ni 6.021718654106071 6.636248126227395 8.605505247498543 -0.8736806516992889 0.20429497209977074 0.553232237633686
Ni 4.892326658579021 2.5281367752711965 11.25639783626924 1.2063065816676901 -0.6937096010568634 0.9898104395160373
Ni 9.070145407609347 6.508547193452195 2.6618758695288633 -0.21642209438060792 -0.1372925379372926 0.5896267171023201
Ni 5.737471046035085 7.234202623261629 5.645529961276652 0.3963450653939174 -1.0969742763887493 2.1493018606024017
Ni 4.537550454921052 0.696450059412527 4.30258696838892 -0.9560600825384696 0.20564351570786518 -0.14081237816509298
Ni 0.9314947217907581 6.022520973515184 0.8679245952437541 -0.4322165824795459 1.8521468698471006 0.15100397398611412
Ni 4.548018363447011 8.256650161079829 9.979159139556753 -2.2858613770284117 -3.133903245113674 -0.3160122326711203
Ni 9.04105424974009 2.2896968859346356 8.862837399156751 0.19687194016282222 -0.4388402584436507 0.4257276323210926
Ni 2.7749302255144057 2.6554790240752633 13.197199047862114 2.9493206638411658 0.4475874085086614 -0.5627126663202954
Ni 9.315957196457877 9.344557523629792 7.329178363196883 -1.065993768846835 -0.3253599924346074 -2.681646456153801
Ni 4.102995384841618 1.3170686638964264 9.113621680531407 0.2640530659950097 1.1300152660041183 -0.6957438578780727
Ni 1.2108604522335875 3.2644866508515147 4.8743348818059555 -1.8918087072130967 0.6007382536344493 0.9575497797101187
Ni 2.951393300259942 5.117240386583122 0.7264237686318077 1.2975051534603979 -1.01482521639282 0.7804835614193139
Ni 4.61552646243498 4.82888679094785 13.115249199510107 0.3345149194609981 -1.4980414298486846 -0.8518481292052297
Ni 3.3057636246874185 3.6645042301315947 6.989951109687527 -0.1231635547350782 -1.3245341325537319 -0.6071768101709415
Ni 6.4330914127880705 9.40133342063939 5.4030624285063436 0.5077077708393257 0.4051441517427861 0.6563152195688051
Ni 1.8087677540084612 8.542105967790421 0.01022532489285048 -0.23173712747112346 0.6061234292057626 0.49457277611926437
Ni 6.7374442013462446 8.876389989834452 8.90810992365004 1.626737741476534 0.5000967912612871 -0.45191843178384755
Ni 6.237476501794409 7.662310820912541 12.948764146498377 1.735970802173449 -0.6447249436280446 -2.7983316022533873
P 9.074194760862401 4.346655069863351 11.958338592155663 -0.11824657704943507 0.7484270472044013 0.19159500803459908
P 8.910181795535925 1.2721010207786017 10.903300839939288 0.06494298053028814 -0.9500038490420606 0.4121990017070385
P 6.139300923274573 2.8823655139205946 13.417825558505989 -0.8041186843397506 -1.2034338881055855 -1.0076698362949612
P 2.6137772929051226 1.8627591307158413 5.58329357275915 2.2701933314738514 0.20931479391186533 0.08897431044787903
P 9.104239262970719 7.841879343723939 13.726825192300707 1.1836829307309034 -1.8603926547956604 -0.49305196859936373
P 2.3706745119438337 8.047065453315726 3.6353224573643677 -1.2339238291643266 1.2506084889088591 1.7747682346566211
P 7.08570745921259 6.979112246423002 10.497125223217965 0.4899000532339435 -0.12996695081015683 -0.8370874259562874
P 8.413177958271872 7.329291631819347 6.389578327563708 -0.7275548317410825 1.1941959144470853 -0.7027349444839252
