# total energy = -381173.3262407396 ev
CRYSTAL
PRIMVEC
9.13971373361812 0.00000000000000 0.00000000000000

0.00000000000000 9.13971373361812 0.00000000000000

0.00000000000000 0.00000000000000 13.37689490557418

PRIMCOORD
 96 1
Ni 1.4226055908162771 3.5637023619349555 11.633658349620134 0.3937173979630832 0.9567157138445974 -0.44002605122163574
Ni -0.15502965321484508 7.486860527438237 9.492993886963628 2.8054743839457554 1.799903339161352 -0.44856622748216296
Ni 1.699264727179093 7.634649699390227 2.006815182173977 0.4517297128118091 -0.42180618577949935 0.18437817857118569
Ni 3.5517293368726732 5.337464896200052 6.465067031109615 0.9212563445957231 0.8534177876851947 0.5129047416592328
Ni 6.875669587006977 2.6902199152156183 8.34224634085733 2.123395168038969 0.10891321546365114 -0.17248939755339973
Ni 5.171917260357974 1.2447650399293368 11.191913132961535 -0.7686374607140053 2.2876804325150215 0.19932477257868897
Ni 4.103557836250862 3.5408987760338912 10.976023039603763 0.227369337420731 -0.2730580977070975 -1.6108912613625805
Ni 7.820834808965612 4.109334135364878 10.828369135415835 -0.8290038776172046 -1.781056638768494 -0.1714380734707499
Ni 1.7514159340534317 8.019797238416624 11.039991896405988 0.2975463126564489 0.29705214662884966 -0.3270571776313722
Ni 4.743136727707655 0.07718488293967567 -0.04461459888475226 0.15633104262598238 0.532279803751735 1.3862691476696836
Ni 6.752511943713651 0.5094640980280418 1.5993548598769296 -0.7097008342787972 -2.0203373829148306 1.4989163762544702
Ni 0.39543977072306713 0.6969159719344447 12.679142898058636 -0.8007160864161049 1.3884414727306538 -2.7985840845838257
Ni 2.0510888697344365 3.672857963705062 6.568671170724889 -0.596119009694883 -1.331332386422488 0.7786213113995945
Ni 0.4533380296273013 2.7798805074759163 2.3261887709250195 1.4942927614395296 0.4463414519167023 -0.8032846184742295
Ni 8.682344230622666 3.9320876658741586 13.185069926850721 -0.47630688793054093 0.48720065202490925 -0.08120957890079562
Ni 3.528267691578873 1.2132238876469423 7.006617008361816 2.2919494922040204 -1.2073432504623207 -0.7544778813841716
Ni 0.3867095161127677 0.45723154770099006 1.4356086616224673 -0.27398986549274745 1.041398338895658 2.441474567651763
Ni 7.067457341134407 0.27041762581698975 9.37062225905607 0.27933467474442863 0.7942230224925935 1.8550923256286698
Ni 2.6422272781148206 7.385693035518845 8.955161945280386 -0.8287151427321922 -0.6347017550640877 -0.9315690393756407
Ni 8.419312407517761 5.479815938448181 8.755713283055853 -1.0660261647466673 -1.7866338757459552 -1.1808056091831083
Ni 4.694458612072758 1.0912087085771176 2.5319118466650172 1.383010788633386 -0.42213348721193106 -2.3439210001753055
Ni 0.807173823187384 3.7321564267616183 8.993888740542907 0.21928578908164814 -0.22978771705423653 0.3802417320741516
Ni -0.03384436015697088 1.945013351510887 7.407495822760122 0.5418926442511507 2.4784277478373444 0.4442678572171252
Ni 6.032576688632745 9.050208570875954 7.388460540853851 -0.5115297156885771 -0.7009639686264315 -0.8355805023934576
P 7.355687355152834 7.266364932302691 8.120203392177476 -1.4196130132374518 0.612400777574042 -2.279755778351306
Ni 8.853695584720125 6.122420075168803 1.5038576463916133 0.08554497305135589 -1.5306180782331251 1.0392005599133909
P 4.7241352627424 3.1487136573907315 1.3049518831660867 3.0304842199953743 0.6496599190358165 0.901117664864319
Ni 5.285395946749806 6.565202649342341 5.430390194225425 0.7298695959171881 0.5111124256455003 -0.22705463439378962
P 4.653896562281605 9.08228896627184 5.562126372880168 0.9050578804589897 -0.16550576714671494 -0.6083338065935201
P 3.7292774169183973 8.697324221521203 11.53635421471893 -0.08553031776333657 -0.09700566539278777 -0.6140825361518392
P 2.1338398383710055 2.444983114855953 3.9668642768375055 -1.1005457957900917 -0.48166275292581556 0.4858996738252987
Ni 2.6115635383560742 1.6362646800383962 11.102836568412291 0.18215674543983468 -1.7320555262794428 -0.15616906312682138
Ni 7.1911268083998605 2.6619233613279647 1.1054648341436428 -0.29095220437869895 0.9746319320033859 1.2950512926032665
Ni 1.3555932093226473 5.733945680323572 7.409020327019961 -0.14629345588432224 0.5177422722571923 0.5295999429267266
Ni 5.005738984264525 6.465534070484181 8.147277966331675 0.2264519678127842 1.0788611117278066 -0.1931006460458481
Ni 8.285324203385654 7.969492253727463 0.5482722367432765 -2.5295939862985146 2.6099684708925244 0.3468395024646221
Ni 8.678651786252315 -0.11293213150730853 7.7326210333979555 -0.05399033817352637 -1.0892699657659561 -0.5722332042162209
Ni 6.032558409205169 3.115527356626497 12.483519206054382 0.010589345480072085 -0.3304716026295599 -0.16722737782351196
Ni 1.5975854112875725 4.940326052683795 0.5049399397029809 0.4375768183501948 -0.3199961570195327 -0.064412819058431
Ni 7.300364667594059 4.126544216427686 5.114267601668773 0.2684589083721893 -0.02740924525088828 0.42767344319355377
Ni 6.024999865902491 4.706312820855795 9.304580515166728 -1.3080060529917217 -0.37294494130242223 2.9218795369110775
Ni 5.969329869219773 8.387414806397635 11.348462720579326 -0.00680262474413022 -1.3847347133030279 1.745478484553568
Ni 5.931116725872137 5.407082096123262 12.12187444103383 -0.06097602546274014 0.5942048233913056 -1.0598457469675682
Ni 7.999708147510597 8.253837889385988 2.974191736580215 2.438223664814633 -1.3087853543599073 0.3129289657601062
Ni 3.3646485353460633 4.674936183421585 9.022755612570933 -1.1130246449833927 1.4654884356133278 0.6600263498718053
Ni 8.197720046727657 6.0335089394391215 6.223880951900791 0.3111531048066061 1.5447992548295137 0.7002134636136521
Ni 0.2875993737670544 5.659658086654693 10.890893003468179 -0.14898360112197567 0.8296571949304872 1.0051028468987335
Ni 2.5675101178979056 0.8601137873616271 2.4216731888110328 -1.8473846725717669 -0.29733779619006856 -0.36041004206020505
Ni 6.877415272340485 6.874755615628176 10.120223197150075 -0.39698347030886466 -1.877109196219393 0.23919049842537515
Ni 4.988766535760205 1.9130609121080324 9.017123720934766 -0.43618045222330043 -0.4800337019628249 0.4872397327929609
Ni 1.0219296780640634 8.00349198901883 6.274579858254215 -0.46899184232636654 1.0991455730084554 0.3551361952557755
Ni 0.6023857401678991 3.897603525752028 4.720665827388474 -0.6173678917713303 -0.5564905966699835 0.17607068714675486
Ni 4.175368567483192 1.9322086124938966 4.537442899051779 -1.7724573271352573 -0.06642162195834367 1.423252409762252
Ni 5.902756193987966 2.004531167698355 6.16323072517499 0.48681601499198096 0.2580976197425232 0.3691600203386933
Ni 7.084374951355999 0.945220060241364 12.90836966177586 0.40183077109883697 -1.2000261479756174 -1.3295740089704844
Ni 5.984648029528464 7.441682922184143 2.9906322537420724 -1.8867814292018343 -0.48531269097357704 -0.2658572090832841
P 2.3576897084667467 5.607771931480207 10.816958202751517 1.5487682667795908 -0.23872461453255017 0.14514494410217585
Ni 3.5590868064720147 5.641241563371869 1.8245144509584916 0.3281311274218413 -1.8179365425139788 -2.8226699218884352
P 7.445786653674957 1.776952294377109 11.054117324065345 0.39279514325913 0.849953226175362 -1.5982380913749443
Ni 2.6949177281026513 8.514301452916465 4.473019798474291 0.9576066010899831 0.8361340609040826 0.628434433998137
P 8.015327918374291 1.6017622604886892 2.9620989812673097 -0.17220451932312925 -0.7366128281782927 0.7704477744498667
P 1.3334751019556828 2.4148403387831223 13.510931798419868 -0.008556631320759457 0.7872262794597862 0.8225961743186478
P 7.779706096919604 6.20869897332754 12.841993404361876 0.40290549222025446 -0.9391435092887892 -0.41653439585759877
Ni 1.3801424805572202 5.228903375826166 2.9711418140891586 -0.6692159867908734 0.6143959536271999 -1.2251319419043094
Ni 1.6746423382342162 6.235935320415786 5.0623521994101655 -0.313210501556267 0.035300989294139204 -0.040876169389071536
Ni 3.943877896660681 4.324784608489447 13.007706469023516 -0.5003233054497964 2.375390017317864 1.1881101132643215
Ni 2.3204819336357914 9.023136738635893 -0.016122455122035275 1.509609080081626 -0.013953891076930808 0.23701200271681763
Ni 6.319618539858731 4.748200129146208 7.21561758546619 0.22724566735867313 -0.08222130799476163 -2.468380133793355
Ni 6.109414262448477 2.7160030478115718 3.5893822157651045 0.7244900767728297 0.6730438451773957 -1.2871124973721642
Ni 3.378047355759274 7.741191343016964 6.633441580426322 0.13788312033343997 -0.17185433507256212 0.736781492545673
Ni 6.562223102647453 4.9662005824176285 1.1694921851141111 -0.6458662563213392 0.11575466386551678 -1.039096687345675
Ni 7.5502444425580295 8.426898369961803 5.5280818529912406 1.4264146095403176 -2.305009410711772 1.2338361545465266
Ni 6.375672404520547 0.4273830704121336 4.138851755014609 -2.1630631760525523 0.20919600894581392 -0.4733274935872429
Ni 3.5520309474276774 6.729973409512438 3.55547204966886 0.7346613608788767 1.1626633910564428 2.569914540294432
Ni 5.949405293161928 7.277506243410266 0.3446714025448532 -0.04054732529474307 -0.2208006830642778 0.5582780275877095
Ni 3.5190457203667784 2.171422341467269 13.27730426251372 -0.7208041432808101 -1.8947492778986594 -0.30902680249222264
Ni 2.7855928285934177 3.4052288645647915 2.1415610685791093 0.23344408285990118 -0.16400090046641433 -0.7951969563700886
Ni 4.4023533594082185 6.701302127359478 10.470871972512281 -0.8631224165674684 -0.9766535904191049 1.005967508891874
Ni 1.6481188888214349 1.3268853683145334 5.839964532321637 -0.9041693072064492 0.05542604217878841 -0.7616497165422624
Ni 0.5820937476157775 0.9233944237156155 9.892467927352719 -0.5121735199201631 -0.062344366565176494 -0.3377028302706765
Ni 3.4583854399558103 6.699986008574005 13.067915247573357 0.11020005259587473 0.9042094164157654 -0.8070733960927003
Ni 3.113982744996324 4.481887148791411 4.361054648685752 0.8984357471567816 -1.1461178279929358 -0.3791150746688761
Ni 4.523792736509399 8.790942309851706 9.260342472490041 -0.14762785842502962 0.04150917498738012 0.2848273224278836
Ni 4.324610953927475 3.397935372961966 7.516450350826893 1.181002812795579 0.15581347955961553 -1.6807805301545506
Ni 8.148173658282898 1.4962716839475718 5.208093161502265 0.6911711509057258 1.3307415469160244 -0.006557598612859673
Ni 2.6851839329184295 2.201647374964191 8.740449961029888 -1.6330269169193552 0.9406049243256639 1.765564713780482
Ni 0.8972658099384758 7.1219391750246865 -0.45488172728609483 1.3983589889546821 -1.9947273956562097 0.9159225910876354
Ni 7.91813620195268 4.264471637202422 2.884004696805728 0.4749948539873367 1.0761460267894887 0.2818906083970629
P 8.126220065764118 6.185310445744044 4.110813855027156 -0.06643344903288557 0.37942206438633364 -1.6202709028052678
Ni 5.4442350326714894 5.144525538135333 3.2645915186519128 0.21262277523917572 -1.0554396474800727 0.8422556004207882
P 5.139425577841628 3.925945778208621 5.2255235096673625 -0.6110018403439865 0.7630445400072601 0.9425743893472089
Ni 0.7229769518295532 0.2230108443700029 3.993284447484483 -1.1981674975003236 0.45854467885111355 -0.6598528004084184
P 4.066295223137178 7.971228799347182 1.756921697639324 -0.10748548187818907 0.19494464123312236 -0.3474347128464597
P 8.885337273854189 4.090625141240839 6.835152321813386 0.36527225524851287 -0.9915181662357633 1.0276591349326945
P 1.974470649049617 0.18527022422520684 8.152347765569878 -1.3347601811571141 -0.548831794573145 -0.06993477731792472
Ni 8.489953255385227 8.20310333814879 11.59787454219735 -1.8938488775715774 -0.20424380714686116 -1.115848230475117
