# total energy = -381165.29693851795 ev
CRYSTAL
PRIMVEC
9.31763533728334 0.00000000000000 0.00000000000000
0.00000000000000 9.31763533728334 0.00000000000000
0.00000000000000 0.00000000000000 13.63730115713559
PRIMCOORD
 96 1
Ni 6.786453109182109 4.9870406906275235 5.2273685953354745 3.528717475685361 -0.5450278474460226 2.516178998444189
Ni 0.22306884877410332 4.560758873981454 3.8504513064261934 0.4889909111561127 0.507514680991913 -0.39586889708844725
Ni 6.628938483818135 8.877125490721165 3.9472624693362337 -0.454364836441811 0.5110913425995778 -0.42641591663736883
Ni 2.955581881652092 4.787084236305673 6.902520097278614 -1.4116117401995303 0.16479228601945814 0.7860757107951107
Ni 2.3449879204141992 7.346433675271992 0.6278259960292638 0.24060023428870825 0.9242982167458403 1.7501800037942956
Ni 7.812567018252383 8.49897857822359 9.729423571406212 -0.3642623259267597 -0.3248015488279761 0.9721024807133128
Ni 6.005989338124009 4.612145632862395 0.44545937369570754 0.1186713232916795 -0.047637913592937314 1.4573637496236642
Ni 9.068500402898074 5.273539341955028 9.575731040057283 -2.900942015427462 -1.2968474652717408 0.9806526842761693
Ni 8.567267527604988 6.907628956733631 4.119555796107472 0.18987391157843428 -0.7970895454071112 -0.8490708235704088
Ni 5.12974027580642 8.641035246564266 11.903795339409749 -0.41948705072801945 0.9348921902116029 0.7382596197530963
Ni 2.432834586366967 3.0197151656734005 8.770420862610802 1.4258029440982478 0.14546993154176235 -1.363846557000109
Ni 2.379789288396124 8.623620586120298 11.822094585724953 0.8167700545551739 -0.5780562386559012 -0.7731371483565718
Ni 7.670538302817715 1.3185572117424829 11.165526479973106 1.0319384790343389 0.762494581041061 -2.288579290180207
Ni 2.5614738598230464 7.791881867805295 7.4111232221228915 -0.8724606632492587 -2.631138162991604 0.32455138049038296
Ni 7.6611461263984975 0.6244026968066242 5.867503187644289 2.419321428593492 1.384498428922506 -0.08083754027335756
Ni 5.742244352288301 2.448404355014302 11.89749475439519 0.20192827163980706 1.778459310354963 -0.5873276366554981
Ni 6.536134835866335 5.385965929925552 9.7815315152622 1.2757654477904607 -0.5907495178528536 0.35639295048101205
Ni 2.3959553857049967 7.683955697702313 3.3217192939644185 -0.4211700948573972 0.034727376178856316 -0.8102677346602819
Ni 8.035426220231415 9.315436374586689 12.8369416101463 0.5597854653711715 -0.17384385469876512 0.29521200809631737
Ni 0.030903801120656146 8.620433954835207 7.725503965431417 0.08762293862630716 -0.6890985846474131 -0.1811758695838041
Ni 0.7622161140150473 1.7906724766089241 1.1588762361627665 -2.1516371936037975 -0.284576125649026 0.09380052819192879
Ni 1.9083542109092488 5.313772891338148 9.760107476332927 2.0215954236916476 -1.0226112880961422 -0.2506686742683038
Ni 4.600535859233084 4.889615495548806 5.372742341855955 -1.3940004548756701 0.47745668526426804 0.24702027888243908
Ni 0.5818574420965122 7.3419146221337765 9.985136755581834 1.1501017523413484 0.3232601724827852 -0.14182307881779446
P 0.6525754990101446 0.5513747980930671 6.032500805947026 -1.3014733940795262 0.2545523255934261 -0.5453577199816156
Ni 6.202078973781201 6.7356813142333785 3.9480535365763045 -1.1607800579908008 -0.5170305909021482 -0.33689344699550366
P 5.516533953896293 6.937491977987197 6.580747673857622 2.7870110350342454 -2.1937474925102864 -0.12468461936529494
Ni 7.437634689945909 2.432592327848217 0.7536271177618376 0.116746852575457 0.7156681076058254 1.2803173288272014
P 1.8755468168893406 3.2807487196261795 13.107724205951687 -0.6352499142580736 0.09857352410053992 1.3505989479615834
P 2.1197527214243532 5.59735512280532 4.396857009594291 0.7334814816381626 -0.40050716719140705 0.24979527052441494
P 0.9294117624936717 6.132727813971438 7.970921162560178 1.1153309245190663 0.8408024129140292 0.1310154466793292
Ni 8.36435738288146 3.9779687365877554 7.719435389536738 -1.1179717045760231 0.15998432310785352 -0.22488770864945784
Ni 5.728761733956348 1.041515960281552 2.0293120257938964 -0.9430325599305501 0.5397791974525736 0.14801558078175153
Ni 0.6613378032806136 4.990497533337375 12.041996370248171 2.4158149581021298 0.06691990175100088 -1.2568061330791387
Ni 4.330725092793297 5.0732381351257265 9.100907138598512 -1.0044688128591603 0.05439220159763536 -0.1123608076926194
Ni 4.392668732510523 8.266419717859234 2.111285786194052 0.3738864792800851 -0.20933304874431044 0.5461071965531304
Ni 7.907196922730143 1.2576851000889575 8.364302408832975 0.5985553870505176 0.9203780557558278 0.5798125592253757
Ni 6.731441790155259 7.450800508676421 -0.09122989934346079 0.3288975732742207 0.7009428855805089 2.2983988473737904
Ni 8.212601056155458 5.29373065772928 13.2045623900042 -1.5833344347902343 0.18754577766588992 2.98951857621629
Ni 4.08154357098858 7.77352612619234 5.516519977443287 -1.8152263426716675 0.07027879092090476 -2.0079595780757677
Ni 2.405543232466282 0.6096258589264274 7.2873505496030795 0.30923506184828675 1.6039469688342634 0.5224301646511648
Ni 0.17752611077623098 9.009258877428442 3.7181008188155755 1.247962823755896 -0.9229710132939846 0.1233702714292456
Ni 4.7237056807466224 7.502848819666256 8.40355015239749 0.3524961865297671 -1.4249768486525265 0.4074555734847822
Ni 1.5705153888774854 1.1240515740925001 12.860970859915666 -0.22128070802448987 0.10440761428381373 -1.5079651167202999
Ni 4.422783329918175 3.0530629825428273 1.5590025186556737 0.2491347541222806 0.20790402960726775 -0.5970831733803652
Ni 7.5159960031260935 7.824456320941791 5.9665515147986286 -0.41459115608829883 -2.5429683507228913 -0.6379207762220176
Ni 2.439580554350612 0.3368539479766928 4.894945182961299 0.9801425774089702 -0.18201559187628008 -0.7635600461910979
Ni 3.4408536476137077 8.98265702854266 9.293125296773377 -0.4719817781926258 1.321788965708427 1.4810839760587395
Ni 5.425379527399057 0.33060460995648483 6.018141398129907 -1.8511184285825864 0.13880306104454804 -0.03324642075795564
Ni 2.6417825587885653 0.4539775559203597 1.3561026233310147 0.27681319387415554 -0.6081479158349591 0.8232867726277693
Ni 5.752391257169777 5.5872548061005265 11.956967357221167 -1.457543469734638 -1.3315810120981841 -0.4051441517427861
Ni 3.975042999092086 5.860867167757615 3.107218010882251 0.12340935219729714 0.6027167175170587 0.09727691677630344
Ni 1.2642726682718817 7.493438007976364 5.312287660265506 -0.029431417887239634 -0.39524026236551285 1.2999104204677807
Ni 2.601735362112176 4.956003647321555 1.4607461905049386 -0.7037515586738976 -0.2328362740725732 -0.36289424193463954
Ni 4.649574574009221 6.771004469794149 13.625218218434076 -2.1044651639036855 -0.2587283113479867 1.0337315663790199
Ni 0.3729979872106113 7.634404512982668 12.788078998678024 0.016275340121255845 -0.8168811262117416 -0.035328242987648834
P 0.26408321599842394 -0.16579334436047732 10.995128360229318 -0.40438927585463263 1.0041176001673286 1.47109549738746
Ni 7.805131545253835 5.282353824983382 2.333028735459768 -1.7952956651860115 -0.640366923769665 -0.10075201980909747
P 0.5981903250779089 8.6774206125534 1.3576167390732001 0.14314591139427604 0.5585539069569155 0.14099106983480236
Ni 7.557170633678203 9.093462347964627 1.4591090819763108 1.0771693258476802 -1.1048433947241811 0.556103902754526
P 7.885850220174161 3.212785887481558 3.4063933050851 -1.200907522139306 2.091809679923204 -0.683169877867804
P 4.005362584477142 1.1075034537348298 3.471620479494917 -0.2254955174367858 0.42615674943871124 -0.4926143668413129
P 2.6236131698823395 6.317571063777443 12.518796542161818 -1.0031876321538915 -0.5137526914818249 0.07023688193937581
Ni 0.2619438869251576 4.014959748873764 1.0258632646797219 0.5717732338606669 0.5518196735568754 0.2985248745196343
Ni 3.586674640630341 2.2265700929222887 6.052711688755486 1.183865993275987 0.7746263313075885 -0.5543722647754001
Ni 0.6303790281114721 2.3414565366216555 7.37319765101263 0.5238594408985235 -0.8016206005082452 -1.5317856161786652
Ni 1.5426183886799263 1.7666982008880425 3.203647150743494 0.4065703426663514 0.4858312824812085 0.8536730982291104
Ni 6.604898984649898 8.830481408226515 7.829392804143082 -1.0045896547077409 -0.07550584364779898 0.07534797791369605
Ni 3.674046107180947 1.3919429076529624 11.039817602830365 0.30039355229725684 -0.960461811150591 -0.9586517545250458
Ni 6.493189854600287 2.4256134189811593 6.828851145253904 -0.6793749296017461 0.6124637696014936 0.1652023769736832
Ni 1.3548866719195982 0.8966733189752536 9.442126398730368 0.15664703120450443 -0.8968048964215781 0.4863593870705365
Ni 8.063006420827532 1.1959464483491358 3.2268853332727896 0.01785065502817571 1.5388286390683756 -0.8615877250904969
Ni 3.4655919694321846 6.754857007755949 10.717459100146707 1.6325430353044013 0.6686200050780872 -1.3205931456281128
Ni 3.7962189417134766 4.45095985917583 13.10296475782179 -0.3073183044415481 -0.7506749626983137 -0.7162512338028051
Ni 0.12259678694034229 6.5362373298550365 1.4082152260046716 0.7030596748131956 0.3918847156297186 0.2041273361736549
Ni 0.08421837875272489 2.7445094883737653 9.48505647177988 -1.2269695093336805 1.3990632141105583 1.7101841801276485
Ni 9.02463297573371 5.902712668053954 6.325471486779283 -0.04464437818225214 -0.7756522014689416 -1.2501953126308403
Ni 7.441417649892538 6.499181094121672 7.990354022818037 0.12500832125330083 0.7209728076481906 -0.14631171071676738
Ni 4.544797764649985 1.5472865239835258 8.044767149656282 0.10825141350993615 -0.34732441252084056 0.7590385041716605
Ni 3.9774096784675637 1.554023174331834 13.320615401647702 0.2116403567212484 -0.284749932222729 0.6633803539457026
Ni 5.742663645878445 4.284565527336147 3.4886941144855674 0.1955187685690375 -1.4997206173233204 -2.6621726636999057
Ni 7.539979596482312 6.839740665671703 11.775605175976889 2.7054834106723984 1.3452754788661412 -4.828475172625361
Ni 1.9655644918755193 2.9351483073590896 10.965535550400512 -0.9062197619775748 0.7026434132113833 1.2691962792133753
Ni 8.861919109851954 2.702272647393293 12.598630041725174 0.9097372882125301 0.7500990355901855 -0.36636317431984644
Ni 6.029115709029267 4.627268155013577 7.592840405273492 -0.6050409947748612 0.1563868355645823 -1.4358461872668626
Ni 1.6941417745225138 3.2093942682190626 5.191884244683382 -0.483722977888954 0.38255161115425085 0.7570428138978704
Ni 3.274701574292774 3.520342394669612 3.434349938148813 -0.02489547769009906 -0.12238990979384727 0.9750247965664306
Ni 8.404954320042703 2.7874265167338046 5.44418810608937 0.7014781892586887 0.7847099407958356 -0.11275547202787677
P 6.1680602871675445 1.0192747647332643 13.458352414246367 -0.6952121537443189 -1.0440776855000342 0.0697440014633573
Ni 6.110775465118581 1.9090809864654978 4.389356313148388 -0.8360283885641537 0.8978467074225311 -0.1514361764275263
P 7.591860190036089 4.193914253147084 11.549498778083079 -0.7428552095435786 -0.3562577104547284 -1.4432795036164563
Ni 6.200383164149954 2.790287030782118 9.289483964883862 0.33151264229956456 1.950640175529008 0.2410859156758751
P 6.095941789662832 6.8863102070836595 1.8258847523091901 -0.022883332356076723 -0.7964452269548928 0.32582021990047755
P 4.061967219146538 3.489920315295854 10.432208080190762 0.34714212130670535 -0.672940486830312 0.17831731708908646
P 5.720972190815012 7.379893303765457 10.322945761180522 0.736505356066151 -0.15909652118626147 -0.014653745357432827
Ni 5.867957888248712 0.7111144747754035 9.956839097064805 -1.2571681444042477 -1.9121127088777712 -0.4180348916625253
