# total energy = -340890.27115206525 ev
CRYSTAL
PRIMVEC
9.09388723561562 0.00000000000000 0.00000000000000
0.00000000000000 9.09388723561562 0.00000000000000
0.00000000000000 0.00000000000000 13.30982319353587
PRIMCOORD
 96 1
Ni 6.470846263433635 1.9622607580965523 11.31534631526271 -0.31594949775398484 0.02818314730243533 0.10289477718371311
Ni 4.93507061982147 0.5911990529169412 5.819999496021096 -1.290153855301649 -1.386885955318076 -0.7373957290909043
Ni 2.644129502374642 1.7317307215879758 4.653992212191279 1.2187926299498428 -0.8132139617727996 0.045610341639947254
Ni 3.7006663927731793 4.4996916838102425 4.546861675895844 -0.9304266982410815 0.042781356831584384 0.05114489830493127
Ni 3.7808835703685304 2.9926436293629926 2.4689721440633328 -0.22342372250942164 -0.2753155262827065 0.6544941071996664
Ni 5.100079200194177 5.069432800863451 2.171577484302819 0.04952047532763084 -0.9579662984222469 0.31739780016473723
Ni 5.3174049127181195 4.744626437392965 11.385648427816434 -0.6857898319891544 -0.18464814440312072 0.33569762691518956
Ni 6.061630440441546 8.049645086640359 12.062852008042102 -0.9307447437021324 -0.4071167020881246 -0.3304800872699921
Ni 2.3339370153802617 6.706859913828391 0.10159508725311693 -3.2473418592515046 -1.4722260114474777 -0.09939473445025462
Ni 3.0771440277550117 1.7946240443687773 0.33412032257865515 -0.8713214074384928 0.16499643161046423 -1.0274015103959337
Ni 8.20732399405741 9.0322486753894 6.861040402900477 -0.19435457305760723 0.06997385808597627 0.41361902198301664
Ni 8.439163550299998 2.340457332389202 1.3409382043537865 1.334193767130683 0.5751071833299064 -0.7916650319574302
Ni 7.353644441899378 0.5708260177772898 4.677284385071335 -1.00055713650958 -0.15300557779717522 -0.46418130831160054
Ni 0.7235833135273396 7.333756110939051 1.9274220768395758 1.459020311390481 -1.2908418825076093 0.5074635160390035
Ni 7.704795796129837 3.8768513603202073 3.7294121697121776 1.3601871058706512 0.698773388733016 0.009139500407422969
Ni 7.680169550020755 3.636663615773283 12.445123553118163 0.4574272774172186 1.817701029464405 0.7782166197620081
Ni 8.612711290604917 7.695429092476826 8.97047481010344 -0.3863987528144829 -0.7514563209490284 -0.03803895705059255
Ni 7.114247865525086 0.5261595727942848 0.09047235401234217 -0.10622821243232028 0.4077008567263688 1.4399105871442235
Ni 1.9454370670692993 6.398549861451655 9.102947281418142 0.5165333395507556 0.8931091927375456 -0.055197728218066226
Ni 8.984314796792292 4.955440926795008 1.43123231818011 1.4540475407662377 -0.40590982626421707 -0.6269964160000299
Ni 6.495190599044422 1.860900293129113 6.794944213103568 0.7855707461342342 0.6974852660492117 1.8485478396419324
Ni 3.51526931765285 4.448884136907938 0.1700074900795615 0.22457172007093582 -0.1344967203597103 -0.0643264299922118
Ni 6.1258332829563615 5.6325899436984255 4.333971052082166 -1.3071815002078973 0.2821700873106947 2.05320430884618
Ni 5.432851808713243 2.998636500923511 8.894968265995718 0.1035547793652152 -0.5844343742681031 0.4763238572114054
P 0.5218727144427999 5.726047820826577 12.444631573829204 -0.43155349497425033 0.06578116016086737 -0.3133567973261442
P 4.360373334330504 6.336093045248858 12.582361221242747 0.2024345218522643 0.12082307952735966 -1.535625815860362
P 2.4771748301749987 8.579882358384168 1.1930888794401735 -0.5074897412912485 0.2869855064214671 0.0403956302082272
P 6.264724219745138 7.675067879390329 5.688831088108181 0.12080765290839195 0.666008278486853 0.6078000455772371
P 5.031256663062148 1.0014097471513974 12.775912784873423 -0.491005113372664 0.10499716823869659 -0.786254145354504
P 3.9742923599726487 6.35860041567721 7.959473740289099 1.1790644581222856 0.5438196860705343 1.2522843339493852
P 4.774199758052762 1.344240194738649 3.7008628207332808 -0.0808442251415769 0.3535691078789718 0.3906156191093079
P 0.15611294006845877 5.841649312901411 3.6869937336058953 0.7050777336844889 -1.0303557079282513 -1.100630385084098
Ni 0.6411026674472947 -0.14238753635633278 4.51345437245924 1.037835047024432 0.5892834748302883 0.5481694783987978
Ni 1.900076758505008 6.74688211069917 4.632230540500351 0.4107949222706603 -0.5853296323888628 -0.5031744017453463
Ni 5.95180356663823 5.694264685615631 9.090449552456654 -0.22491573367391587 0.05263202437341903 0.12542843950985497
Ni 8.851207572162073 2.5065026158846697 10.219281935448466 -0.4650865937346893 -0.07569533395078576 -0.04326600977748678
Ni 2.6109459085592652 5.247609329672624 6.863170191245657 -1.2541198444962274 -0.6358101576369178 -1.0495695618525407
Ni 0.6976166284683025 0.5057037832825534 9.254692427540444 0.7086186569582118 0.4280876479128369 -0.6767387775304797
Ni 1.7703615537413657 1.1928906327026634 11.485099176505104 -0.124294840126044 0.7336192927676075 -0.2062045304176578
Ni 4.163272426587431 7.0868661716423516 1.2857383100103128 2.028614278211642 0.8419270134367758 1.810576502604482
Ni 5.577881119255206 8.112165560052448 7.823088169380327 0.20395044427615844 -0.9738752563430194 0.2641749362848547
Ni 5.542260363712639 3.049007541247811 4.991023488012001 -0.41915589264084585 -0.3581541561464929 -1.2145433677551856
Ni 0.8527274221847596 7.305346807820597 6.685431078403193 0.17195640786806515 0.7418547933035223 0.8620623507340702
Ni 5.060884547044197 4.723228521183707 6.688518453053869 0.7688878861619146 -0.04449294020605241 0.7524598225128782
Ni 1.0839276781683136 7.690909430617072 11.310168255981134 -0.44064337309066043 -0.7554127344936151 0.3295868860317614
Ni 4.6239596502358715 0.6298035127979099 10.226309691354338 -0.3475635251148402 -0.7784688449821303 1.1964438299409976
Ni 8.116330560317573 7.179569256146038 4.921174251032959 0.9295458382980248 0.2571843638996345 0.05550651770773666
Ni 7.2079785592644905 6.148777159962718 7.1821264571821795 0.6099461453859624 0.3019601254534284 -1.2560461149846627
Ni 2.3884548681956033 5.345223113178859 2.2733708182934462 -0.24180351056819002 0.6315120444821962 0.8247353321488375
Ni 2.5364487859131803 5.486669432226369 11.363048299740255 0.4748228471858468 -0.642874263572551 -0.573704903665741
Ni 1.3459043760672906 3.380916230497911 3.5313091156171037 -0.8618512631645285 1.0556862162732399 0.5410405806635005
Ni 1.7933872757310982 1.1991199453262678 2.303783504727199 -0.9030642470677286 0.943220250461324 0.6591120655876519
Ni 1.0723420660771132 3.4444370314845933 8.095260933430524 -0.5911058727510078 0.9822691368336697 0.26819588451878973
Ni 3.6609988574970287 2.585401179858966 6.949444806999523 1.1647207878061037 1.017882772272221 -1.948925506830747
Ni 4.186843781799668 7.008686024744354 5.720535106501862 -0.1377414525492531 0.5282472855535741 0.14236326759198062
Ni 0.5450239320737085 0.2565740196074684 0.32321948018169927 0.5282020341379355 -0.046219693089172016 -0.5692260419587809
P 0.11511678789550756 5.810502749783388 8.143415793482747 0.06327433457861362 -1.0654996028192358 -0.48639332563226556
P 8.393521331237414 1.9387985295288157 8.008893560028831 1.2984009258017897 -1.714896498001653 -0.3628153090675881
P 2.170910902382658 3.398312836408795 10.266771122969233 -1.0792591184971736 0.4255898211916477 1.8731196154440257
P 3.870121883909306 6.443446381776817 3.5583416042374347 0.9734057729057687 -0.8237940512814909 -0.25113558660239327
P 7.0434155793568305 3.950530033132534 10.302921142737633 -0.4673969870354208 0.5560151996954618 0.012859886681803658
P 6.751474523655259 7.769135046950279 9.988609124913333 -1.1583382813185277 -0.40074627978540656 0.15915359967644205
P 2.6696651371879 8.782184969515127 5.776276996513026 -1.5710520178784555 0.022062122006362 -0.4361254306156489
P 7.009140719096442 4.136972905262666 1.250226681112246 -0.5080888083278282 -0.7281608407561976 1.4955598010774114
Ni 5.333928505472994 2.903450785257425 0.5953094898598159 0.6706311219708451 -0.18757148869750276 -0.8337853581662479
Ni 1.4459280396395917 1.4217655817696397 6.7773084379634865 -0.1588545803787845 -1.8012781080216913 0.9477140245666192
Ni 6.939508826017698 0.799147149123423 9.245628550325925 -0.1474363112395138 -0.5720048902554987 -0.934756693075003
Ni 2.8134303974310586 2.0105947677234988 8.891986380434727 0.10419986914838184 -2.1390765833299676 1.6020348394132151
Ni 6.560566552987623 2.1702197669674845 2.6606603702391505 -1.2420207472398481 -0.8547989843034375 0.2215776704396184
Ni 4.330354413205659 7.022435981951493 10.264935067175504 -0.37236721442208126 0.6841672087840669 0.14912089803078837
Ni 8.275528146870597 7.310075629082313 0.06144557596375343 0.5090663417497491 0.2766273031155946 -0.4333131579778344
Ni 7.627124906906179 3.954031179643611 8.211428974668058 0.6605505978063914 0.4042805181909102 -0.3985032493875008
Ni 3.3504608027950615 8.470164611225353 12.417758228232103 1.4121143908675615 1.341717586311554 -0.8644195381123371
Ni 0.4030692647405634 4.783839278317027 10.182214342477554 -0.4385998602980704 0.8417264673901955 0.39179138458496393
Ni 8.567241855396125 2.252055656456269 5.656089457203033 1.1375791943943054 1.2675353465711847 -0.3220052170297616
Ni 4.021689699234294 2.742043384153255 11.500857973359768 -0.7990865212324819 -0.03833231992129527 -0.29685442879574686
Ni 1.3111384459066482 3.5312563710722613 12.491627872672307 -0.6055922392926409 0.06691090288993637 -0.210705760722121
Ni 2.8529433366274994 8.51173276889323 8.081791067944271 0.589692537343249 -0.1511528408591526 -1.0985318506838566
Ni 5.637500642700974 8.286422623546624 3.6138834287336783 -0.13466692738898742 -0.5390657163253167 -0.2213007626291479
Ni 3.125814511202503 8.506158216136633 3.4129849137619677 -0.429911331385137 -0.0903915025103798 1.101742130091038
Ni 3.5727154020956378 4.452676287804351 9.078351045136298 0.7051816062522048 0.34642246953186145 0.058515993958021796
Ni 7.406870962754789 6.000719585035848 11.287741821147453 0.9859661260692825 0.45730077914168343 -0.3283519851833958
Ni 8.383399834959937 8.850507342859858 2.5017938011744474 -1.9406329278046515 1.380282076848313 -0.22102385481867742
Ni 4.401177605486874 0.46859799598606644 1.768888344040601 1.5711103819202168 0.3624957209446402 -1.267811740161023
Ni 6.380307524045888 5.93070574870135 0.254203243255682 -0.8007726506856532 0.3117038351037535 -0.2817345424351729
Ni 8.283221575307925 9.13644643311387 11.187838196884105 -0.35642277527768296 -0.3966317433964008 0.22990573068933956
Ni 0.2609636388825252 4.994408232768944 5.946642785742032 -0.8509387300170829 -0.26317863380985645 -0.3677392287317667
Ni 7.404633866542517 6.331291472890809 2.5867907257989464 0.23427840583573845 0.001014557307443414 -0.5231171634158605
P 8.963144227759079 1.7135338536174174 3.4500788790053005 -0.7304910315512709 -0.31470328405170966 0.1967305294889515
P 1.812484438518791 3.4882877547999525 1.3682762475787205 0.41291788215093406 -1.0219877955795302 -0.4466049899907341
P 4.69019952344804 0.9411627454997479 8.143641321881383 0.6434717879472337 1.8903393217564217 -1.1023350264800307
P 8.743363165733859 1.834127889678176 12.299022073293976 0.7338234383586136 -1.276805459019201 1.1697166983587983
P 6.483723207484766 7.936635352372427 1.5464818768264272 -0.1454043684111496 0.6196042373010168 -1.0731185528170744
P 1.7307394879004243 3.3728408588048295 5.943993736446768 1.262516810310671 0.0664964410603371 -0.9910607669833704
P 7.2498831907529135 3.9834589981107413 5.961709537792818 -1.449710861064097 1.1799401758590196 -0.27445266406177893
P 2.5697960696953084 8.725566428793138 10.16976935806091 0.22227392517569458 -0.30328295802990995 0.7261816055426397
