# total energy = -340866.63882968185 ev
CRYSTAL
PRIMVEC
9.27254514677973 0.00000000000000 0.00000000000000

0.00000000000000 9.27254514677973 0.00000000000000

0.00000000000000 0.00000000000000 13.57130710553919

PRIMCOORD
 96 1
Ni 5.821656236389618 7.543577153495286 11.549507696467812 0.9104772517023482 0.4500664661767733 0.23439641947084147
Ni 5.920139939011463 0.6980872747732487 7.788695031479276 0.5751892015207514 0.35222673491846435 0.3674188692778705
Ni 4.886529325014938 1.9765264633433697 6.1497161039774255 -0.7806298571891911 0.7627036117280735 -0.31840053039763877
Ni 0.13802925341194475 8.424654398870274 8.835368807160545 1.5073696492281459 -0.9074428357513984 -0.2088273127524855
Ni 2.596015935941323 6.1937820205549405 1.0648878362273653 0.5610494196852596 -0.5728201870679425 0.3585125679271761
Ni 5.1381491116966425 8.336797033053308 0.2664373139192264 -0.4084377348923933 -0.15180281573832566 -0.07540505640387658
Ni 2.332953828476701 5.012227947813331 6.100085733022414 -0.7365896882498411 0.22109713125877406 2.7698126688780875
Ni 6.295937651077949 5.522162298814721 10.286181829327248 0.9003661314102752 1.2564238100390555 -1.2622393882795682
Ni 0.8683441862995411 6.06861193283323 7.9859137226980215 -0.41916643416380717 0.3290045311657302 -0.28362636014124704
Ni 1.494799194855458 2.4319104309039994 3.182241079871015 1.0786950184635873 0.6880701433828988 -1.0977679759346384
Ni 7.63064635296983 4.2590005557242865 4.039716915935826 0.42906518133475785 0.24738948929639976 -0.6054300026831637
Ni 3.982548892983707 3.0410795606888357 2.818909377578073 -1.1260791641745058 0.9328412212198451 -0.045798289281037255
Ni 5.2853693119157406 0.16642085957500174 4.429756330182605 0.5972428388866811 -0.8256966676208426 1.5535641455063374
Ni 6.999538381230065 5.297673979402719 7.880247506560416 0.4428871748195146 0.8999642679861661 0.1786219928136988
Ni 2.482668343355932 8.608167341021572 0.9790351946837119 0.2937246249175135 -0.002858809605033786 -1.714814479810808
Ni 3.3685116769662677 7.607140450875264 12.227991883423261 -0.5257767125258945 0.6028846105534907 1.2663351556154965
Ni 7.6963145181113335 2.3243489065265015 9.79342208655448 0.9882713771636916 -1.3332254896801425 -0.21509129138432634
Ni 1.230234935067633 7.347203191144712 5.879375048526912 0.43754827910510447 0.3468266469488156 0.9833567134708935
Ni 6.551071732392333 6.276632211961229 5.531624003941858 -0.624139406167209 -0.45934789147869926 -0.008418305970682277
Ni 0.7622495785734672 8.289330874149135 12.621030966043843 -0.29106533291779546 -0.12187337516874493 0.2058867420669228
Ni 8.583817637313356 1.5594473800244164 2.500282470227268 0.17109560252966663 -2.9203247908294476 1.4957801446183336
Ni 6.022527383164595 2.8857180657797863 13.059994183301015 -0.37773979158790427 -1.413432852568669 4.073066037676172
Ni 4.088089002506524 6.421997903139336 10.478500907659695 -0.8391630775383936 -1.5606102537198414 -1.5131757143869617
Ni 3.356438823109414 3.3561513742080606 7.857745821111547 0.883462413676401 1.079071942187032 1.6365133328060588
P 0.44222158964219344 3.712634374612622 4.555914871223164 0.7642138777250129 -0.37552170089066295 -2.289582277523425
P 7.602198184281022 2.328642094956396 7.5372050604304395 -0.7060398404874421 0.09635877583740825 -0.3962977570957497
P 1.0596108307512244 0.14627996413531524 10.656176782604472 -0.7188475337750717 -0.709178900337056 0.4105241851077769
P 8.260919795641149 3.3759297131302333 11.994633447268196 0.09451580909139852 -1.0495484788066183 -0.441514205731388
P 6.640505430894141 2.217770271940729 1.783012153934005 -0.1913913766642252 0.39893288072575167 -1.0578189463455268
P 6.497513511288503 0.40451014829363446 10.014945973264457 -0.4802265346999214 -0.7827134791910972 -1.6265811612940118
P 1.745278458476954 6.187550870177209 12.668434998895144 -1.0127405659496493 -0.22219859185306892 -0.9369303036875541
P 3.740294376959007 0.5938722119602197 12.815385368048778 2.946504534548609 -2.3154457755537483 -1.2638018476706814
Ni 0.81252068240214 2.782968992363661 10.8554576878768 -2.2518353977919543 -0.15800843032840528 -0.7818531880733308
Ni 3.812814953006974 8.950824976525544 10.247843563922835 -1.0782677011181816 -2.763594455882518 -0.5187881970232032
Ni 5.821878777474537 2.5123961232830236 3.9330594647158117 1.7280420342446756 -0.5264110036757838 -0.07219426277606275
Ni 8.489432399672102 3.508360203747425 1.5944382566098412 0.8756619437953758 2.2949754235145376 -0.9277314107971054
Ni 3.3640144925418634 1.5651221776898498 1.0159343610723166 0.5056683718117936 1.3410714680871225 1.9546318131869047
Ni 1.0356598464868212 4.964761788909157 2.7810866656870545 -0.41571652794199376 0.21287602890056243 0.2952181787439045
Ni 2.376080436224955 2.551572626773966 6.047835868047004 0.08662123683467017 -1.163447063300003 -1.4586271897171204
Ni 4.199702629138588 4.222540907978396 0.7348918612007629 -1.1007275727835948 -0.07329958002509956 0.6242152537104668
Ni 7.315657992357449 8.132244685831964 8.02912471060764 -0.8053440721064195 -1.4631502743984541 0.08049532644259041
Ni 4.59569594466147 5.76548315753799 7.111866921097431 0.3553855922624202 -0.5802365341366716 0.019620859554721048
Ni 6.5466672734199785 3.708637907629285 6.083270899547746 -0.34096581729266434 0.593895519681003 1.2757849881744867
Ni 3.559192296560998 0.833951388879836 7.899437038862074 -0.6227661799687662 0.2612557057555307 0.4655403934426563
Ni 4.668457606884766 1.468659889922685 10.935731966225152 0.701980582816404 2.802635886055696 0.5524290250061002
Ni 7.263676103938462 0.15915211138883617 0.5840071511166661 1.0133889981669257 -0.1420894451053037 0.597634417898145
Ni 1.957805194574562 4.911778465608034 10.682301251464919 1.155049840375243 -0.4782347010808732 -0.1275421434187481
Ni 8.937973228871472 6.003565028220459 11.481298853940151 1.121322880436443 0.3567855579337404 -0.864949185363562
Ni 4.270405786326383 6.813716575322733 4.9127993728351 -0.5000929346065451 1.411933128094691 0.6375129992606375
Ni 5.1191960292977114 5.147672015622133 12.415072900969426 -0.16018281227190476 1.173093071030199 -0.2859730059965527
Ni 2.4716618321976487 1.6357604270612103 10.078867190889348 1.128004663331993 0.04615901505456567 -1.2589689450584125
Ni 6.461879120065855 0.6656064761748058 12.07929085773493 -1.4347418984590903 -0.5698197096787219 0.4848709754504682
Ni 6.26559788316733 4.35800352087761 1.4836424684648541 1.8674822146525902 0.029219558986749678 0.2441380722386376
Ni 5.155210594873764 7.681144634156023 8.73776414182413 0.4785686873815242 0.16353990166959576 -0.07126892274831598
Ni 8.559236119975015 1.222993077262562 12.437655257561579 2.1925159340960305 0.6942163654899528 -0.1213108177970556
Ni 8.173535329629635 8.467521375352788 10.879818518639263 -0.1260601595565829 -0.38985868633862536 0.39950006608313127
P 1.8782189390804185 6.99837004053424 3.8998507713187798 0.3669442436342971 -0.4728610954737857 -1.0545389900426743
P 3.3877707533569628 1.1330401162292765 3.592895216617454 -0.1943229484887234 -0.8802907008166387 0.03764737803912871
P 4.987470252116096 6.260683434208704 1.0029694883667462 -0.7216106983425057 0.6123850938447583 -0.20426077642772564
P 2.94594324688598 5.561412982667302 8.522930396479527 -0.06751562635347082 -0.19539998360298608 0.7688464914010178
P 7.737660797180236 7.349539872536361 12.878505437767958 -0.1769435766700114 0.6956438419650987 0.2691834452430396
P 7.621828162479916 0.03047329256156977 4.554001017892862 -0.36676992283996185 0.2599138470156556 -1.4278590552963282
P 1.4880580544914548 -0.01965965034354924 7.009552730051419 1.5790476344894226 -0.8958407327360959 -0.8101666903060434
P 7.515230982803733 5.890226708180273 2.7320942458421453 0.8767418071231158 1.0516009904602728 -0.9226874206152949
Ni 7.525115515992217 5.060157733977753 13.027505039411887 -1.6681605273976947 -0.317139404297028 0.4686483429440187
Ni 3.339961510280206 3.3096402874599975 12.43333981502319 0.23277379626575392 -0.09814826363766323 -1.3590339661028141
Ni 5.158455985695499 5.535347858096169 3.111262528090633 0.35625128269682516 -0.06847284806041755 0.5166945477189683
Ni 1.9505818818599008 1.4513944107510557 12.752020503136185 -3.5869732740034608 -0.06869164893944299 -0.8457348172186403
Ni 8.512075955062606 7.324049645767936 4.645241008200594 0.09129910192631373 -0.08001967235775251 -1.2593900917562313
Ni 2.925321106350156 7.689350836662411 8.065047477986163 -0.8064804997037078 0.5108769125959266 -1.4069809262957382
Ni 0.7903555903442115 1.0433375139165253 4.927131018703881 0.6160864539557455 -0.6831053431784557 0.6382748171273266
Ni 8.092066747458885 2.1985204680952384 5.169446733526933 -0.8316899090897999 -1.265934577742968 -0.17800647071688697
Ni 6.341039310954859 3.5095099993528396 11.148557278278359 -1.0199841348859402 0.19636106196467473 -2.788954017693229
Ni 1.502745766096106 9.071024980017397 3.03079816256558 0.5227332977138803 -0.18879250558879743 1.4033227607178604
Ni 1.7380366006718828 7.182476425578656 10.100201462896912 -0.04743582488446024 0.7028879251220218 1.3005261996749087
Ni 8.26167087180275 8.119494936175148 2.2553073894394347 2.189155759374546 -0.12763316047065762 0.2844257161140908
Ni 8.94481636723273 4.386442417021212 9.160482787136736 -0.1928023980791389 -0.24701307979358747 0.8105780668118492
Ni 5.5691091951874165 0.4472519454158825 2.216017760896992 -1.473092730323147 1.6888802764435495 -0.8646627644713947
Ni 3.2491091123620404 9.355349033636985 5.6026424276666225 -0.867318714037003 -0.3676692947257797 -0.06850730084277878
Ni 0.21742449447486617 1.2343890353194535 8.047256245501412 -0.37210984699563654 3.077694044911958 1.632600370904898
Ni 5.838115004128416 3.2638153690571015 8.667844514706152 -0.8290799822707787 0.03387634103247069 -0.20698614577868868
Ni 3.0246300654952427 5.102996892824652 4.110572142864983 -0.5188889842671257 -1.2057028866454202 -2.6245193721235056
Ni 6.189933914294884 7.688571942865194 2.8791531037746765 -0.4896203172099955 -1.2593073022344374 1.0773655010188865
Ni 0.27496156472614314 3.605202665867993 6.519669330801226 -1.0342797255730056 0.8319405916480251 3.6269336164464825
Ni 9.227564088167476 5.895845870574477 0.7701618413968568 0.18566552992404153 1.0229948966878057 0.03785075229918643
Ni 0.8975693942765236 3.898678721604873 12.784917639014331 0.5876834773330201 1.347876149713782 2.348065361360982
Ni 8.588713541181573 9.236632637377923 6.484791579267303 -0.7976857842302133 -0.777282537983513 -1.2639003209217585
Ni 3.7644679023083296 7.697232500086624 2.8055420764106076 -0.37864687678320597 0.44150546398063956 -0.5465046891018652
P 1.3185837457804606 2.9926212394477325 8.567538756951533 0.45555782830864766 0.6894947916445674 0.372102905017101
P 2.178519588088147 3.8204091675298337 1.2181064459395496 -0.8683029323271433 -0.658862411470691 0.21145189485952615
P 5.221611291086458 7.9652925094167175 6.442286232047781 0.34073416089783254 0.6216863166410261 1.158963316497036
P 0.5073704922522194 0.20453565663997633 1.2233259616354195 -1.0071489307944848 0.24214469595769267 -1.7341499469146262
P 4.7949258509351695 4.1919229637116295 4.9245931230812845 -0.10366482258051822 0.3301936663778249 0.6108023227386706
P 3.9279428742717166 3.5142575424977776 10.216588595800488 0.6208154840002986 0.2961201217328836 0.057654674398991024
P 8.532419919242281 5.940771352092492 6.334733052960968 0.6462372665075128 -0.3644070790347402 0.37266546238879045
P 8.244127216274972 6.563951297682019 9.368137727983662 0.03616487995633127 -0.4448281005959694 0.2475877213501349
