# total energy = -340892.9067925558 ev
CRYSTAL
PRIMVEC
9.07884855563573 0.00000000000000 0.00000000000000
0.00000000000000 9.07884855563573 0.00000000000000
0.00000000000000 0.00000000000000 13.28781256525136
PRIMCOORD
 96 1
Ni 6.473654661603758 1.9155462143527182 11.331221658755045 0.5004678014474606 0.7661134087405709 0.34567325007066274
Ni 4.623748520855335 0.13434335064345662 5.981176164143796 -0.6866064143531789 0.5392917162931938 0.1129249077262055
Ni 2.342805896772042 1.3997405239302558 4.916663036861532 1.7945572443580902 0.05225921441503258 -0.29725474955795905
Ni 3.4232705606134695 4.56397338328816 5.142050894575333 -0.806962581546449 0.00584745991971251 -0.025925718726826318
Ni 5.198612119824952 4.4995680330601004 2.5090977147755975 0.7627339507453768 0.9576490242921442 0.6189208380807469
Ni 7.355810040834036 6.208706630069299 2.532537485457696 -0.4350669074441475 -0.829370516928004 -0.7264091481724135
Ni 5.257506609101725 4.371637980894386 11.643286189595756 -0.004302226919779688 0.6047856842309455 -0.7153055820600841
Ni 5.6282232239681385 7.904744448902704 12.536811918505427 -0.6739506732623813 0.3451032364998056 -1.0755559586139734
Ni 1.8181846445971914 6.565260241502421 0.42865510141143787 1.007893008049361 -0.07902208433117358 -0.8786367101529836
Ni 2.7119155554796786 1.540562540759608 13.80072197643173 -0.7255046340802731 0.3197724710445009 -0.019087612759070352
Ni 0.2291928030592448 9.16110272076759 4.752811613295712 0.9529660169941782 0.061697477009796976 0.6750043113378762
Ni 8.819511051422971 2.3789124766785816 1.254863893425706 -0.29893907923891744 0.4077077987049043 0.4238787520378119
Ni 6.926071832813885 0.8688466954271603 4.8965588350649405 -1.2498839520380087 -0.5143018791170756 -0.5991086884508262
Ni 0.48703572787133514 7.335872889847171 2.458298834576689 0.9853927700643159 0.6968836279094708 0.16223583814619155
Ni 7.663619315450911 4.096185721813569 3.889315991088798 0.1585200798575012 -1.0386637135733143 -0.7098389025185582
Ni 7.6773556130115335 4.003408970477153 12.6709918498785 0.7623701396480548 -0.5302103228172159 -0.5724244942914206
Ni 7.784340762023015 8.806464746337305 6.983144197225873 0.10259910032016524 -0.03275919670889197 -0.6865971583817981
Ni 6.775181373159199 0.9046028317872093 0.3596640248794329 0.33898426808626136 -0.5316915353484327 0.11842192628503477
Ni 1.752308520935675 6.619787804720595 9.451594092147925 -0.132648611407378 -0.5172069685790125 -1.270205180093864
Ni 9.37845035037849 5.012250599648555 1.3350401111306698 -0.9604895790647329 -1.5413503770489647 0.07759795029013732
Ni 6.605715589770849 2.005399576518929 7.096861312292346 -1.2635035997039723 -0.48772592840076 -1.2698259423775744
Ni 3.450261976771916 4.409197176537673 0.41062087703971295 -0.0053047000423650575 0.3043144846182178 0.39686185712933586
Ni 6.103355673761659 5.672891157873136 4.862169973267106 -0.2721165597294346 0.6482401558701546 -0.9002046661317463
Ni 5.483824140887044 2.825936811966032 9.014438465022005 0.05930609395948496 0.48296116002226497 1.280491906731853
P 0.35474510484087035 5.463560151359411 12.20245064399047 -0.09888591313463614 0.7328669879826153 1.2125263373251567
P 3.95486436832471 6.303399018408552 12.580382219644344 0.031534066052539236 -0.7238843248680308 1.04794848130935
P 2.177362043204814 8.488941103980927 1.4459400595526866 0.45949778679300224 0.5031276076678108 0.0804791284926743
P 6.2498247342676185 7.8290813267148485 5.559460934414671 1.4864519252388724 -0.383107740768037 1.0058541232424612
P 4.6876726921205965 1.1793514801205385 12.695866986485472 0.41554529247145205 -0.47882991146271087 0.03002791382065796
P 3.933492759297807 6.219347040340978 8.205316973496068 -0.5661486885850379 0.007046622434136252 0.7341250287594324
P 4.408225739763723 0.9495658282637336 3.897913660480674 1.2841950666150528 1.5811245716231093 0.035369380638229406
P 0.340499483887551 5.456042864921741 3.629765334901193 -0.7212800544759643 0.09058870612285043 0.19243293055486216
Ni 1.3008446288027893 1.0663107392564897 2.7960610456853057 0.4469574882341464 0.08536730982291103 -1.5165603145884785
Ni 1.7381727540474476 6.476723312347637 4.912052797667028 0.4952710877378696 0.21259963531072418 -0.46897461593518586
Ni 6.018050814621141 5.776907523472638 9.258708511543857 0.531812120086697 -1.7356920945907657 1.2213987001141222
Ni 8.729103879507125 2.0601813474910333 10.09852468147211 0.21722942077325172 1.549746828642776 0.6704696566923162
Ni 2.2186435666735176 5.432564963076554 7.074112441970039 -0.6916527185278346 -0.3093646454476156 0.9060330998880655
Ni 0.7161422818712105 0.06119506944984625 9.17567245660717 -0.31233504092984915 -0.5511689273467539 -0.5169532006969936
Ni 1.5750621645073701 1.127838094556117 11.482729480097849 -0.5109023665172233 0.06858803348204318 -0.013649729572950686
Ni 4.009183118030726 6.867567734016364 1.5354865566445095 0.43064229601389065 0.6883575927163307 0.09314104023105894
Ni 5.693554616728374 7.594538358320194 7.945938815427202 -0.6169305471235956 1.9464045401811059 -0.8261152432154999
Ni 4.9160965167242 2.9369983638887622 4.874408260849206 1.579152535498403 -1.2856122586775538 -0.11506149445323409
Ni 0.6464040161196157 7.505792615653253 6.9379524137708115 0.2338351476507328 -0.16745543467391805 0.5707643329801783
Ni 5.087614119840706 4.671929969073592 7.362630979602902 0.5677368590077642 -1.326468373461967 -1.5278474574665235
Ni 8.09690735317774 7.146197590021316 9.307116023086145 1.037823477060206 0.6964090022658974 -0.6777384224395876
Ni 4.699420721891545 0.4170269124387711 10.574387978558184 -0.7714173374519876 -0.818963205551751 -0.4167755653341274
Ni 8.29925672530672 7.183829416451441 4.555859616513588 -1.1357976770138505 -0.9770397701139302 1.0522111132404461
Ni 7.50936060305664 6.220572684868859 6.962468027982938 -1.1981602984114719 0.4362226183151455 -0.5387340440175109
Ni 2.3477720268220494 5.28678589504555 2.7070193325620027 0.32890837190749805 -0.6530365488175335 -0.13749822619019544
Ni 2.4951217356184126 5.1516200007411594 11.306147695369106 -1.1878342338951156 0.35189531972097465 1.0839873772107782
Ni 1.108663566831045 3.3071520901571856 4.038883662538208 -0.15493647627130092 0.4168226165219789 -0.7466933523427464
Ni 3.8567492541557455 2.6983699137345045 2.5729456237146797 -2.205223868581002 0.20177529100171057 0.46840665924685787
Ni 1.2017399201631653 3.2981458725893487 8.29318933095129 -0.6451761722328502 0.5628749029297725 0.44218783475964496
Ni 3.8172653426612677 2.4380611737092845 7.066565195332798 -0.1366541330223453 0.7306206151505997 -0.30348607517965154
Ni 4.269954879322034 6.676376266515279 6.01916660508393 -0.828342846994438 1.0608394783394053 -0.3115719375115795
Ni 0.8239290931924096 7.532021408549908 11.557738925204168 0.8926091131726757 -0.5981915759531956 0.03659785372869181
P 0.09402872452452565 5.601740223317553 8.12020821748001 1.5123413914111246 0.003880308891012672 -0.4091046790524309
P 8.607438232706135 1.647992553340468 7.996458974981623 0.364434846948882 -0.5253846192937984 -0.5111551059579778
P 1.8234140612494838 3.1928039951300637 10.52388052939146 -1.690650995190727 0.3126795687534615 -1.5348107761582341
P 4.174518025417699 6.046594713848236 3.721052247222607 -0.27191010014558337 0.6242067690700347 -0.393079250158452
P 7.010723014872868 3.9836352387606726 10.386923378306694 -0.692265155300853 -0.38613752873329626 -0.48371886412389603
P 6.204158127043608 7.8519055514785 10.187446553797132 0.5394652657565806 -0.5566911427165637 1.0615359901857977
P 2.3062272167510605 8.370743577251423 5.783454281021194 0.0021463569190414648 1.0146629797833426 0.041680410457921764
P 7.2350613577168685 4.022692444382481 1.5556706523066213 -1.0469791754175453 0.3187237180650124 0.3106393983949811
Ni 5.375177562626658 2.984798500476122 0.435049334307635 0.3164693748131969 -0.022206618004026273 0.15715713807170353
Ni 1.6527498698783176 1.1748302136399107 7.127582319354892 -0.7122853071765217 -0.6829089108969336 0.558534880793522
Ni 6.969023864379849 0.5226992599781665 9.071602525802374 -1.0738328052752797 0.2512145194694448 0.9171433508686141
Ni 2.9825923403259362 1.8088152730951677 9.374405723436483 0.1714730404737434 -1.546141370679705 -1.00971874840419
Ni 6.210132009260984 2.12312500313399 2.706474601660722 1.6279271337989447 0.01351963175298962 0.05971901312718748
Ni 4.090420653108351 6.666307823689946 10.440831764067077 0.6055323325889829 1.599247763586381 -0.11953649950545218
Ni 8.471954578709331 7.069136325186842 0.2690090004035041 -1.715308388728091 -0.8660604161498697 -0.1504110775971216
Ni 7.654994409513971 3.9089889475885413 8.025346962561361 0.29927615086336196 0.32732662924267497 0.7149515411547751
Ni 3.0562581158757633 8.546183242857149 12.617880587003654 0.6864863438355467 -0.8554597578158879 -0.4258405037498731
Ni 0.02999288342450182 4.699765718129022 10.144420983559497 -0.19826830628971662 -0.09064912704714066 0.39648416207494297
Ni 8.72437379951434 2.223428119756431 5.873412049943483 0.4558295939127956 0.3806801051631509 -0.2636121218028492
Ni 3.5097375123433867 2.7350847764808073 11.565113673722669 2.31934536771847 -0.15553502908724826 1.3317352782878613
Ni 1.4155286412190342 3.4727593629947986 12.725418637879937 -1.5418748820938672 -0.26971437804584514 0.3817190879506265
Ni 3.0199245647603568 8.244048248461946 7.931721338903783 0.4723831273961025 0.44415832822245443 0.27891404226724226
Ni 5.619262400642075 7.8475658619649655 3.4083367629548658 -0.6072374882055478 -0.08929646967398815 0.2928777035361859
Ni 3.134481473299636 8.382555158960855 3.5022955803470603 -0.8633764415598034 -1.1844946279989212 0.3316805353359965
Ni 3.584719720904641 4.313842032268529 9.351310948991864 -0.09393756799042531 0.08995390075232895 -0.4073262469957695
Ni 7.2929299371295615 6.29284939662042 11.443503407896642 0.12445990494899854 -0.6659324309435951 0.1429541070984441
Ni 0.3205559777068381 0.032559473854368234 0.3164695880623992 0.7921396576010035 0.4820936698156471 0.4639691923007945
Ni 4.53983272551308 0.6430339476103607 1.7141010955198643 0.6472469387189498 -2.052376413628246 -0.5771368121654253
Ni 5.88109638719088 5.543898880449924 0.40603151919642516 0.3494309173408821 1.0437606684802474 -0.1663568022931006
Ni 8.250221865343123 8.973306742551152 11.14181690861016 -1.6615296523447385 0.16530882064456048 0.48984271763344667
Ni -0.0004857183869750719 4.653490828065248 5.936821450507035 0.21022522154127665 0.6094591784472149 -0.19991509786452022
Ni 7.610544367969485 8.854991190793038 2.6019262155476355 1.2353335650276596 1.036821261047937 0.33582489652167324
P 8.447577870877032 1.7445733421374927 3.524459772835326 -0.8324154744019147 0.2719756632761961 0.31802206401229743
P 1.8264010023581716 3.1563614978344012 1.7482638939936679 0.2724019521803373 0.7135541465866163 -0.12140029218706834
P 4.8353946336995 0.8772627878519433 8.222683902513724 0.17668775190546343 -0.4039092508944205 -0.1863137050310017
P 8.611187797076616 1.6637534340841826 12.436116595634063 -0.7211250169553387 0.3944234228911723 -0.38747090283273916
P 6.441715273092014 7.818568020320136 1.1794277424467179 0.061929904735577204 -0.7416863860464582 0.5682186837401891
P 1.8221157859347654 3.309921138905361 6.204385098252475 0.7499550538131535 -0.5579471266108521 -0.7424618307599019
P 6.720181709826583 3.9569161880528663 5.905010981641927 0.6486541034791216 -0.9541731499284019 1.0953948477167716
P 2.4587609479579418 8.507416560382689 10.271186219481306 0.5133860521710255 0.5042660921476283 0.6084384504921844
