# total energy = -340888.93511080527 ev
CRYSTAL
PRIMVEC
9.09319211410122 0.00000000000000 0.00000000000000

0.00000000000000 9.09319211410122 0.00000000000000

0.00000000000000 0.00000000000000 13.30880581293284

PRIMCOORD
 96 1
Ni 6.404871787398363 2.2373526691275405 11.499114498809785 0.6150312732183537 0.14919674557404627 -0.41560391362352933
Ni 4.9321565598745245 0.802035013296592 6.105068330187335 -0.07046956677547218 -1.428452723016269 -0.47642207335216663
Ni 2.997625378459841 1.47620701334096 4.6008006349373884 -0.18934889231289972 0.9135818587696007 0.9234793203889708
Ni 3.6541265780396004 4.591607417590751 4.767893498117269 -0.5838890432875945 -0.4619544758636109 -0.09148807800866823
Ni 3.5721787296440604 2.6508564926893223 2.5452163319330885 1.1530076131342335 0.4295686033337376 -0.17822552870622854
Ni 5.112674612065853 4.530528445367843 2.651073819983669 0.31889752463871535 0.29825670845991215 -0.7145589337020468
Ni 5.090987348592334 4.584905734915706 11.583319277517326 0.9752369125772367 -0.6771936056797112 -1.292849142745625
Ni 5.840830166434433 8.207733545292474 12.51561426953852 -0.9657652256413755 -1.182644719274376 -1.4081461502484327
Ni 1.9277112872406204 6.72413376666683 -0.14040525329793743 0.33123624870972634 0.5885540528634315 1.3141399338036013
Ni 2.6918940692327173 1.775345758199823 0.2750999818741262 0.653261777454462 -0.7467146924989849 0.27085646207008834
Ni 7.939966313634299 8.881757326303457 6.871030649899251 0.6871807987994101 0.8549761333112501 1.061934768286113
Ni 8.74444103040676 2.3823254328836536 1.173512830319352 -0.019211282821128203 0.8419218712304533 -0.15181155748907404
Ni 7.166963135177081 0.8659728851572667 4.852084637036463 -0.7116520444678969 -0.0007057678177729781 -1.1726125318493548
Ni 0.8588783765777949 7.4925994422002375 2.227135558335571 -0.590034751174016 0.4257309747552023 -0.4376238695380463
Ni 7.953706127096979 4.095892043058699 3.700140858691614 0.41063037166833793 -0.005599862685280679 -0.38582411125793553
Ni 7.808351449267118 4.193843909782706 12.604676631536442 -0.4901602488738655 -0.6719603823052299 -0.4088550249354701
Ni 8.235140426679974 7.1961795618187665 8.801645393419577 0.05856767313156365 0.4461288216852639 0.1611436335232773
Ni 6.690570794138208 0.9281875970899612 0.22525837661162812 0.41543499214583296 1.2416363673172357 1.5127172866933043
Ni 1.89860397890572 6.312557699858249 9.384650866783517 1.1006710085140463 -0.05220290725580042 -2.5129800318909177
Ni 0.2786454175254157 4.931601875148368 1.2925936385138295 -0.49581924693185575 -0.061344721656068545 -0.46508633662437326
Ni 6.621689862980173 2.182529813160307 6.984488228017408 0.7813631358107899 1.0417014719583737 -0.4946316543816578
Ni 3.610615653209079 4.634463632580562 0.6178505859972869 -0.946789712980137 0.05763899066970719 -1.7267287147498909
Ni 6.019847841907469 5.568143517778703 4.655127911927973 0.30337706040561296 1.0353930132418425 0.17900791539820785
Ni 5.373003612478183 3.020494756923532 9.269836584384333 1.3871132408375337 0.316691518126332 0.6331516369681484
P 0.20009842302467523 5.720345369359322 12.370707886085702 0.48717365544171576 -0.4763020028345345 -0.14549230013926556
P 4.07625984102963 6.21180512992676 12.368299099463423 -0.4541020696987276 1.0708652380065236 1.8541939821841162
P 2.4800045038406986 8.45020351616099 1.3393981175708118 -0.08414217916655832 1.7775033741995967 -0.41057097918531227
P 6.335499823859796 8.037636291399112 5.750894857982232 0.23317026037322425 -0.7774599441016417 -1.145416431050537
P 4.683794200439618 1.4254397211092358 12.789336632789487 0.9101617773444584 -0.322370056568348 -0.23056624709147386
P 4.147241299593277 6.280113189974173 8.200247120127798 0.22217056682861094 -0.5911331264445173 -1.1159793567363427
P 5.049267782631532 1.1127612130167996 3.8873824172193463 -0.15115952572737196 0.1848371204854752 -1.610852437704845
P 0.36390227857421087 5.749543609616544 3.3750064958796697 -0.6011632569870098 -0.47750656466559693 0.7419746067108384
Ni 0.682790527641937 0.20628997761550114 4.672083078163917 -0.13090797456718745 -0.26554404871823944 -0.050853592316757575
Ni 1.8813451000492247 6.8078911603165535 4.438846334687859 1.3430633017061708 -0.9531444515535713 0.11966762576667778
Ni 6.290015676314913 5.6837361774329525 9.18819972316313 -0.8989965047562581 0.6862318046225794 -0.11108219809051192
Ni 8.781232086177772 2.4161793875637017 10.150573176449612 0.2281740927102135 0.21794264479019243 0.1922668372906431
Ni 2.7175368713271935 5.160031957210546 6.885350609026337 0.32055640039837696 0.5676802947382159 1.2102596527781673
Ni 1.1188718381967602 8.829607868852458 8.600669477344503 -0.7972623235395495 -0.28204127504231424 0.24326184028127137
Ni 1.5361038705736965 0.9268690842163092 11.582920086378337 -0.9460183820317514 0.1741593290566549 -1.1060685253805336
Ni 4.061547055998118 7.103519932973832 1.2534601764238333 1.3704540350142977 -1.2846159562025554 0.01990985155004958
Ni 5.834419465910814 7.892872671064337 7.9235303686748075 -0.30082986850372706 -0.17688187019414053 0.6753894625914368
Ni 5.428153823365771 3.0686068370234874 4.753426229276023 0.4744495230068281 -0.5976459878623708 0.19249592258231366
Ni 0.44797429667516553 7.394565736746141 6.243107534866485 0.09842311456560468 -0.4491167006689943 0.3001035318606638
Ni 5.464335635257233 4.557362455644723 7.16450251735908 -0.37055227270052954 0.3161770403837587 -0.498276964443729
Ni 0.6796651974717698 7.305734341830913 10.923840966800784 0.6733834879050016 0.9823984633226823 1.142879523561296
Ni 4.773671312461534 0.6571158993746482 10.429738724570703 0.8066087977514559 -1.5137696392172189 0.419506076891413
Ni 8.184818700867622 7.584849877394728 3.8299279914201474 -0.0049110641483721875 -0.1298787619717247 2.1136028645388953
Ni 7.30039663799068 6.2435585572011965 6.624830651577134 0.5375559645490097 -0.1536432113811741 0.2802142491359045
Ni 2.425618121100605 5.334184774839417 2.349496280968161 -0.07585062858172743 1.0420156607646829 1.4819139281592026
Ni 2.2613950693891702 5.1057546927772375 11.441607332495638 0.4490891898651685 -0.5820476192034815 -0.3348460775481717
Ni 1.5568727216317761 3.5514644377393734 3.6948968147313717 -1.4400483982736683 -0.07126326632136114 0.13245295045680414
Ni 1.5607373283304118 1.1918992650126257 2.647001888502142 -0.5245641802750322 -0.20992645935393522 -1.0133776853130159
Ni 1.2589615577242441 3.2901169997970507 8.082531200087356 -0.5665402675965018 0.45231129634689204 0.12399813482123159
Ni 3.82775199051901 2.80911441029651 6.9393714454387005 0.38995150316274774 1.0520576183817172 -0.073966267074821
Ni 4.284330265684173 7.014524860598427 6.065967603589375 -0.10441738447582662 0.46314309685507327 -0.5772023752960381
Ni 0.6419711877121125 0.22996319427250828 0.38246693983523333 0.6978128245919595 -0.7493405601576062 0.44551098559560687
P 0.5088359416037261 5.832137074660562 7.728157677653146 -0.14676113954936015 0.0028541816193434714 1.796908775309402
P 8.81137601842713 1.5791328562159175 8.013432032315752 -0.04941068922264393 -0.06054125191816671 -0.20803875541291914
P 1.901531986804451 3.294263495454881 10.159729111708097 -1.436278389708275 0.11395180632882311 1.1858413718348029
P 4.191543332147989 6.3300075357516175 3.693060899219714 -0.7727465977863723 0.8752012021088733 -1.1613775823654837
P 7.00558625263429 4.033549117115532 10.315056293458884 0.5727276273541362 -0.20951379729654884 0.7226859336845554
P 6.478708508322885 8.119284064450994 10.168366735009354 -1.0133769139820676 -0.24421623377474067 -0.3866278381061535
P 2.3878450005685288 8.361599451051564 5.827194015363201 0.5068114842773013 1.6768863373064669 0.7145859302852403
P 7.195288428980023 4.346727750780732 1.4998093030985569 -1.2499777973033954 -2.3000790632896906 -1.132085775379902
Ni 5.3838699771955225 3.3962436463377017 0.3681306129621299 1.4729495198770632 -1.4302753780473045 0.10829795047715542
Ni 1.8652865225673647 1.3615873252555428 6.755869007556802 0.35986548241064475 -2.4885452958873207 1.1526774834883247
Ni 6.832570084034429 0.9018400725974982 8.94801578082176 0.3661153199750985 -0.3097582813416085 1.0080290194065928
Ni 2.778715868664654 1.3764819741316963 9.428969267084247 -0.9832808659276355 1.6036723750166382 -1.5214693218543216
Ni 6.503960303151382 2.288347291165067 2.3898091300906588 -0.12211197354211227 -0.02915553851803366 0.8987998153644199
Ni 4.145486313492484 6.722424246527197 10.266279501006762 0.5218714639342174 1.502182705710568 0.5771609805351415
Ni 8.366828036585012 7.32744888488113 0.1927438491473658 -0.365274569241358 0.49466199339896094 0.31253635830737786
Ni 7.903429867245786 4.210948204371256 8.020139170906138 0.41617598407691553 -0.47327324331053977 -0.24813870875759847
Ni 3.3652267676340637 8.697783861063938 12.390032738217325 0.5384478802356597 -0.6455363837857463 0.998093505460436
Ni -0.1805462410872485 5.153630349879159 10.21374994812046 0.7253182291010798 -1.4360112520898172 -0.5734182256632576
Ni 9.117380123421217 2.3023689935869402 5.752890813677174 -1.830126142601635 1.090622880249425 -0.3529492149067857
Ni 3.6253466246250547 2.6521295396018143 11.304273759533698 0.1910720456515935 0.6441492736302326 0.5077689630945642
Ni 1.0490815878155164 3.174133332876821 12.419831129161864 -0.4770219117196946 0.23072694103905425 -0.004965828645707577
Ni 3.510099506275624 8.768028771056786 7.910767164057854 -0.8904254752577956 -1.8582740657907608 -0.4420855048538257
Ni 5.730902565540772 8.070826443046219 3.3485753140186714 0.5058167244641998 -0.22256857359797802 1.171115635588854
Ni 3.399880923230535 8.58412805135512 3.496968936692495 -0.896810809958849 -1.514405730139321 0.18986902648242784
Ni 3.530659213912365 4.221023461364405 9.076326179131803 -0.7841761797795528 1.2244071479231429 0.17610385437753542
Ni 7.37405149507056 6.533567737059047 11.315360179503054 -0.7526781091712714 -0.29280468420640543 0.15245459038971163
Ni 8.111291148478992 9.283058085889783 2.178079604881925 0.07338956863574457 -0.17085443305313802 0.3579140151112287
Ni 4.50607685145577 0.39370976271098185 1.612042028223052 0.7756737987354964 1.046610993444849 -0.8578873934207742
Ni 6.173395485938437 5.903618658796973 0.14417710943580586 -0.941148969754592 0.063902969301548 -0.2119704863671575
Ni 8.287044367940709 8.984774101100736 10.893217823320795 -0.18287151211867214 0.6505268950218022 -0.4726070704814506
Ni 0.6523037820454295 4.789993592518125 5.948823645340331 -2.320558671300281 -0.05123000181956984 -2.208183208319642
Ni 7.089061757324819 6.218779608368767 2.3122587494585547 0.5127669305297878 0.38922362385778775 1.1792920007520593
P 8.560394819629382 1.935795135134943 3.455139343105686 0.739774770846042 -0.5494084930122215 0.2965618372559925
P 1.7708082552760132 3.2635012261337417 1.420741268682918 0.09846888020187558 0.8069893210193264 -0.04934126943728922
P 4.682139239453378 1.3794645411838198 8.24634869542524 1.2647102184175638 -0.9776979725232195 -0.2569051420963189
P 8.454177241166411 1.3514756954934657 12.379971121012526 0.5327886250673534 2.038086736478451 -0.32450047264778953
P 6.49465796749796 8.04879363826788 1.3109737079725408 -0.401176939564922 -0.2742552033389922 -0.6493876392110365
P 2.0945713646993593 3.2299928127585127 5.761887618071597 0.5283089920294449 0.10526070631272838 0.06694895521672341
P 7.208982776481541 4.022810057089441 5.746729266620713 -0.00563611523985481 0.2199866718034147 1.558743632824748
P 2.663014090703619 8.571924987379665 10.36927627078113 -0.9998066314968007 -1.5173948946746318 -1.058483576512719
