# total energy = -340889.48098096164 ev
CRYSTAL
PRIMVEC
9.09629623259813 0.00000000000000 0.00000000000000
0.00000000000000 9.09629623259813 0.00000000000000
0.00000000000000 0.00000000000000 13.31334900411926
PRIMCOORD
 96 1
Ni 6.563687353319872 1.9602427747978444 11.504251591447455 -0.8850112462207597 -0.43545642957308234 0.4073157054728082
Ni 4.63310760103543 0.33520761810530614 6.086810376786862 0.740812210971621 -0.6888715562382716 1.1692762683872702
Ni 2.991790073812689 1.2906825904474772 4.857388613607404 -2.0662338883366287 0.7229435582213162 0.068611687631127
Ni 3.292522728616616 4.575682681953213 5.059245436329628 0.43151878508157293 -0.8143179934702557 -0.4373999264526983
Ni 5.085320879548556 4.8741139737715855 2.767485410870111 0.12619565669318267 -0.8241887156167483 -0.33182734532650593
Ni 7.411753257941019 6.038812859278669 2.8070261016286238 -0.05787784615339064 0.24283863670092376 -0.9452141409629012
Ni 5.27379614065794 4.719868075961168 11.450585262031762 -0.9294743616301411 0.0444029515954074 1.0676287333470968
Ni 5.5070979503555035 8.007033086006674 12.36135193763877 -0.2676317844852036 -0.00027459381762533355 0.7772252023830163
Ni 1.6699890534301145 6.516686789895538 0.3901892719783547 0.5056956255053033 0.5251002552841602 -0.5556321053244301
Ni 2.712242693290796 1.3272133167319993 0.7636313526812032 0.19643793794919717 0.42700778458509686 -2.106514076012914
Ni 0.5153352080216368 9.028210607141947 4.9267642468810084 0.3722034351507074 0.1539057210139414 0.808190283305963
Ni 8.896678161406344 2.285881089105512 1.2442905692513395 0.1515513618491519 -0.38702301666204314 0.7779337984142667
Ni 6.982499031505117 0.6603947561122484 4.7406703961653704 -1.227294753883583 -0.49898453203371484 0.4189615172418526
Ni 1.11732537393094 7.323810264485154 2.7571683915095773 -1.2848956922265033 0.7494878843687479 -2.040899009116266
Ni 7.7071736756557625 3.7738714444527806 3.7372697670564508 1.0505751202989198 -0.3403004157945236 0.03510789944672664
Ni 7.466294651069005 3.8464689859061583 12.763241775657905 0.5542213410198326 0.47147218554605896 0.17755832743587485
Ni 7.914387307319459 8.91039537635581 6.983251295216205 -0.2879008191468848 0.5110692311123909 0.5233585900027051
Ni 6.919388927181907 0.7943158892787073 0.5988555821748294 -0.438646911485922 -0.990965636166403 -1.144228581390023
Ni 1.5321346817065273 6.9551009867917255 9.191336309483974 1.2172257996833553 -0.36415922468999223 0.1855374889866095
Ni 0.18598287589973375 4.862079573653452 1.4301861207057718 -0.5282480568845225 -0.9859273024115472 -0.6830582919906043
Ni 6.4516755596277395 2.020332908721039 6.680944981137571 0.12741693069479346 -0.463346471115131 1.6174311193636273
Ni 3.277222758096057 4.545910503883182 0.14712713625905574 0.28754137892493703 -1.0213864145501055 0.09047454914248935
Ni 6.118232623021237 5.77224589369901 4.913131627487926 -0.2814617483897604 0.5425737294785752 -0.2785273483517849
Ni 5.515139076360363 3.0343698371936267 9.409169867177845 -0.9071024216928443 -0.46501845950091525 -0.5910660206520078
P 9.092948948518178 5.637557033117607 12.361737620605517 1.1448111933663705 -0.4026535241104485 0.47326218756694627
P 3.762419207303325 6.378177484832189 12.539830369020391 0.8924093384570437 -0.25813438651772963 0.18490114095419125
P 2.503919313468058 8.413901327037642 1.3744831305293461 -1.034188194300464 -0.49236137029024235 0.514068937170663
P 6.344311973388644 7.951381944719645 5.880825654764859 0.37075436140900664 -1.4941528934275559 -1.0873910035756886
P 4.657303749421094 1.3821276580117943 12.563395234436896 -0.4294642165453894 -2.2131819470858143 0.06007202559123202
P 4.2660174640986375 6.123590341592349 8.112902150749617 0.11090556330333158 0.2896288575815851 0.3308474979117399
P 4.896418092509047 0.959104394600021 4.018901109080282 0.38688623397386274 0.6623372573931691 -1.8095637450692514
P 0.3606563265032659 5.382797060246442 3.496098751355716 -0.11262177466348991 0.10189538938492128 1.2887140375313288
Ni 1.4949763109714 0.6686168984151815 3.0051561717216715 -0.6901653353490308 1.6103780691715877 -2.140148733348224
Ni 1.670198268246983 6.667466998783046 4.773008639445774 2.436403837997075 -0.1696305879483659 1.6874648841532616
Ni 6.108172119218778 5.51487528376518 9.329835608621302 -0.541401563547345 1.1030341094295841 -0.5278821889046715
Ni 8.90643848742808 2.3656374158143483 10.461203844912312 0.11222942432107769 -0.3783085196071807 -0.46266101501233226
Ni 2.407007371776003 5.277907666624226 7.099662967470046 -0.1467572828946182 0.5574519321419884 0.8803806894272838
Ni 0.31719240311364894 -0.05156417532098311 9.206673574819716 0.16291692337361618 0.5952096105067362 0.9942525344477909
Ni 1.610135423212945 1.1232470628779576 11.848428157788952 -1.0107317630497368 1.097205418562949 -1.4821715526959636
Ni 4.184378204037984 6.946313964483249 1.6330016930670364 -0.36277777096143327 -1.4550803529061263 -0.7826224621391877
Ni 5.61293335880182 8.002739634112675 7.934130818624378 0.5158232008576084 -0.056273734891064374 1.1834373903790005
Ni 5.414333919815276 3.2051982833149704 4.664185097636791 -1.105079164884071 -1.0285834465191768 -0.8059215418764444
Ni 0.4817089291730334 7.41092549496993 6.799300531929012 1.8097833172792253 -0.6712713266580053 1.4008269908792004
Ni 5.319004733694313 4.18005746325483 7.0177062466655356 -1.2924547355206837 1.7988954667221275 1.0050786785290176
Ni 8.165872613491812 6.991659001965404 9.380372812080351 -0.16397338966258856 0.2848247513247224 -0.2918106957242523
Ni 4.771826120915648 0.33997407741135427 10.335485751826376 -0.9040677486315786 0.6718050876742881 0.11047181820002264
Ni 8.39345285276284 7.082394558411646 4.849000918710255 -1.722372494663724 -0.48419194710557256 -0.934914558809106
Ni 7.346614679523822 6.277299557916017 7.0340950438634495 0.22126168186109638 -0.5247148469202835 0.11233689643321944
Ni 2.522020943275378 5.190428584284025 2.3469308822973862 -0.2481402514194952 -0.5541236390997037 1.3593761799335815
Ni 2.1453615025409474 5.584598395560714 11.224777890926285 -0.16753591020286632 -0.5400753885367537 0.5586346395961798
Ni 1.5292966372342238 3.1880699572209084 3.7688093555142004 -1.054074648811746 0.4077792753727881 0.10207408105463067
Ni 3.7497662590309715 2.473228409463084 2.5842805438865355 0.6752606503230564 0.5693108883631034 0.7849943048054738
Ni 0.9426400981421065 3.298244299043151 7.953607808445199 -0.5366853890185983 0.3524226529793544 0.21137553309563595
Ni 3.42250880396667 2.9185830805014756 7.408439477167749 0.03969294771424777 0.04859564952051631 -1.3777955629810335
Ni 4.179338855840369 6.8431619634706795 6.115620166699297 -0.11888138241995655 0.5953178539498264 -0.5376202421280418
Ni 0.607952788190056 7.639842889809639 11.609839580632086 0.5716097116996092 -0.28142343895265726 -0.46988092979953916
P 0.3589225724121728 5.57967729921611 8.007833560088605 -1.0285798469747514 -0.41741911245539726 -0.7774162353478997
P 8.419077119681042 1.6261994826298933 8.027763545469428 -0.17387805037081022 0.9997629227430587 0.481131563012694
P 1.751309943117272 3.5956840945554953 10.202298689778234 1.5373767371131974 -1.855586748766585 1.0088844254283529
P 3.9610459351790257 6.3052888618944705 3.9721443263990817 0.05850905197948634 -0.47900088982293637 -1.3235162328121788
P 7.16953707778558 3.811020718891522 10.5609474636692 -0.31124720718230914 1.0924740745255506 -0.8915091952402776
P 6.247818461330326 7.709966238646138 10.125121163094711 0.1905881640366395 0.1543240394982826 0.7596203448170595
P 2.465187283458224 8.396536497237555 6.095037976867626 -0.7659033496122939 0.5880598868358323 -0.6370126625854513
P 7.223341670906334 3.675722406452285 1.6248805196539833 -1.8764515080307362 1.512439864662202 -0.3312406195851005
Ni 5.275133296226621 2.9148354063906137 0.5101130242666707 0.21131356950944896 0.9649180471497318 0.5267156794003961
Ni 1.2227514490399056 0.9154967497275117 7.186945569808318 0.9572499890815127 0.22344197734186683 -0.9843100785230985
Ni 6.907227178914376 0.8058381679103317 9.401261547100214 0.38057237594069293 -0.08757408766624274 -1.138684254533026
Ni 2.6073623959649654 1.782200965642729 9.212491565987937 -0.20223114759220656 -1.366301960519137 1.678313813781613
Ni 6.310664773058353 1.8643587145973606 2.5166359358151102 0.38826485948894424 0.2265833511843259 1.4384036635813937
Ni 3.9809577279670783 7.082130765816463 10.424658564553573 0.8483917952255131 -0.952033992098212 -0.8433043534002768
Ni 8.161015191221908 7.066585195293493 0.4306468694125347 0.30551596112548673 0.5249521597420701 0.28670525617688686
Ni 7.505281377377636 4.0337708247818025 8.108042909220437 1.6833135809890494 -1.0012027405133788 -0.07511606440854805
Ni 2.9347562954750512 8.487272053683796 12.416802050775676 1.5767621808893553 -1.0170839305200097 1.216115597338312
Ni 0.10623655511692168 4.832980521515957 10.08972110645092 -1.9567432031029528 0.715361117888368 0.2435228072521419
Ni 8.689791996412529 2.363954600983014 5.629376733778048 0.49191836921555276 0.23991786350970296 0.6170588451713437
Ni 3.7735348814865137 2.9198838508846148 11.379651433187307 -1.194213397948582 -0.17074156162435755 -0.42312130504649714
Ni 0.9001094547616509 3.545827294066087 12.583897376860374 0.5208178258587225 0.07914138351785725 -0.29958956833872274
Ni 3.2967706990286856 8.46252103121861 8.130462550921996 -0.5697885993304703 0.20366325205304278 0.5754985052310541
Ni 5.686486011375686 7.9230014999966105 3.4778725022879127 0.511493720244319 -0.24146463917153255 0.9745362869657862
Ni 3.267771706151431 8.359550956133754 3.5001857173217603 0.4732961261286752 -0.5811862996444507 1.1020115817023408
Ni 3.4857098712537358 4.585433911678562 9.257104351611055 0.221075019771587 -0.5987716168263816 1.0821027585935559
Ni 7.146814529414381 6.137416712098442 11.606404819116888 0.49081793706252247 0.45577148698135056 -0.5081865102479571
Ni 0.48033902693736386 -0.026311946924952062 0.5011649975121677 0.38980237917939314 -0.5097577113898188 0.29791500884977723
Ni 4.61609752679438 0.1180544633810777 1.5701899472652736 0.8745561123257067 1.6846310142488925 -0.4010879793955415
Ni 6.0992668450572864 5.667238248223781 0.5803937390306398 -0.43330904421277633 -0.5637058834715001 -0.27988566215189215
Ni 7.7149601053618255 8.847676412777181 11.55155415191179 -0.5024411231237476 -1.154356413852644 -0.6112118994722635
Ni 0.4603135304444917 4.810394417590541 5.7703784240510485 -1.0920981792433706 -0.7436229409475387 -0.3605943901568693
Ni 8.03365794552729 8.678858248157052 2.5661743659310225 -0.054034561147900485 -0.4194376855473228 -0.044809957225838956
P 8.570566839686625 1.4150926361131657 3.643704352804653 1.0733185846430224 0.9562539437168305 -1.3363506655726853
P 1.8473759292454675 3.020470696316448 1.595045577138893 0.318437040062529 2.0119579006018835 -0.3978023666657342
P 4.683282771898333 1.3135597758572315 8.22223144663764 0.6725213970150224 -0.5392310382585874 0.03598953072073156
P 8.484306661062094 1.3978278655733194 12.543371557203303 1.598207752357641 1.6691619720790154 -0.42948889913573773
P 6.292726876585974 7.734471661108913 1.3413062087221908 0.44340756609935894 0.17322396172657908 -0.01897191311681249
P 1.857636551568411 2.8287116722118655 5.911167260988627 -0.4012152490020252 0.7314107151520629 0.6588845229578782
P 7.000673431683523 4.020563002429928 5.826294267562897 1.8970223902035523 0.12959619773429937 0.4935186238231372
P 2.4912572688993193 8.639016469988176 10.319882874636177 -1.9614071842375251 1.5089218242066142 -0.9061487995303232
