# total energy = -340897.88125502714 ev
CRYSTAL
PRIMVEC
9.03963172904900 0.00000000000000 0.00000000000000
0.00000000000000 9.03963172904900 0.00000000000000
0.00000000000000 0.00000000000000 13.23041477544628
PRIMCOORD
 96 1
Ni 6.299999463397731 2.1536922193940424 11.553221343559597 0.3328599003560783 -0.8370570869389843 -0.38575057770752275
Ni 4.684002608511544 0.27334309102918314 6.007455290969954 -0.6042516661043464 -0.3922220443644793 0.0927142371062855
Ni 2.6969559969434367 1.608512039953729 4.625749414806532 0.15905461220473252 -0.4591216344005061 1.3118542230932182
Ni 3.309915333827681 4.4742198788768 4.7042061850502455 0.5740951971256242 -0.7053615834734949 0.7189732607196586
Ni 5.022889356099638 4.582062683398819 2.644124774248677 0.05318661132530841 -0.3970798866774129 -0.4019984070249528
Ni 7.22108368166819 6.022112149582863 2.525447971300871 0.6764785818905575 0.4835869665317219 0.27161725149551286
Ni 4.993989653999312 4.60600866740375 11.536074970414806 0.82151682521154 0.037388210840471094 -0.08866140719315053
Ni 5.729634870428638 7.89398481543303 12.379989661975829 -0.7071081338509564 0.34449979858785185 0.49507645522856025
Ni 1.7033196957648717 6.440131831855429 0.5873970667562173 1.1005195705378465 0.04350640792306701 -1.000845100063644
Ni 2.6586460383881714 1.3469141422116757 0.35776059432418084 0.2197943532869505 0.3849854174067241 0.37425568969404577
Ni 0.5022256581890372 -0.015427035221900831 4.998861111447502 0.02406372581742307 0.5106344575678173 -1.2318605188773946
Ni 8.577127851756416 2.371963163064509 1.5721437942577539 0.24458158753395945 -0.10105643842339371 -0.6720012628454943
Ni 6.724599997446661 0.8537507146624813 4.74178031759645 0.7205940841525331 -0.502287885375335 0.3156124261295404
Ni 0.7102393319273043 7.389546255437874 2.6037456440291122 0.16643342116730692 0.007218372125310149 0.19567534875155976
Ni 7.786377041331596 3.869016545871843 3.6086091676063656 -0.21570115705418333 -0.700041199701846 1.015257418834232
Ni 7.560386252308086 3.983322686959934 12.661665485377885 0.6546689422146338 -0.5286692035823412 0.25116386873716745
Ni 7.83170175397815 8.914902724662513 6.898497197710784 0.11738808570388169 -0.08073649591911902 0.12124191223233312
Ni 6.893333760163174 0.9017177116142991 0.4119875361319499 0.006897755561097799 -0.6752141133558371 -0.20809814789594486
Ni 1.7647349525899005 6.414676229379822 9.230344283834151 0.35394268916830657 0.6004585176105013 -0.05725049698203688
Ni 0.1827542312675314 4.703600529735662 1.5187982165271765 -0.2700509354496575 0.04008941182171805 -0.6874829034208612
Ni 6.414396000801433 2.0793141309106256 6.896472320241133 -0.5532636050922536 -0.38222430972181914 0.10958710160222418
Ni 3.399841588595916 4.522780779622172 0.6162108923567147 0.18155922106515182 -0.7065180656754413 -0.15004958049264483
Ni 6.050559870105142 5.61458747955255 4.6441134263225825 0.8628660775822882 -0.06341214570805853 1.1612572547375355
Ni 5.165028522763864 2.9934107139844763 9.456875642825004 0.7102271390959123 -0.5548270929246315 -0.4598587696768468
P 0.3164702692432735 5.425207198350849 12.403103095913998 0.17528727201351102 0.3683907462728365 -0.08541718922423999
P 4.110636857864218 6.2070539716881425 12.717841371750195 -0.5277454062164911 0.45804357084497893 -1.0676212771479292
P 2.3906209626062895 8.321722101633606 1.4698196848036893 0.017849112366278935 1.2240178829045243 0.2332427654823725
P 6.295633321353797 7.682529753959512 5.791084477853598 -0.22126322452299313 0.5761448805658014 -0.2548914541003997
P 4.714430008345669 0.9797514271009607 12.639253526848847 -0.34268897063135817 0.26462565066902816 -0.23406423294240333
P 3.994875336094816 6.030528046566099 8.196585577972352 -0.018232720957942792 0.7101518057732866 -0.531818033623968
P 4.747741050647734 1.1843996460090898 3.829755618076367 -0.9960584773082781 -1.02886549653597 1.0729064368062684
P 0.22508501794110297 5.522862338103688 3.6162033620807117 -0.3697704002291825 0.27409090984698603 0.28659752695442897
Ni 1.3644058292820953 0.9892882383977529 2.6154944531688664 0.5503328045987038 -0.006342911498892301 -0.3242916990710931
Ni 1.7322465167598808 6.54165593391635 4.829101350548822 0.658526111177195 0.37748679503683374 0.19876967140616733
Ni 5.906404865602827 5.544557453849945 9.236893496900052 0.5167590824083165 -0.013893213042324461 0.1314165387724898
Ni 8.582063490588688 2.324830524105766 10.18654566279255 0.22797740331837513 0.16839105911431 0.05974832370322613
Ni 2.320554778377441 5.1828275573073554 7.052802804492879 0.6455523246253463 0.5320761723813611 -0.37276882073587414
Ni 0.5388343580845335 9.09694282503673 9.204888681358543 -0.13640370757443604 -0.16821108189301995 -0.26820694026238323
Ni 1.4130842452377592 1.0428932535541293 11.452921207612027 0.6726486666215061 -0.13812120448617501 -0.880755299157883
Ni 4.227817601788688 6.900194840517928 1.6364698124454053 -0.3087974600902359 0.8733214685876572 -0.5729094043476392
Ni 5.627595509368743 7.723849909824571 7.965595872695642 -0.44328723847141077 0.5472418243782059 0.34638030344001636
Ni 5.348361290451295 3.110971122434506 4.776775443258319 0.022981034276205584 -0.104006265080337 0.28216803042816563
Ni 0.7144201615242392 7.402753157148409 6.966910937290293 0.2088555948872597 0.04336936812457047 0.20514729279773702
Ni 5.104905933252049 4.443204902991214 6.954487771636092 0.23067911852025436 0.2916278902894849 0.168936904315451
Ni 8.050035975069543 7.162533988047979 9.041757682283501 0.10654497234179068 0.6801161786431448 0.6739288188855104
Ni 4.639627057178887 0.4076792477300058 10.376892280608114 -0.15711162954574878 -0.7260430230822463 0.5366879601217596
Ni 8.153476479021384 7.209612389217356 4.727147865988756 -0.2679022645377709 -0.5125036495660723 -0.4745667653109827
Ni 7.339331102116851 6.140196856663428 6.963193840792433 -0.5266586009102157 -0.9793190530664101 -0.48111870749688757
Ni 2.3124552684988386 5.316740659251126 2.7269467825731684 0.625376878118736 0.6933316488921543 -0.849561390053582
Ni 2.409983853409824 5.235727481201978 11.46891683565911 -0.5120876450745762 -0.1141101862835583 0.15644160006191765
Ni 1.2028947321827737 3.4489539068665054 3.649530675719587 -0.547360095123625 -1.032466583623667 0.5633261315345782
Ni 3.5779494492411246 2.7016023675657603 2.688367442997387 -0.14979709816220654 0.19999145962841042 -0.5480362952550433
Ni 1.107644134425145 3.327868042107709 8.056541797903952 -0.7312705900297728 -0.14496342421898903 0.2700092835784446
Ni 3.7072161805625714 2.4829879178959784 7.036741187135401 -0.5598708259961261 0.6423741840076809 -0.6631965200696707
Ni 4.175423897261478 6.57673874400436 5.935613723102538 -0.28822786346900037 1.3598616042104323 0.457827855289747
Ni 0.9176220393826178 7.5035812075791375 11.396176728414538 -0.1900628876607888 -1.2421377324336866 0.10043294590678187
P 0.11716085673503591 5.561226534448319 8.0364051146388 0.7639174295305167 -0.41709643900865584 -0.005240936683965167
P 8.509936270363944 1.7429042423702297 7.994887894805714 0.08401285267754563 -1.0324850955664282 -0.03597256143986708
P 1.7173311246843292 3.2662358341252173 10.299163200705058 0.32639100480228306 -0.5860618825691971 0.40628906398050674
P 4.199216207529873 6.246584280504135 3.711210793749351 -1.3648390028203656 0.17884799278157587 0.2736291397192191
P 6.931951066191512 3.920271256822375 10.456274709123669 -0.2526404532826939 1.0088818543251916 -0.47134928681494953
P 6.237164984417635 7.6979152068762335 10.21626164362283 0.3645860278147657 0.05020181766537161 -0.34457024681447107
P 2.463326719250933 8.400348816950665 5.77319685492081 0.121241655122017 0.3706409757595939 0.41734994978035866
P 6.815764681738745 3.9457449385611048 1.5848182616693482 1.0177699008434407 0.2660528700338579 -0.3787463784755477
Ni 5.201168969744503 2.8232848480075785 0.5892284961104638 -0.5768694174366517 0.35663000619248253 -0.8383452096227885
Ni 1.4560857725731526 0.9834667156725073 6.914359943173921 0.5452147666458481 0.5612445664152013 0.9127881592237119
Ni 6.848894931409592 0.8230042158342549 9.095671852839262 -0.5688586313170332 -0.6336781988955796 0.5979411505052863
Ni 2.6641240551141014 1.5851626716318201 9.176589210793864 0.2540609877793044 -0.39968878505516975 0.27108734713397187
Ni 6.210163604945106 2.080986462749399 2.6422463388103137 1.853131345247557 0.6042095000125014 -0.2490913024788549
Ni 4.062925682485575 6.778593716760158 10.322131096575095 0.06536824099316484 0.8748679871391707 0.43761538489761403
Ni 8.312510717073009 6.907788131029118 0.4241395128393221 -0.7551731076789834 0.3301970088119346 0.33667078946173634
Ni 7.5334933484142885 3.7957232131757386 8.13650637869203 0.6327086358934587 0.5657159719229935 0.7632204034634921
Ni 2.9964299509258305 8.241278420372797 12.44025417370315 1.253487353118551 -0.44735729477572633 -0.05944004843418795
Ni 0.04761897113672167 4.79095952914059 10.121372631127638 -0.08282577434797994 -0.11751355553815244 0.4068369660641768
Ni 8.787254087390474 2.3173818676995506 5.838912264479378 -0.351796075138949 0.7069623523017116 -0.5067551771180692
Ni 3.6001507843547937 2.7333224347131 11.499400281208914 -0.5422837090419822 -0.649024856554979 0.22000698351838882
Ni 1.0424955097654478 3.2318309964042786 12.41704853552306 -0.10761403703625337 0.683009955251172 0.9329057559091933
Ni 3.033555717746612 8.301202137990272 7.966562209309507 0.7066473921644539 -0.2571468257934797 0.20036889757248716
Ni 5.783194687427209 7.858666974924436 3.4900245689004814 -0.17530629817690452 0.6212831676653364 0.43034070561307175
Ni 3.225946196258106 8.392954398333815 3.666875920758719 0.37658665182006756 -0.39221098862088577 -0.3184722641758386
Ni 3.248780305581042 4.232292219411354 9.142811723503252 0.19382878246112425 0.042259937110475605 0.225165902011509
Ni 7.466039617706551 6.152978895690597 11.42569293338732 -0.6864722027681597 -0.22788355805298816 -0.32268218849212815
Ni 0.51769156382665 8.88517137645858 0.24768409684345388 0.0665612328600015 0.7125079647102891 0.5008017877481117
Ni 4.689037683290987 0.5437139512011291 1.6900793474175624 -0.6124902519640548 -1.5097314645921032 -0.5032013983285398
Ni 6.057592703459555 5.687003967987243 0.440202034159957 -0.34192766698530147 0.22383484190491126 -0.6153495757897208
Ni 7.968896242178542 8.672857549986773 11.28584802521326 -0.6170863559751695 0.9392705217849565 -0.03428308955258612
Ni 0.28763836437965423 4.8297666674317075 5.9291973926205825 -1.39971061788657 -0.4119395773980647 -0.8950709444496069
Ni 8.087170781521886 8.977619688432318 2.571674839177208 -1.0788158603121678 -0.4635398180728597 -0.48650259751662017
P 8.560115265158725 1.631093039592958 3.718090857330383 -0.05898933405001453 0.6802784152526219 0.20520000041254338
P 1.8614951688182062 3.1313283727097434 1.464500765593232 -0.8458572017291175 -0.1838660148214575 -0.17915755360219468
P 4.745625776862474 1.1246205624965913 8.303897756121744 0.5056120646525615 -0.6996478209181691 -0.9371938417615858
P 8.548607814181649 1.595657683874072 12.307977245071909 -1.0149846247888197 -0.4556367611756991 1.2002986849107136
P 6.467503836221956 7.923327459479842 1.3810568306173474 0.12929357889221604 -0.4977334332354332 -0.2831015979860286
P 1.8911270810749687 3.241331649174827 5.908253470257039 0.16709136646627998 -0.42739190739739297 0.2107844364788563
P 7.1044091571111325 4.003734175024538 5.9200944836387155 -0.7435013277680099 0.26176067041640727 -0.3991380547580223
P 2.467747099084233 8.46932120576064 10.192446734275531 -0.24459521438071422 0.3307670223827916 -0.3108108909758389
