# total energy = -340860.9657741146 ev
CRYSTAL
PRIMVEC
9.38026222777926 0.00000000000000 0.00000000000000

0.00000000000000 9.38026222777926 0.00000000000000

0.00000000000000 0.00000000000000 13.72896194178490

PRIMCOORD
 96 1
Ni 7.674958837105673 8.044513034909215 5.290757844148294 2.1247802213119535 0.4271507379208644 0.8327049806178756
Ni 0.45382835126463356 1.5739892703261387 12.131665959757381 -0.2525144692277909 2.2990603922171884 0.060961370174720815
Ni 7.309569475808076 8.338931330882508 8.67192689400525 0.8793910718205049 0.9216543513650902 -0.13549713659976664
Ni 1.1118237418396915 0.36933938979456504 9.473656983373704 0.2562626234163135 -0.04485777974463887 0.25812410210508446
Ni 2.0902038707658823 0.11141031456030812 11.856207988174786 0.5810811415251541 -0.9464307869788215 0.07675899932860974
Ni 8.02797563229664 0.5329593068513764 3.2498791451906746 0.3968333178842456 -1.1231447641365302 0.04455953177792971
Ni 0.24366169612266997 6.285516849252486 3.9185342659579794 0.9153001270122881 0.06297094440558187 2.3407526297496526
Ni 5.4948451512283105 5.2066834902763395 6.544884856739023 0.8008970920786593 -0.28973247303898486 -1.7694751045784816
Ni 8.154749878643186 4.381792595014117 1.2672903348177447 -0.18415423548583768 -0.2956799488716714 -0.1624824069393589
Ni 9.329130590433682 4.82647331438551 7.8797374695246285 2.114278550449681 0.08819243797653198 1.0880674608174228
Ni 3.030143684373675 1.6705778322669738 10.329067500383106 0.73967861158781 -0.16809641069202663 -0.08935791903954288
Ni 3.659906361174864 3.1735960372688083 8.402152423411287 -0.7858530532613434 -0.630923776078894 0.3916204062247384
Ni 9.07366852421083 0.2259526987362368 7.569037852102301 0.4242446200176629 -2.1135265027750054 -0.2672851997790623
Ni 3.862060396174081 2.405990404488152 5.879482810972309 0.2875174676655371 0.37326041566031204 0.5207304083512387
Ni 7.367239329048074 0.13841046185471423 1.118525001298809 -0.7315243579117918 -1.6798875860266358 -0.9954254717099696
Ni 7.470469116768661 6.202886117764012 7.578510979100849 -0.2190713590779969 0.4978265071698717 -1.0011520897811015
Ni 2.8437578704701694 7.478845691092558 2.5244678087412082 0.025126105643666408 -0.18538939344451943 -0.9033118443021605
Ni 8.249377965742259 2.1609122887429644 8.02919131430378 1.1120573959741171 0.6420024024905588 -0.9739891562130646
Ni 6.733762068336175 2.707509559098835 2.072949816105887 -1.130666783545188 -0.2636504312399524 1.5825669604965904
Ni 2.7809757742217465 2.5480357180231685 12.669539586080528 0.9363314937612907 -0.11007869652666204 -0.5393238550827099
Ni 9.232335662720029 0.7987546701349276 5.365333744313217 -1.0069877226262722 0.39517392790395167 -0.15700955675024572
Ni 0.8808357182467159 8.76498284912595 3.4734689558281544 -0.06051425533497319 0.27274853688647865 0.9338750618009982
Ni 8.170227311604474 4.153636472639937 10.285998963596162 1.2198113010223444 -1.4403214494293968 -2.489949375323699
Ni 5.670171635761296 2.1673940500619033 7.50687297711985 0.9648041472796869 0.6307965064724104 -0.5740424895108179
P 1.6739828675184572 3.3879537936514406 6.189949797887095 0.3570861198932947 -1.1061477153579014 3.541000921038405
P 0.32868439452334297 6.40072523205887 6.114001565332939 3.933787836767419e-05 0.32436009041518327 1.5500013678557434
P 9.286750564906956 3.4723386342088602 13.35306336077931 3.9645924808531006 0.9431870832305433 2.414943354130454
P 6.411531294344569 4.181993005877496 4.595344586856522 -0.6939361152453726 -0.928686318511207 1.3159664454893787
P 2.6912441840958823 3.888634679555492 10.659907479206147 0.7948984512930632 -0.3940796663985084 0.3438871047045174
P 9.032883143292237 2.0019543620993407 10.145524844013275 -0.28388475600895624 -0.9929646688743027 -0.05799663111944206
P 5.41345261437674 9.019535029895927 13.713311400255037 -0.27481107584246217 0.5960513896817412 -0.14585559701595524
P 6.30046898751933 3.476006316807566 10.834004211338392 -2.4802979682768638 0.06190470792459662 -0.7461138256901925
Ni 0.49739404195881776 7.681731386559036 1.4198903196061194 -0.7495593610366317 3.1659219641121155 -1.2198619517546216
Ni 8.525410947410021 5.463186765625677 12.115438105804031 0.154658797129882 0.36345731352696115 2.368471178710844
Ni 2.0219530815378044 3.959099210710154 4.367457678013245 -0.5775433035752248 1.0480394983612595 -2.9578202166717444
Ni 6.2610531249112515 6.495184474434729 9.666013334295306 -1.047984733863924 0.4922605830463199 0.42806707908754665
Ni 7.22222047233201 6.002645656294555 3.936793884747338 -1.6742635549716391 -0.5926624186048502 -0.02420847892540347
Ni 4.3966509306569534 8.71375723615529 11.323112667518599 1.038407117477818 0.14301607068463112 0.1418747579913363
Ni 3.42340180526399 4.977364215364462 2.226782367373724 -0.3968754839760907 0.6008580670417651 2.2147562335514697
Ni 6.065568456478989 1.8497314638594775 0.10242496120660063 -1.2110379257050885 -0.28430076050045233 0.1632678789551317
Ni 2.948319655451668 6.670595381329321 12.140603473772845 -0.7772491136424162 0.26671390065662454 -1.0232077840295604
Ni 1.5718130494491576 4.5388088073407795 12.55223940475877 -0.12738324924338063 0.8254045903017204 -0.5884535227298252
Ni 9.050283530045684 4.0561098844590235 5.755634268468566 -0.573400999272077 0.34075292995090994 -1.5878351508740653
Ni 5.5270100710005865 6.751415722174444 13.311986253700052 -1.385180285480879 0.44920514661774247 -2.154085398033974
Ni 1.703877763789744 1.0155259680332807 0.43301167294482185 0.3970683167131871 -0.49768483938568486 0.6477999830089425
Ni 7.7213067136279285 2.586898145149602 4.278068467465008 1.0060824372031834 0.09636263249215017 0.15581373666993165
Ni 5.233586082841777 1.8114224722146905 11.673750628164727 -0.5958958379404834 -0.6864156384986113 -0.5283884391171287
Ni 5.967216405206807 1.021960828040216 4.235343248281934 -1.0565184823665483 1.1712274785763699 1.195974860724379
Ni 3.7358114445219783 8.725360620745054 4.3646567316603715 -1.0423946413706564 0.8006440955275889 1.0782975259148526
Ni 5.590045434333831 5.104935784015074 1.3869824830517017 2.5792026504645773 0.47841956339816955 1.5105521607211856
Ni 7.745179481437915 2.9709260878375483 12.389908335755825 -3.156483444407035 -1.9429610617171955 -1.6409613412750836
Ni 1.5540280719372783 8.322234463809119 5.863090802426945 -0.40307467080826714 -0.479060282305962 0.20069851299776403
Ni 3.5045692158179422 6.662866045111078 9.834920905267438 1.0591024410436405 -0.9362574459902456 -0.8622940071289021
Ni 2.0822963095620244 6.542020124601825 7.871376841646812 1.6690460153264417 -0.2463191390503564 -1.5082425387514025
Ni 4.583243110333276 0.5651626856994953 2.2467313714214634 0.3607262877490433 -0.4191139836593169 -0.951767882921019
Ni 0.6230248343187088 2.0233225998483184 3.2376322746002155 0.749633923028309 -1.0892319134391695 -0.15616160692765363
P 3.149948395756441 0.3287763210948706 6.495611276373964 2.214671130036831 -1.6611277889206297 -0.628070365790499
P 1.8445254182270445 7.734213954691402 10.582449024405463 -1.3085763236728947 1.2800815586673115 -0.7279343265676882
P 4.641063047771686 3.2592565935127347 1.3396515550298445 -0.7097527705626551 -1.5684189511309827 -0.06556724437784836
P 1.9109939575989736 6.184857253429713 0.32291740919934325 0.7353164779643724 0.9359874801583106 -0.07961446649953384
P 7.39904779884912 3.991376693631239 7.871513793477864 -1.3005300563296505 1.115972157647491 -1.1903755122597306
P 8.422809637270285 6.2521606361553115 10.16129963129267 0.010530467217678637 1.7886125967388806 -1.0219947375580658
P 4.856321309344793 5.994597391154685 11.372262428419967 0.9729370607994662 -0.6652688292176672 0.8148728375324612
P 6.964394579984162 0.530190253390666 6.404656500031037 0.3642039618849986 0.03817908217288263 0.19515624302329615
Ni 3.512589340170609 2.4984235101854417 3.4103013307950594 1.0690402689826428 -0.3791341008322696 -1.849170560827596
Ni 0.6661928018871001 5.636290127969678 1.8822547096554632 0.48467711427210725 -2.930112209233515 0.59578913715929
Ni 1.3186960488265012 3.131497419614106 9.299215995611352 -1.3597582458633484 -0.25877459120488977 -0.8450871563323124
Ni 2.0680289304504376 1.2582027366038688 4.803337835200225 0.35473587449356325 -0.430615042320381 0.5366216256601984
Ni 6.831720148587524 1.607636271557738 9.690780041112088 -0.31195888853735304 -1.0857269856097043 1.722112556134118
Ni 1.8652745586575705 1.5435034175236026 7.4549776134137735 -1.3957832578077058 1.116995970926315 0.6798732093944033
Ni 7.5470495790086325 7.6963739761666545 12.734463196235048 0.9886053634643426 1.7981534463497808 -0.5529782126413509
Ni 5.866838217256057 8.180414276571721 3.844397362073412 2.2825744787470237 1.347370670832273 -0.8392407248538644
Ni 5.5311186259321286 4.475088684852278 8.669976737452128 -0.13408714362611746 -0.40676574650660907 1.8258172308136362
Ni 0.15250524413812677 7.247622222913323 8.443242662857905 -1.7021037171123592 1.3345966589960563 1.107054800553203
Ni 0.6646891458242549 7.4999700420191155 12.69421061422082 0.20711727203991426 0.09218921784075092 -0.5191216691032221
Ni 3.2622864182681863 8.840559623289037 8.695156175814542 -2.2529810813606233 -0.21884278800695856 -0.45008703500206354
Ni 1.1870628265563505 5.558565273716812 10.101962905424054 0.15681595268220092 -0.08932372336749778 0.350420534947661
Ni 1.8156060692454385 3.730108244982304 1.1115226354166265 -0.5110594609203779 -1.6729792889425767 -0.5603408236540092
Ni 3.2525872269457796 8.294290662117195 0.013650157845615544 0.382409943370064 0.8581609587971349 1.2352656879042017
Ni 8.85222866971561 9.07630437794545 11.028790988248033 -0.7958621007579132 -0.3184838341400644 0.047890653033691714
Ni 8.858222657389708 1.8700209714323655 1.2993117365752886 0.11694122797445021 0.9640742110921978 -1.7197011184791482
Ni 5.641993327509352 4.1760083984657985 12.801900716712979 0.45420311405296615 -0.3350435382709585 -0.6779047728141228
Ni 5.2911152321457635 0.08043293600797113 8.419986178287651 1.2692808685073818 0.14125383657788576 -0.5135287483964769
Ni 5.555572970010963 7.509988162263149 1.677034266877431 0.04507220974829012 0.6991179165566282 0.6037497867672634
Ni 3.833450595851701 5.242403529498511 13.672892787596316 -1.6825584479905795 -1.1788528563321117 0.2527350698790292
Ni 5.543500572301159 7.558183950478358 6.049749581966313 -0.8533457967966789 -0.05102508489761534 1.4475642470347392
Ni 3.289883150251282 4.865917317780791 6.83912398970046 -0.9109829876941731 -0.6909346094148875 -0.26396153472246797
Ni 2.9131811924983446 6.126343176573644 4.637615801339399 0.02806179123322264 0.8068965041952039 0.2382674723904735
P 9.308118802655933 3.9295513841476954 3.179091933009426 -0.3404760221404394 1.530623477549764 0.4255671954838284
P 6.6631193121958985 8.758585510168619 10.718859614316331 -0.7897906977528527 0.4205211484194887 -0.062005495168519026
P 4.563366334306022 7.086731962215139 8.012276825142694 0.5942323341951314 -0.32724589660341064 -0.8781890810926036
P 8.148821552805893 7.615084622201492 2.9879850330396076 0.3897332165043546 2.722324136378821 -0.8435480939799666
P 7.361048355863559 6.194171853993687 0.4716517878523563 0.44475096750113086 -0.4544432550882303 0.19800399688473638
P 2.395662735584893 0.528170682895778 2.423780072131232 0.47737646684563595 -0.09886225898555233 1.0500590998944495
P 4.802647447887527 6.508288701008619 3.645780624025529 -1.8072739205938102 -1.605113478338539 -0.6091529600607057
P 9.199626687728509 0.07748190545668564 13.494403278581785 -0.9062853251081875 -1.4550343301595394 0.3802155068219065
