# total energy = -340888.53584987065 ev
CRYSTAL
PRIMVEC
9.11469392367589 0.00000000000000 0.00000000000000

0.00000000000000 9.11469392367589 0.00000000000000

0.00000000000000 0.00000000000000 13.34027588468611

PRIMCOORD
 96 1
Ni 6.712288352512653 2.010209250084198 11.208392693873902 -0.5445789328340622 0.2705715838398179 1.3515677396327563
Ni 4.821563622933718 0.5805686222939345 6.090543189686674 -0.1402757889353326 -0.594813403509582 -1.2410979783152627
Ni 3.1221016272233038 1.6911129362258752 4.725032635725304 -1.6411747428374703 -0.16777759390002717 0.18713080161565837
Ni 3.6490767616753823 4.687404445474189 4.9391167398311495 1.5279688135357363 -1.8711601777248097 -0.9280599977811178
Ni 3.880134248501869 3.126959758997604 2.6738583060043033 0.31162130269227617 0.379518737865198 -0.12297457865272371
Ni 5.867821090304085 4.818893017661917 2.665827349332003 -1.5990639297103495 -0.6762556672464741 0.3413478832224315
Ni 5.837551192325751 3.061625634122959 0.46339194224880814 -0.6276713305798675 0.6419095856664364 -0.2234095814420346
Ni 5.950573394954881 8.085262017725048 12.29755940506017 -0.5401437798808439 0.4315915473010374 -0.16811055175941372
Ni 2.2092103589553105 7.293094868313735 13.433924734945986 -0.08339784480136606 -1.437609964035505 -0.22606475967669454
Ni 0.5414091634910692 0.10205904897410419 0.1239862677535314 1.1517631992041713 1.6494688645254625 0.4158977907148644
Ni 8.12671564494741 0.06791176027009033 6.889505343296376 -1.2589692021687284 -0.04293202347683574 -0.6944937875210555
Ni 8.708843791343751 2.3389580246347994 1.3896562892020807 -0.006956890933807373 1.4297724702689572 -1.3606619886245406
Ni 6.974044127924214 1.1165591003444377 4.7004065561234185 -0.504295402723667 -1.7562557776747303 0.6911099586504872
Ni 1.1794322579037713 7.7202914501705635 2.3867354263881357 -1.387024280668153 -0.9637055148988692 0.5521765426756619
Ni 8.1952399126382 4.092178484144133 3.447500751816953 -0.4677764818620266 0.09869565150070099 0.5561998049024421
Ni 8.28316936334491 4.1267140588023405 12.323786936355761 -2.027201457024515 -0.7259023837393239 0.6760687480466486
Ni 8.421165826877575 6.992173253813677 9.146906911101746 0.03658731220573054 0.38307688753010155 -0.2993347720154393
Ni 6.994351665622416 0.7912483882802647 0.32634340686722785 0.24447591519403059 0.7792676867343418 -0.4979159815598845
Ni 2.2409294932415498 6.586505578618944 9.068719245086164 -0.7313549222134631 0.6141306157809553 -0.5478840859478952
Ni 0.4811947621016482 5.385216285077701 1.4381355223749692 1.4526534886321885 -2.0768931678226874 -1.5240949324026267
Ni 6.650627449223454 2.558485423854363 6.90103087355642 -1.1938063923181506 -1.8461207182576787 1.2987981612402082
Ni 3.85238912069517 4.753203419730615 0.5622790777942884 0.3932232319354841 0.06499157438003646 -0.9238223055506863
Ni 6.464696811204776 6.1106365320815055 4.638120384842256 0.3936999144615865 -0.9160902270137513 0.16551476600777945
Ni 5.179780202411737 2.8797783789089455 9.517179496016665 2.7592716601374483 0.7424906271153084 0.04427593909923988
P 0.5141215933111426 6.083310680187785 12.606427209580557 -0.6143717852574839 -0.878755495119035 -0.7159393589893411
P 4.2024024757888165 6.745392920250476 12.531374998218558 0.26287421519556015 -1.3422531471000496 0.21366818578455457
P 2.4533018578591888 9.032661516569968 1.3223296922714092 1.3282838294041512 0.024454533497938528 -1.0035275319918135
P 6.5177260995028625 8.27211323981353 5.660171959993093 0.19891879538952192 -1.3558296002329038 0.5538387608694333
P 4.991607349727996 1.3948398155436281 12.666938749986569 -0.4637246803901562 -0.2636432321511008 -1.040910600625962
P 4.19148307266384 6.286340483701 8.08874291927215 -0.3492910493289081 0.1278792150431927 -0.1985822379857096
P 4.824535013099612 1.2912239768752454 3.6875325661199434 1.635191785781158 -0.6433738289167886 -0.7588677829217512
P 0.44133073747110285 5.818282729716237 3.760944132605067 0.22770460927296265 0.9509291890698075 -0.8048679038009493
Ni 1.085432421152625 0.10838191203570316 4.388243789808643 -0.06085106984910165 0.17234875821047738 0.37099270267205786
Ni 2.2724389895713 6.406909652763753 4.7383592294724055 -1.1283034255193343 1.9126968635160155 -0.2553316269616119
Ni 6.115986857318869 5.823669513728642 9.13772841448501 0.5734668195130059 -0.2334808496351076 0.7892911324086148
Ni 8.81764589076181 2.5410034412218896 10.126669953081766 0.40435610862385196 0.9265813563530623 -0.5494748274737826
Ni 2.516102097868439 5.286021072883119 6.932513937274265 1.0611477536084435 0.47559906323023904 0.21454261796970794
Ni 0.4093026150663852 9.243393236310732 8.845963421336663 0.9028652436830451 -0.4641162594016201 1.2628119729535865
Ni 1.3569864923566302 1.0244551198954572 11.084915026032204 0.8501846254598777 0.7197363641379283 0.5045406859652537
Ni 4.336388474066897 7.2853747226986645 1.4960584897530222 0.3722983088573588 0.4350442817363282 -0.980984613694291
Ni 5.477739541439661 8.006100902415856 7.800872634767629 1.0685155068274244 0.7713129506636394 0.6248264049319046
Ni 5.512603245073243 3.0911572419066995 4.734676893193199 -0.3858927597123419 1.153928582286606 0.8496932876457559
Ni 0.6003511536315363 7.5545772029124825 6.420047572350014 0.9095907353323366 -0.08984025799260012 -0.39765504245459254
Ni 5.339642816275632 4.643890897461974 7.216448497013039 -0.6671832726315606 -0.04802486461871083 -0.5858379394838491
Ni 0.9553383971102404 7.448710034885277 10.974111339864358 -0.221141097122832 0.4587732499221518 0.6199456798008355
Ni 4.981845512710593 0.4021986227495188 10.176388784606072 1.0209889220013708 0.004302484030095816 0.28615941097574593
Ni 8.218856084171433 7.833814960956516 4.3227428660381815 0.5524295392267324 -0.36806498750230165 0.5923988805308185
Ni 7.271647993895481 6.466255423837806 6.977670864571482 0.6519332884510257 0.07525258998641234 -0.5144774854629913
Ni 2.6734855150295025 5.742539624567199 2.4168977709800963 -0.07709118585704788 -0.8943764894857434 0.4949823528528572
Ni 2.895255128914128 5.617021176792542 11.14482681958878 -1.304603712178392 -0.509160187015136 2.2047587560191255
Ni 1.5218895318700347 3.5839613894509865 3.8662653304760233 0.05773463570730702 0.07732001403840232 -0.5128584618023296
Ni 1.6708236279151942 1.559998066482324 2.3652438899704564 -0.056121782694232375 0.5257602574656622 1.113589259237611
Ni 1.6178399130859094 3.526839603654474 8.198639693410835 -1.1139016482717075 -0.4124869652611025 0.4364666160051515
Ni 3.765990938540208 2.901562496996334 6.853593449880347 0.6163929294525707 -0.21390781259918643 0.5989089137351944
Ni 4.445090311853591 6.832192148930895 5.781248817498299 0.4171051807594043 1.0228277749823222 0.7363791149009318
Ni 8.202841567234385 7.618115733116326 -0.12350318898422949 -0.09544886242862916 -1.562849170352689 0.092133424902151
P 0.5808347713517387 5.897425615637909 7.750500279700702 -0.5572603849564725 -0.7624151339533773 0.7019674701902814
P 8.863593062008055 2.071195666035126 7.925897977609847 -0.6958215051935436 -0.8844610301442446 1.1383330418411943
P 1.9086077587368666 3.3640694024810065 10.430534702197063 0.4231737555509873 -0.20668198427470857 0.48316350584105827
P 4.450340375459589 6.381370280847074 3.552809189116645 -0.2841410949941365 -0.6313840035447643 0.22526000438721205
P 7.069730183021036 4.072235534196348 10.305536703436125 -0.042594437631758894 0.7296307404335047 -0.16154703960928307
P 6.789143450300461 8.06503651227069 10.224321136153335 -1.1477661622296362 -0.4632590536076474 -1.187005310235917
P 2.802740987245929 8.365456818613927 5.723511789872959 -1.2253566563206058 0.8970206119768099 0.03250799993003434
P 7.41726434141185 4.316235886162622 1.2928436579564706 1.1712573033730407 -0.15466471066715298 -0.35625668201346383
Ni 2.516867732144314 1.7009203467120804 -0.02467256454006382 0.5209697780555543 0.23235033557509016 0.5944457357575182
Ni 1.2945417254040357 0.8890672817170244 6.795882854866911 1.1622183330992242 0.08367166728804298 -0.7004772587980002
Ni 7.178441135501491 0.8642570853011783 8.994774469016058 -0.9126873719797893 0.003831715041264369 0.00028924910564466315
Ni 3.260207467081092 1.72470969742676 9.400772096124916 -3.0124898403004825 0.3819060071504519 0.3291140601604009
Ni 6.5923025238505675 2.2535624587934833 2.7545133196208282 -0.14113556583246661 0.4327063776317709 -1.9616259851165505
Ni 4.391559715398682 7.199423160537963 10.203283511484925 0.5141861794748178 0.32367514853301677 0.2716409056445967
Ni 7.361190745397785 6.1817037993314505 11.290048500865321 0.5310431031311563 0.050585683367351586 0.18936611870408032
Ni 8.119259825451392 4.206221532474429 8.087328318800536 0.2071851491633722 0.44492811650894337 0.46704011791663436
Ni 3.498711658709837 -0.27800545144762595 12.06940130231887 -0.030679945582360067 0.6348732476449452 0.10996376821535256
Ni 0.38363472596768416 5.027956748444526 10.275600403249422 0.393405008928987 -0.06341265992869079 0.08746173045809454
Ni 8.67201131385792 2.311987645797735 5.799110882860582 1.239761004671394 1.209883243275355 -0.8960993857141212
Ni 3.683931350615204 3.1068618592558925 11.722953615424297 0.027129509226940376 -0.4609661438084126 -0.2691739321613429
Ni 1.3862993474901206 4.062728908604237 12.723381491097928 1.8433634672275157 -0.4410398371981308 -0.26324136872699183
Ni 3.1391643339427984 8.903515420678668 7.946334943959447 0.15435412140526966 -0.6101173808565041 -0.5683757781433436
Ni 5.88422753907283 8.09718403716367 3.34846231235505 0.040696192167781524 0.9608341068883453 -0.038632110549901205
Ni 3.314667762299564 8.555197398624458 3.3058802860451495 0.46036296300677493 0.4662379337303132 1.1526975380929827
Ni 3.66886476182924 4.480692305681767 9.28768700210884 -0.45471759179553944 0.156500221213995 -0.6875019295842547
Ni 5.277407687279528 4.871958764735045 11.594940475967416 0.29818446046108005 -0.09575122416039637 -0.12699449844539418
Ni 8.416016024902941 9.22680449366678 2.369993556889008 -0.7092951141999462 -0.01928353081996034 0.027690009716100698
Ni 4.761443102890029 0.8204810341086635 1.5328772951982133 -0.4301435020006011 -0.4728369271040695 -0.33215233276609246
Ni 6.1933432632634995 5.9985531429096985 0.4684104926332919 -0.1377604787126466 -0.6049319800008227 -1.235532568412343
Ni 8.298855751306583 9.129003829617542 11.34350344536202 -0.44191324094201956 -0.7091351915833142 -0.8793638181269952
Ni 0.5145445151016258 4.797418799162382 5.6951104041155105 -1.311424077534335 0.03967135044769297 0.9573559185317576
Ni 7.893944595693965 6.361117431311435 2.3598543715499236 -1.9234764706300225 1.6735495596237502 0.5676165313798159
P 8.693859234801632 1.9454949243852608 3.6125997572462065 0.9948611145660673 -0.8243753777062576 -0.6234354381216488
P 2.126057007779056 3.5380142182047414 1.4007953564466824 -0.013540200578279907 0.3045096313481594 0.2065986805322829
P 4.882604727047208 1.3307179449391178 8.043612424586838 1.1919189454874506 -0.18317824472581354 0.7130111295989527
P 8.693740743782746 1.835024836009047 12.30880511422177 0.2798692070916599 0.7827278773688003 1.2586174752562644
P 6.6173770463854655 7.9977062694625145 1.2133699086512957 -0.5414588991478416 0.128781672252804 1.7310772215265735
P 1.8087289445102535 2.8492441548115597 6.058392930385566 -0.34148183769713447 1.4878007259572827 -1.1196994859004072
P 7.108941595578337 4.411056045352206 6.051335423006878 0.6761690210699387 0.9605361160319522 -1.7025734576599258
P 2.5515400272089277 8.635169721678327 10.01719974661107 0.1334058012883767 0.23712744524875937 0.10169407200739261
