# total energy = -340885.6917643292 ev
CRYSTAL
PRIMVEC
9.13808337861970 0.00000000000000 0.00000000000000
0.00000000000000 9.13808337861970 0.00000000000000
0.00000000000000 0.00000000000000 13.37450871623288
PRIMCOORD
 96 1
Ni 7.286186826843074 0.45316943496841744 6.319094323276065 -0.6146525497226962 1.4056830334199208 1.5306959826589122
Ni 0.203654981730266 1.491984013662245 12.381892821628016 2.251149170358207 0.22407935381554958 0.3872772987646943
Ni 0.4464913236247963 1.9615444288127277 3.393594494925153 1.3820070299592198 -0.39429923860848226 0.256417660936939
Ni 6.798066964321361 2.6082100382033877 4.702075742163766 1.5719477902198475 -0.0532539742281341 0.11004630062682984
Ni 3.2783879361642954 2.139453774391491 12.491095659599658 -1.1846347531212114 -0.3830468056231145 -0.16227800423803665
Ni 3.179239731349997 1.934185007134017 3.3776247803875066 0.10961615506794668 0.9728745829926471 -2.227891742492163
Ni 6.8559475845327675 0.6043261276057669 1.9687808770516626 0.376395618855184 -0.20384785726002314 -0.9002859129916431
Ni 0.38049334393536693 1.2840012356370434 8.287433830899845 1.2196349233454802 0.29969781178181293 -1.6418848815306175
Ni 4.651677384634566 9.47710628690407 10.99973120799146 -1.4164284448618834 -0.2612654759475436 -1.2339811647648233
Ni 5.294779141501947 6.038153087440969 3.0320544497552553 -1.452902628528517 -0.546270461603872 0.6780119878159484
Ni 2.480349975368211 6.985141807543327 10.69005801035202 0.28709786362961526 -0.5827801264941318 0.15358510444972903
Ni 8.123344922644689 3.4377286962884357 2.465885303165395 0.7338987716812393 -0.3124797940378296 -0.6295873166556577
Ni 1.799782076589436 2.9875410179311617 5.338328505528076 0.5141391282869662 0.23685285143113402 0.5705735571256109
Ni 2.2464607309237894 0.5368404679399532 4.922447933653228 -1.2707726225615599 -1.0632668568339754 1.0965721558543244
Ni 3.3055371819249664 4.54537406052353 6.775218100605447 1.2811850761441355 -2.2210886035274005 -0.8235330843106203
Ni 7.655785747757278 6.472065839275269 2.8742223871993025 1.4088251785933286 0.02449592825883523 1.434102979323511
Ni 1.726476371610606 2.987869988933311 1.4085496570505884 -0.1486969231194923 -0.8011025232212461 -1.229686136933895
Ni 3.0225581534932258 1.9559519217761978 8.087806002520884 -0.8920532406692055 -0.018545881322987415 -0.8237685973601941
Ni 8.04164131902767 8.667892450118318 8.786891313487281 -1.1771243036767793 0.39030785806090196 -0.0032971826940330316
Ni 2.7509194865522266 6.7414108472846195 6.71496614775355 0.8016704799095742 3.215482291538746 -0.28024253127067866
Ni 1.3040958810183008 7.496079464297417 4.406379243073955 -1.038737247123727 -0.8474353448495148 -0.049320443501682805
Ni 1.1895500056867585 6.091135694953715 2.061694167566902 -0.8333654970200098 -0.8954514677174772 0.8743589087132362
Ni 5.1938307342592225 6.207034006627425 7.811315013298189 1.3357060900101514 0.08850534123126047 -1.1410555829786801
Ni 5.686729814395485 2.648554676383584 2.4423190999031283 -0.7199762480628761 -0.30312637784738766 -0.4630022004018349
P 4.295429203557567 5.8664210862358885 9.744666627226762 0.8291419458569654 1.1985655042696906 1.0082604186911088
P 1.6396737174602816 3.501146995036015 7.7952657974350235 -1.4929467889345964 0.9021404497018787 -0.36998303046062087
P 4.491340573420586 6.052143493115686 5.5549147890678094 0.20700568616271442 -0.33373844630628974 -0.16679954625747404
P 3.7039941701943375 2.239323887793838 10.203693573650106 1.4543190492600695 -1.22417292042515 -1.0137443246238154
P 4.660312873440972 5.754397321920821 0.49477787008186874 0.27946785788818324 1.2245421308391105 1.8445767708093264
P 3.940012588069334 1.8733527859866634 5.3100406545766345 0.9615491306774988 0.2415679975186162 1.492789951641758
P 8.547964243668284 6.4227932936200895 5.251513971869341 0.40692566912324113 0.5819517170555655 -0.0018673922260419454
P -0.199994265523021 1.414639275823699 1.3582079556384252 -0.5647847183579757 0.5096525532705223 -0.6992955797850731
Ni 3.842335614681312 7.757711929923056 4.380900438957529 0.5230821964128669 0.30083938158542384 -0.21021699401116054
Ni 0.012397637739314194 8.519005657395795 2.182626649381828 1.1488992473928148 -0.771192108815059 1.5798336207258277
Ni 9.382161600450562 8.260937044293435 10.93975979429973 0.334616735146185 0.11561839539796863 0.07653094247820368
Ni 3.3353364718696143 7.024764537135473 1.8555929209123236 -0.10129683656897394 -1.1964163191371717 0.44520091055435584
Ni 3.450302699037236 4.175354787773246 10.98202342999246 -1.092938672866795 0.37732970063367915 0.4840921883029147
Ni 4.291061199695703 -0.003275089088059414 2.0535621871554506 0.8057122540791156 0.04281863782742303 0.3538413877037519
Ni 5.556859373213843 2.7205810496873903 6.645940721036012 -0.4205681996073402 -0.2462630890014404 0.1809059037518691
Ni 9.22626589776559 4.451626462994508 0.3571619894163008 -0.8034566252757195 0.3645001529691787 -0.6938803223067727
Ni 3.6424674547091143 4.295712484142751 2.1469561408571627 0.6439770097184264 -0.23522508601972394 0.33128509966979075
Ni 6.676640112194873 4.831843836811405 1.3007449458380793 -0.18514976662988758 0.2904742363010159 -1.1805796092152314
Ni 5.12513976139387 1.353679121508843 8.532281464949179 0.13901903371009605 -2.0317757066587587 1.0677205217299548
Ni 2.298949881933313 0.24885559742551455 9.74731484379406 -0.7533620226121736 0.9625402909461745 1.7343139832963164
Ni 5.81524781923496 2.510249784230182 11.218230092385351 -0.27558086412895116 0.22933880244227597 -0.24105454821730743
Ni 5.624974646825437 0.7283527644575704 4.182195557001263 -1.4793556805137231 -0.38149128821053657 0.40760366902687223
Ni 5.344225310741593 0.8493610923646585 13.164715873574716 1.039974461964938 1.0324732684918865 1.3763359477163715
Ni 8.905391237502982 4.26641578878472 8.635599377215714 0.5314035717943686 0.5628659040687081 1.1110610934991187
Ni 6.396905103367654 7.68043115866826 5.307232521549959 -0.2670180621606047 -0.8523039857957257 -0.06653757871091767
Ni 7.289174980112592 2.483511752222197 0.18925975896123698 -0.04373986409011177 0.08317313038506965 0.020060775305617062
Ni 2.700897618058819 5.437854113186507 4.034380661460743 0.5781901931306043 2.1474403819136305 1.4571045824250068
Ni 4.490307969997174 3.9308014000091664 4.663985469156628 0.6037718982544504 0.09958551030482203 -0.6310042516078423
Ni 1.5142261086408628 7.3504823815963825 0.004793838547979823 -0.30443635490806276 -0.35652870472792797 -0.33352813006769655
Ni 8.874148130382238 4.19280852705392 4.737130343867741 -0.28380865135538225 0.5883254817923932 -0.7787825195678071
Ni 8.085723433315614 6.401428454647201 7.574345320941979 -1.9568437332365587 -0.5367756347395594 -1.277167213233994
Ni 1.8545740246140014 0.5456852188560601 0.8502164169702454 0.7186773267457945 -0.2895165003734369 -0.18978058053367963
P 6.510564584610075 4.331990675213052 3.5396174123123028 0.2905518836164867 0.4666379973822093 -0.2765974783189237
P 8.808874800705876 1.4160556787496175 10.249460750515725 -1.167566741895331 -1.8420794583087696 -0.740238597856338
P 6.015865302045386 8.000912881344968 3.0344349204791374 0.38168952026427166 1.4957935143547723 0.5903057454472156
P 8.411523520527059 6.641650390882988 9.728109333926945 -0.21331517332051003 -0.6427331100089962 1.700234010893472
P 2.1276016802307405 8.735304091308647 7.757857225449005 0.47471923172844693 1.0713336930025097 -1.9176840323179618
P 6.737700785427052 4.13352978008338 7.830052653295583 1.16462539987882 0.9039952435224303 -0.715221249876394
P 1.5422891627408362 3.652153823105719 12.101308884853585 -0.4943845713678582 0.014704653200026287 1.124461940286057
P 8.572125336159438 6.625265807359298 0.8065391197766137 0.53868827838124 -0.42523218074191277 0.031147115026765718
Ni 0.28506251144534994 8.499020669015254 6.507782038216899 0.44297896320237257 0.15063630623405025 -0.5979794599423895
Ni 6.684608520913589 5.227760437897516 5.563407723773285 -0.4936194110670596 -0.45861641262931335 0.6216698615807938
Ni 6.8978822492233505 4.951369967592145 9.968529566572359 0.2576787870375498 0.33300311080216194 -0.07617638735226236
Ni 2.6566053278528368 5.232859488430823 13.532729337020234 -1.06526357554903 -0.851536768612398 -1.4248830033871396
Ni 4.915767994692928 3.9177156645903577 8.879055281164291 -1.1204571900020381 -0.8982035765413177 0.36563478079425416
Ni 4.018408205498077 0.13495121554816247 6.672930050337305 0.5416309059493317 -0.5983586976586791 -0.5844035210301677
Ni 6.188447145006016 7.459581959225683 10.021251738708404 -0.14042028493299688 -0.37827972325177434 -0.5693648815294905
Ni 8.388879349879149 3.232039577194883 11.275553289509784 0.9897430766132117 1.385114208129634 -0.8500046482385877
Ni 6.432059310180614 7.248135847594526 0.8594742092557169 -0.9775303365971036 0.9702060350215485 -0.7442901422178924
Ni 3.934630256950843 8.088355201332805 13.190716462252885 0.0966012308655175 -0.7044185028339353 -1.0619941607691388
Ni 1.001141002289412 5.429364833714388 6.4988879416504695 -1.444224641138545 -1.1093929617680764 -0.11423437056624841
Ni 7.965210389528428 9.38170469628091 4.102844096049609 0.6719824937924168 -0.41280115406741164 0.24412778782599243
Ni 0.9071293141503315 7.181025763156165 8.43871297385466 1.193649555025312 -0.8163486507470392 1.1813180300431525
Ni 8.335851051949437 2.909839894840288 6.808333601013421 0.05883223964685997 -0.4159430421305029 -0.978112948573451
Ni 8.624906905837538 8.719677968706579 13.360465499361679 -1.3488585682317091 -0.8474710831834565 -0.30050590950540507
Ni 3.8934631912652753 8.021948749315706 8.893633265601181 1.5050505141766661 -0.9820115122969088 -0.5464746071948782
Ni 0.6108095977731166 5.543846742462179 11.531421452131106 0.6415090077939081 0.16384123496009848 -0.9024839490842264
Ni 2.5567809048674546 5.391103678547801 8.768902996328114 -1.814136709151914 -0.44055107048717035 0.42689517026663254
Ni 7.703002224649028 6.519666115669525 12.07647248799969 -0.983905386885512 0.031743353849867914 0.051653462510233616
Ni 4.88832633026368 3.7233943212377256 13.428809225058098 0.4322340659810427 -1.409993230759501 -0.7684582548236637
Ni 5.1477291035414225 5.672044914382898 11.750468621528578 0.7938661533738071 1.0247908122459641 0.21249344875016307
Ni 1.4478927612909094 2.5574022945381802 10.094624151696003 0.9804431393685245 1.782698288136975 0.6056488035621892
Ni 7.092167040242411 2.1951229784217867 8.96376988325931 1.6244291479480153 0.6796832048707843 0.5004958264719188
Ni 7.308986344908666 0.3345927510522128 11.488809655461099 0.4325407985881841 2.1518212845901457 -1.0203808561037266
P 5.962279581028699 8.122083867136451 12.087118355152562 -1.2907403239327382 -2.061569392981424 1.5653706512229622
P 6.004588907138395 8.40838001983986 7.74743798276428 -0.37638430600127437 0.18450339129514032 0.40390847956347214
P 2.22750834596666 8.77150003962841 11.895020307489451 0.17070119530472538 0.7579432142249527 0.8191264706024924
P 3.913347660728493 1.912189640407011 1.2727568240219287 -0.20563734506027811 1.875771965465208 -1.336627573383156
P 6.827098655260995 4.254061100037353 12.0979122592564 -0.9537872273438929 0.4160993652027092 1.7198381582776447
P 1.5596789354377587 3.9965316338551804 3.2517714406654377 -1.351587022906466 -0.9293365505006963 -0.22732460022572462
P 9.33363837763361 1.4239418447177963 5.480445806073047 -1.160314431208292 -0.9305799359894941 0.6064592152786265
P 2.285041719009132 -0.44085312617130124 2.8549227550732383 -0.7863870713879424 -0.07592621901466924 0.38352785902459113
