# total energy = -340868.1382023755 ev
CRYSTAL
PRIMVEC
9.24983467284638 0.00000000000000 0.00000000000000
0.00000000000000 9.24983467284638 0.00000000000000
0.00000000000000 0.00000000000000 13.53806803132759
PRIMCOORD
 96 1
Ni 9.123222771978021 4.882885887910424 10.452240843868415 0.4649086733959283 0.5098487284417285 -1.9912651481392223
Ni 7.3707491263375395 1.6802416879776174 13.73910848691858 -0.6108064365037287 0.7155894318490902 -0.8162566052538651
Ni 2.5797418445822236 1.8910546662199497 12.059589211015938 -0.06763132599572867 -0.7774568587778481 -4.701831115540851
Ni 8.83906785593202 5.160695417484826 7.815607892152697 0.5038734846948999 0.13208862513884995 0.6482946632571739
Ni 9.386269565679722 7.449973958887475 9.249532962100892 -0.38996410156823813 -1.565772257536755 -1.8454470892294217
Ni 2.4666903672412657 7.07728887677779 10.839402841964544 0.1164887138180639 -0.1248288582526431 0.2941087477298096
Ni 0.12724997330875185 5.923806764288056 3.408194947324274 -0.798668974079089 -0.25510922653816065 -0.29344180356977206
Ni 8.504843585701218 3.444416374269083 6.269289933080419 1.2698480538647614 -2.3770221536046483 0.4840762474633147
Ni 8.412567236662323 9.029096456037784 1.4775852138032983 0.32588398325887746 -0.4032147959305572 0.6169963673645245
Ni 4.08553165376337 8.726090377267115 1.9567516158038274 1.2560445723227658 -1.172261319157523 -0.6887815676276267
Ni 5.8767713558214565 8.577251290219712 3.748759054125971 0.4522164226402406 1.067901527392509 -1.4391989057891794
Ni 2.1158626440709276 2.503874701958223 4.72301174829652 -1.4750814786184014 0.8153667464497442 1.4611538127937158
Ni 6.6294118899630945 1.4104055157479956 7.56488280299738 0.49078811226585156 0.4569583082006001 -0.10518537299010272
Ni 4.34942018240518 4.831799051929888 1.0681653389336832 -2.283986271492886 1.7003350552477103 0.26957888090924537
Ni 4.694920000899655 8.210014360634478 12.771203954169984 0.26526328425302703 0.3675301980447541 0.21611510466315037
Ni 8.122520176035547 0.42664491668800286 9.753284499236795 -1.3142746596092525 0.150241899009109 0.06404180887225745
Ni 1.4001936984525922 5.199951715131285 1.3928641295894786 -0.36997017494481443 0.8478924869915913 -0.9834227908221387
Ni 0.8893318135313849 9.511234829865318 8.41937881479306 0.8317462162490321 -1.2823934946299398 -0.28855747889427724
Ni 0.7544488767876995 8.83881811040034 10.93309996558367 0.959515902297554 1.51813485816445 1.3748843028715094
Ni 3.0593272640859066 1.0801771740240913 3.250218873751147 1.2611052746751248 -0.039109050186319744 -0.9324797241153682
Ni 3.4396804590016496 2.7063628291445196 6.8164981177122765 0.9837279807673832 -2.502204795652284 -0.4361490847647327
Ni 3.3762728434581812 3.4367482614630243 9.530447661119196 -0.7114126747635813 -3.5480557710026566 -0.5537531431341624
Ni 5.186252710226855 4.701404134888856 10.30288931598934 0.7495287649090124 0.7560845637496592 -0.3494144622806498
Ni 0.6021337019326761 7.7442389440493065 13.46680353385912 -0.05728057888902393 -0.6908109393528296 -0.8465627124365742
P 1.6649794610415527 5.821836588686131 8.94154214751456 -0.6436689915597044 -0.41641381111933445 0.296382888475967
P 7.084993988921876 6.5174333934249145 3.128133083047489 -0.2695873655496776 -0.5535112023266855 -0.6060915475265627
P 6.383791784472029 6.103817793623058 12.0878160059966 0.08090387473491872 0.04946416816839869 0.3697071510914149
P 1.0878082874921235 1.6364992205954054 6.594893357550971 2.653026221313947 4.283311313822107 1.2089219078033502
P 0.34862348760739004 3.6547853604550933 3.9450470172424232 -0.4150863505571625 -0.2561201843011783 -0.6064751561182264
P 3.298102492042011 6.402106456795306 2.87534990571443 1.1439303334233137 0.9571800550755257 -0.9498477830801707
P 6.25709680123368 9.324850664555196 1.118070971047713 -1.7759951650851866 -1.176836340122715 0.21993499262987284
P 2.4629071849280226 8.644090594365169 12.330823958222972 0.9153680041357461 1.3117626918206764 0.15716459427087126
Ni 2.8708526361772693 1.2212648997548752 0.49340744720705343 1.5635222851603137 -2.3106105589486337 1.7968357559796218
Ni 7.497823352790664 8.01929202294071 13.103279487844876 -0.8838851030361163 -0.11644269107147688 1.4713526077035886
Ni 1.1800013880204603 7.154016254010916 6.885366835548504 -0.03974951198379606 0.14038300393715825 0.665052599441803
Ni 8.418810874954348 7.044340966264905 11.308239953771434 -0.43035664645267174 -0.5092954270414197 0.2738278859935865
Ni 4.453314323584499 3.0960953562500624 4.049493373541793 -0.6756452873559847 1.1295696938262676 -0.6593200678334
Ni 0.9359167550575074 5.012642566370493 5.508842538615121 0.16471952379999374 0.859258819847004 0.6473965769229366
Ni 6.00820225432724 3.523927951688726 1.5094407188609424 2.0187666959936004 -0.783620821496715 -0.2338264058999844
Ni 1.9971780175153853 4.107796005421011 7.414854187232414 -3.32695683997167 0.9922966962730009 0.9637427958947079
Ni 3.525666920575987 8.39230084925813 4.439118602567058 -0.40912113411266315 -1.0204394772558039 0.4477558157657256
Ni 5.352351988463771 5.193458331307578 3.2815193887383884 -0.7140182307072284 0.033884825672902935 -1.1107003677255904
Ni 9.064467823191427 9.558131490814317 6.12899491816686 -3.106327392377934 -2.668655957431404 -1.1828336953567307
Ni 1.6668479276119073 2.5344454050028857 2.0630525639217923 -0.6249382479194205 2.3188805122669094 1.8456586910195958
Ni 6.40529764970012 9.08644542997936 11.455642541519946 -0.05525609225982742 0.8226190571367833 -1.6126025876267325
Ni 0.6777557239422495 3.3401337400404816 11.867321225976099 1.575387669139332 -1.3947046800315466 0.8467324052452192
Ni 6.05026125182923 3.822096367012388 12.591364046773355 1.2820191420096567 0.73653132420808 0.5718483100729765
Ni 0.8215323765641327 0.29816471538985917 3.9755215220082163 0.7808645989078165 0.38361013432575225 -0.5422636544373242
Ni 5.865662304578903 8.81930095959119 8.925823903737315 -0.00861242425935936 -0.8486093105529577 0.14627031595587067
Ni 7.502106026167269 4.050743026183649 3.416318151988063 0.17780129668461636 -0.6650358872712546 -1.512938401565175
Ni 5.947810084832957 1.9848942372904799 10.020661140471084 -0.6910130280613068 -0.04867509660820005 0.058229058845222295
Ni 2.3425853376647936 4.654257728408176 3.5138326823081076 0.21508254963357798 -1.017326899768751 -0.44603189109608343
Ni 2.440457836580248 3.5361469830720846 0.09429003801100704 0.6877808942772542 1.4007555142113166 -1.0163894755561462
Ni 2.30474426469786 4.73943945438043 10.878582365984597 -0.30609343089551155 0.5332920470663332 0.6485126928052508
Ni 4.123529973916917 5.529939561158016 12.330648211367345 0.5804041700627875 0.4485785687773371 0.36309555931216825
Ni 5.831576664421692 1.569141925717574 2.8255978208532113 -0.02009214276418475 -0.6675586536931084 -0.39030117319268265
P 1.2984362690443216 5.563155716871596 12.628079414880823 0.3613505515966035 0.2755386980371061 0.6074200365299991
P 5.292394561191304 6.741399636335783 9.024909055956599 -0.43450075052803233 -0.31279732527824844 -0.4872510456468706
P 0.7352434454014262 7.391616752984668 4.788441377663155 0.8260627927110097 0.6221434587831026 0.4053436693481019
P 8.327561257545694 0.8506453056905385 11.86353064379525 0.4785851424417563 -1.012545676330024 1.1888616467183653
P 7.545312003148092 1.0635922207535677 4.220939056123585 -0.009643436627035006 -1.1515698522464424 0.9861882693824177
P 1.7688643523863659 1.7252513826872478 9.705535928529729 0.807182667977055 0.6116775262547725 1.690127004366457
P 5.533472997939577 4.591266355417511 5.639214331069886 0.6078283277120112 -0.16046023430300752 0.6421528120254941
P 4.27773396497821 3.3062885955804453 11.645377921871848 -1.5882946070089872 -0.5207615186994902 0.04255612819465575
Ni 2.632031159048632 0.02789010100461936 6.834856264257736 -1.4305733689036975 1.2742428404983475 -1.0951781037202752
Ni 6.6584748699831655 6.130790311044612 7.1198325656079335 -1.0869729422016634 0.909995169859607 1.7215638827194997
Ni 0.5350539020900457 1.696789641910114 13.676968098702531 -1.0524263145750457 0.25379436438147907 -1.53908934892893
Ni 3.134269423259237 8.06703041882982 8.778827383723648 0.37505298878436055 -1.4666271772034611 -0.6493639850619526
Ni 1.612079657497702 7.732500904060297 2.123594580735083 -0.3724083520726619 -0.7434622469999583 2.299016426353131
Ni 8.21062484971192 8.150630423101425 3.9238602713048136 -0.2972218394374946 -0.028680141543511898 -0.05129582206049876
Ni 5.186594954103603 3.4492447878815837 8.041395427477935 2.570673272837327 -0.07725445090778953 -0.4985135059345672
Ni 6.415796211865231 2.68356198708549 5.349310642877966 0.2195470131628348 -1.220714529562904 0.24999016014404044
Ni 8.405352365747092 4.805844016304071 12.724849333523077 -1.3391521395772228 3.016398174215954 -2.7531321228986134
Ni 3.792321149735302 5.301292901986756 8.252088157871679 -0.1040548589300853 2.5948298154788727 -0.7348804188682183
Ni 4.084504922133125 0.25096095993523804 10.450724795992766 -0.8145149399724101 0.3196410876729592 1.0255271761913562
Ni 7.86075910933028 2.787123134222568 11.192881567704504 -0.6250881432337234 0.5904746669249121 -0.6880788851336472
Ni 3.4980654144079772 5.100183000141957 5.5450436159240155 -0.2947168136274537 -1.377202923702357 -0.13601135723202382
Ni 7.571507534471082 5.237681790084139 5.299029467482963 0.417282586877533 1.8449246410670486 -0.5334380857258941
Ni 7.153905255996835 5.773663450575207 9.632917327784483 0.04885738782233521 0.7901215987297102 -0.3414800379249216
Ni 5.055284303446407 1.536564008584956 12.714560742601268 0.01414672381402725 -0.34496285426719947 0.1493659241620589
Ni 8.171525799252075 5.802541433905143 1.2587128547552735 0.00040623429948317134 0.3757672412425657 0.7943047835731224
Ni 4.726693182430189 8.700782830056768 6.684407706006165 1.001344665407882 -0.2719476382517381 -0.03281678941970477
Ni -0.037302732598643196 2.2576903565622475 8.71217955115248 -1.230259492938862 2.948044111121588 -0.7191390968735615
Ni 6.894539896428803 8.536912761935968 5.9829058069183 0.2200969721290338 -0.23188959388858774 -0.20267929087321868
Ni 5.921013314267031 6.6975276712704765 0.957539168200383 -0.5235298254732467 0.225008036277406 0.24542979446686766
Ni 8.50099565454643 2.0212923360743673 2.5115418897808315 0.1693264264443858 0.30008810524169605 -0.1282659089586501
Ni 5.432205809760163 6.756874609465501 4.888745658070422 -0.6006338668461011 -0.16552839285453427 2.194692630032375
Ni 2.89381997525742 7.18907312679133 0.3185559755598921 0.4237579101892315 -1.8165954551050523 0.06531424782677785
P 7.284244674030826 3.6130038579883035 9.062978599835848 0.4126024077930443 -0.16016918542514996 -0.15446107929677916
P 7.891755304762251 8.669916132307891 7.859484482135255 0.33912490742918366 -0.5350612231516141 0.10358691815473128
P 1.2294140039552828 0.4722549256571185 1.7316272936127202 -0.2813563331601477 -0.2876863891432336 0.9876021190108087
P 4.401200755973719 1.230801479131289 8.454564260273118 0.26260193537078 0.11072532897172543 -0.5528519714761319
P 3.2887139100177043 6.948817925314154 6.369756085591554 0.6173887177069367 2.4585713752330496 0.81970111215904
P 8.548068062351055 3.574099054053099 0.6698471154390161 -0.15877796150457818 -2.0738476961281442 3.3020958150639323
P 3.9210418467306205 2.7687529628922505 1.6868432948650531 0.4101935412412355 -0.028329443072312502 0.7640570404321745
P 4.105067304241532 1.3597071728167407 5.2293088398886685 0.3656766897757831 -1.7811476558204034 -0.27327458459327775
