# total energy = -340862.3939003303 ev
CRYSTAL
PRIMVEC
9.34599408118324 0.00000000000000 0.00000000000000
0.00000000000000 9.34599408118324 0.00000000000000
0.00000000000000 0.00000000000000 13.67880704537189
PRIMCOORD
 96 1
Ni 1.2033060661708719 2.6270841294599863 1.0796080979360778 0.8004898293379117 -0.5801460313053943 1.3358747543775316
Ni 2.2706933424269238 -0.1236007698977855 4.951946852781243 1.0209660391832354 -0.2425211054605049 1.2852299356374706
Ni 6.731190449703052 8.90933041411124 7.967713112947172 0.4201280267461281 1.4618464679853664 0.7288833207445189
Ni 8.886339269011161 2.816658270602268 10.672082070121016 -0.38938817446011004 1.3312598813133396 0.18633967317293068
Ni 3.813352448672547 7.338053874411779 10.5403689774806 -2.5781148167170373 -0.2458653393423895 0.3320312338071959
Ni 7.4933842937464625 4.931404358094262 10.832247172122477 2.3963825604091307 0.16582895481408857 2.1072082738664615
Ni 7.1153201467592995 2.204112481576124 3.515193746100893 0.33976562633697616 0.2675770199878682 0.6429930485386024
Ni 1.3385893284975594 4.300129197206102 8.605501497014295 -0.6541868603718927 -0.055624531342839685 -2.4287409221351783
Ni 0.519874651483726 4.913749775535705 4.0375731239613755 -0.654067304074893 0.9506275986689885 0.1514947975796036
Ni 8.367636605167903 7.112170546800469 2.205133064114713 -1.066825520719511 -1.4856314862201059 0.2836135046254406
Ni 3.6014039980304315 3.7264440509954575 9.469919953608782 0.21550498188297723 0.47814471247022816 0.2777922699579732
Ni 0.5848050098041703 8.650175348062417 1.3965101913606626 -1.9657166102461565 -0.5776037244995149 0.2301438148420746
Ni 1.797328095201749 6.53101795142927 5.445560195884192 0.35073832329839594 -0.18405781911728947 -0.8415374913078411
Ni 1.0622937095570504 5.762487523492423 1.8296091582812914 0.17086754567926057 0.1122762183986131 -0.3209073559798925
Ni 4.84110336461582 8.622156058220938 6.349551460032646 0.26601610325865155 -1.1012736750950518 0.3645454043848173
Ni 3.313659536509598 4.99498515488932 12.13274596770545 1.4571356927732582 -0.11761408567175873 -0.6238252173608998
Ni 4.93519883163517 2.0380622071886796 13.579745087545644 0.5531533047666344 -1.575853810142473 -0.5438299704831795
Ni 0.991423037486358 5.064715615698951 10.78560225095175 0.48054895103634654 -0.6955726224075311 1.3370201808358846
Ni 4.933675434622441 0.18426468198319465 4.184469718361787 -0.34062643167537465 1.3486433668971096 -0.8784886146108934
Ni 0.9169177083711856 1.0681069177896723 3.517737725652211 -1.5788393751333585 -0.07399274943738225 -0.9642657582777135
Ni 9.195719706510321 7.137245848549864 11.05432294180136 -3.649522557490592 0.7199309966472375 -2.0168193424592427
Ni 3.751734310605545 7.346670880827337 4.040309630987922 -0.3569483087638498 -0.4569459669054259 0.4233940990919095
Ni 1.1389495518785353 0.24119767328650954 11.061626836067909 0.44170395314469085 0.7955404557524363 2.2389515998507505
Ni 3.283219634236851 2.260739858877499 11.713559447368551 -0.5571765669934147 1.225721238748876 -0.626205030446986
P 7.733305304260341 3.614114549793077 8.358161636508365 1.215461765804397 -0.7985823279025537 -0.6643640580152106
P 6.026904384131225 1.634642378633828 11.458230631240042 -1.8387267397864528 -2.270355053862696 -1.6945647284228362
P 9.127148148949637 8.459171269846838 8.818138747410018 -1.9765342696869506 -1.6930876296566775 0.4453343508084266
P 6.064998655443389 0.8591688117966361 1.8574181632590503 0.1142989052555967 -0.6629383813122777 0.5191013573882479
P 1.6516614336042528 4.383514155166634 6.148924746453228 0.03193824346949338 -0.4505151236784177 0.5424809126544529
P 3.1212535592025503 -0.03360725962007159 7.26548503524162 -2.098123537956374 -0.20321330899981774 0.037237029974587485
P 1.6268665116731507 2.8310417552807325 10.044443435476126 0.31484186651210294 -0.8074320649836997 2.1386978598343105
P 8.808543215428616 4.342438511786614 12.85244264269009 -1.7422694906979672 -1.5300843172168423 -1.1243770938817348
Ni 0.6654880409157462 7.103347928518161 7.383218390141914 0.7485571450243624 -0.5866241828305704 0.35419260039558353
Ni 5.475322513596064 2.930118637071767 1.9310094541665854 -0.5670310911899913 0.46088001185250954 0.7099314622323645
Ni 7.004233662751354 7.061664795531838 9.815214242033175 1.7990530753459146 3.2904451181988814 0.6915385615474736
Ni 3.2609014007006762 3.932607331386781 2.088836188483477 -1.3686195529087204 -0.9765762002139504 -0.38336202287068816
Ni 4.7969248512466836 7.071702393026751 12.71275461341801 1.3510373210505828 -2.7896042496827183 -0.07914318329007014
Ni 3.6455451274237958 1.779552014721931 5.78805068612565 0.033043560718530186 -0.3947404399109589 -0.05783902249565523
Ni 7.013766576573339 1.677923676584425 9.375809532999122 -1.4692990676086695 1.2752381145320812 -0.8585520235879667
Ni 2.5519423381572874 1.754813168754488 8.471135076693427 0.40987626711113284 -0.3387852647015778 -1.2049734646785635
Ni 8.900161994053038 5.909565430175331 8.913534242186858 -0.9541479531174213 -0.8545894393957927 0.24854134351265586
Ni 5.0716596891986905 7.281333037170971 8.62292803732064 -1.1271086338802847 -0.06628483927016326 -1.437046635332867
Ni 5.602932714895448 3.6707793110702243 10.88991662774851 -1.8185350953299262 0.13407248833809812 -0.7359484551214164
Ni 2.2660483834371923 0.3141711939944044 0.6142673211104673 2.1716352339922795 1.5657938548033097 -1.3993473210098804
Ni 8.621127998887195 7.429410965205794 5.279623008023458 0.6139694076127427 -0.3689427621215646 0.10614773690337204
Ni 3.7277992201172103 4.536657611918628 5.209135521704435 -0.04563913799535366 0.8076637213785316 -1.0139379286918602
Ni 8.974191612076506 6.345154169882407 13.505181813268026 -0.45220870933075663 1.2744734684519148 0.17647306479149608
Ni 9.011799891703628 5.178615243883777 6.463427723232613 -0.06899786732595213 1.2576728519548082 0.9640569847010171
Ni 3.58660928961847 0.6091559970229741 10.286996277884386 0.4316859067870566 -0.4989804182686568 -0.5595964892888169
Ni 6.6116645331644674 4.66114625124101 6.337226897819852 0.4956369557177206 -2.2294799129148895 0.28283008949219685
Ni 6.381799812133387 5.097622860372683 8.900471346452555 -1.4720249511802648 -1.6391965360651768 -3.58805056622804
Ni 0.8315672878844145 7.776904366005005 3.6352383653033207 0.9695869133803108 -0.21435775565241147 -1.0791763289753802
Ni 7.946636962006039 -0.13547952819949327 3.2453926583514594 0.39065701387020463 0.3588925769744141 0.6984890247233777
Ni 7.889448825068077 2.0967363571635977 1.0741257378890428 0.8446091882546293 -1.215597777161629 0.7884400972622292
Ni 0.9192504684593887 -0.02568372595509295 7.140337503346249 0.17363585245301708 1.1422742858771295 -1.1917402538177413
Ni 8.552481673374965 3.3389217581378565 5.333872764465704 -0.8281762395095866 -1.1429160332261865 -1.2997396992178714
P 7.274800187404731 5.023116596658116 3.6133528512867126 0.22488770864945784 0.14324901263104362 0.035286591116436006
P 2.011613044329645 6.364836833126621 9.345634122354966 -0.3091147342203386 -0.31479173000045785 0.9742215839388446
P 5.345497311732159 5.945482084898747 10.454917620259243 -1.6202176809698292 -1.3410185033620001 2.0372493281788207
P 6.688339067473838 8.22518496548684 5.295695313807445 -0.16048440267272363 0.42804573893130793 -0.71679682189363
P 8.615819474327502 1.1217903069989636 5.245698919208716 0.6810245493900271 -0.17113853995246012 -0.8913927242670712
P 7.26740750619572 7.5518061018849165 12.026885763510498 -0.7550111281798223 0.6034582236687736 0.9071947242963343
P 5.457985694831572 5.0373131614577185 13.584929310385895 -0.3650907353653261 -0.36715584542447094 0.7899274804410332
P 2.8333969457543997 8.734784631229498 2.7718320798528735 -1.147551475115669 1.3973164066227808 -0.9988962038673893
Ni 8.105883352802891 1.475012802085308 7.318312331405722 1.0753947504457608 1.0266497198315738 0.5134518724119544
Ni 7.890495576389707 0.4799616497502302 11.011767827580142 0.3243567479810736 -1.7479907094524605 2.0973416654850268
Ni 1.9357889954690979 2.9393431330936277 4.4891790280881745 0.012136378252217809 0.6374325237316893 -0.3034724483328967
Ni 6.349715014926651 6.913465369575755 0.8193455316049941 0.5599014221237454 -0.9782494741513152 0.020048176900126762
Ni 2.9115014171370683 5.779684152347767 7.501362034176311 -0.02903212556629194 -0.8446366990584551 -0.17718063238148196
Ni 1.69036319452272 7.294922112364271 11.902737318367645 4.122088747431778 0.18432547095637933 2.242968691429944
Ni 0.1370627395734581 1.0645087101215702 9.277856039680053 0.13023820219367246 1.6177285959993883 -1.4440906866638419
Ni 3.2948460507020942 1.5642763902360641 3.1165244862673305 0.5128636040086523 0.0468598977763322 -0.5218339258280625
Ni 4.666538889746191 3.474728396125359 7.07461086634185 0.395122505840726 -0.41532931980590404 1.6034286344369482
Ni 1.0175731285392127 2.2523751942984047 6.61117293388306 0.15858281477463654 0.7154783601925226 -0.04552369546341192
Ni 0.2481838037589931 2.0726984607418886 12.87282438628125 -0.7211263025069192 -0.7994796429058425 -1.2400523106595676
Ni 5.3230856182565525 8.915984761798743 11.356049944860498 2.520091703235034 0.8312695337229297 0.0033810006570909514
Ni 7.421485562342026 9.098156875738072 0.5948697106815182 0.909777397421846 -0.8232052686575564 -0.5024598921768251
Ni 6.927334824587349 6.817771737592132 7.05550111252635 0.786831872234845 0.0792722526687667 0.17089299960055732
Ni 4.417561611101427 8.496994507334652 1.1144256637717838 0.5291006346928049 0.4298622233147565 0.9309049234290806
Ni 5.070351250046653 5.133904008859882 2.864561162557739 0.8935838183811191 0.44854488732592424 0.05061936481876443
Ni 3.761173764488098 6.004473998667732 1.0351080823752978 -0.12986282113212474 0.20738440965837188 -0.42233891835451776
Ni 5.926780751018561 7.793287893387297 3.2256127967702364 1.3249051427399052 -0.7840363117675787 -1.7962022361606806
Ni 5.69373839204682 6.145299435402691 4.846620304840444 0.8439715546706302 0.7923869977251192 0.10712064233960263
Ni 6.416594947583629 1.164781879137324 5.822343007101752 -0.913756436674252 0.3590735826369687 -0.4620619479757526
Ni 7.333352839458388 4.211155334867582 0.9466211463212151 -0.21821646727686936 2.853548099524531 0.5167246296259552
Ni 6.930288158673375 2.9276139106950105 12.602858809038418 2.9332173305214004 2.135713837505322 2.064061306165342
Ni 2.033211636332199 8.508891957624245 9.304625770131336 0.23856880568097624 -0.3767630294969318 -1.7817359242237056
Ni 1.4260678318051794 4.588677414206043 13.339121258287243 1.0150586725598647 0.3096677785103312 0.5425603597421367
P 4.976068863148441 1.2277925703018508 7.857599546908706 0.8022587483128764 0.8711023494491514 0.06374690333965795
P 0.21650742648757046 3.157487977720033 2.8318819601362195 -0.7402897628092476 -0.4574663581852702 0.6548188375289367
P 3.6602089919205536 8.705307366332892 12.72922412394458 -2.479564689655265 1.8351747607691362 -0.17335303110527564
P 0.134562686193673 8.821076193306341 12.810995963350527 0.010081809716034248 0.25423068058794923 1.1268196418849563
P 3.074972197196211 2.971427930300365 0.004143079114985884 -1.2082745040273384 1.1644235682806592 1.076934841239371
P 2.647224746407414 5.6654574143749326 3.3192306834990934 -0.004654210942559726 -0.32214817036552906 -0.12186797585210624
P 4.833916295273559 6.052484369553548 6.779271850142836 0.7455533252010322 -0.5461552761822465 0.3855646869489618
P 5.148745447241558 2.8434438892432556 4.518055345574238 -0.3514219796289819 -0.3818507284324843 -0.32863866318587914
