# total energy = -340872.1065372619 ev
CRYSTAL
PRIMVEC
9.26545634912473 0.00000000000000 0.00000000000000

0.00000000000000 9.26545634912473 0.00000000000000

0.00000000000000 0.00000000000000 13.56093193362604

PRIMCOORD
 96 1
Ni 6.64052476757862 1.567094428349602 10.083027243500506 -0.967857332283714 -0.20141225123533701 0.10989331998873332
Ni 1.049034967615675 7.454930584117349 4.622664034852617 -0.27490774932132656 -0.5231400462339958 1.1628284558793973
Ni 6.067382168861339 4.74667475569312 10.398943169655963 -0.17491086251069876 0.46181743606511433 0.06793137373465075
Ni 6.435850836871763 2.5376602461619107 5.818643580859071 0.06684045466331714 0.10159277054283794 0.08697939150503729
Ni 4.138017662797506 1.478507400215231 11.078399467590835 1.566175920733077 1.540128845937038 0.1696118188952885
Ni 1.6359089726393177 7.567339100520046 11.303945691810744 -1.8748767073444486 0.2949374142786921 0.07215338223579833
Ni 5.288750279278661 4.914574090158441 13.192033516393998 -0.08800886121081616 0.27423000652801155 0.7929233298445635
Ni 6.978065342302512 6.912456645908883 12.968156927407833 1.812180356756492 0.7711373443177235 0.17959078448487137
Ni 1.831512021582389 1.0773038749305965 8.366390202800407 2.093185734335124 0.9672387248631085 -3.217346084220362
Ni 4.918845465534441 5.2647249509707 6.072328069459408 0.043885131418724424 0.5641272872796349 1.2647693537902736
Ni 0.5520377422499155 4.597936384953547 4.871208974817232 -0.03517783345271361 0.04211261289933393 -0.9444314971606058
Ni 9.277779404015225 7.869291057414829 1.1474396732954049 -1.247964880638425 0.9067861760040061 -0.2076911422655133
Ni 5.845965558535322 6.401031251919461 4.046297057326555 0.4968356040115121 -0.23831400935769276 -1.135920832855276
Ni 8.020456977717334 2.178911041859567 11.75603973608168 0.10409573947034975 0.4978416766785232 0.819321617332434
Ni 4.728041922979155 1.7396079600757657 8.681830811045257 -0.49676695555710576 -1.8760936104706851 -0.8719790956271499
Ni 0.5493590988199765 0.8731905043327383 12.822986683907518 -1.2650478042626407 -1.8363273863163405 -1.6794605257915463
Ni 8.913220758583265 1.8775798705400388 9.121136672465964 -1.0281962383830872 -0.3328413884133171 0.3548430894953889
Ni 1.0418171771213045 6.058163039796002 13.58262902070687 -0.20208819425643906 0.347097384111699 -1.888212505221406
Ni 4.735500615338549 1.819939466604894 3.7629417978659845 0.3828308329575665 0.3308330997340367 1.256914119411913
Ni 9.302610827025383 1.2022578192272313 6.716119772823125 -0.5905518000197507 -0.9824144041622822 -0.7591310638854668
Ni 7.760440476249407 6.55598674386792 9.352458982172637 0.7074356923937042 -0.8225776623758866 -0.5569744782849375
Ni 2.775217281444531 5.067695021750179 9.663995127112832 -0.5943909712601828 0.5954749483529809 0.07168441301917977
Ni 4.698179357172536 0.7214353010065583 6.240605434543689 1.2470068876005298 -0.07080998083402643 0.2945185815737186
Ni 6.64159956051488 7.48978723089504 6.14112222974516 0.8374715487685834 0.36172593265815123 0.5585950446074961
P 8.295631765769075 2.3239432300603102 4.712898461125498 0.4161348464263349 0.9138749645299873 0.06671061395367221
P 9.00088124108293 7.584359743829621 12.492411879265356 0.19789986720670433 -0.05117446599128606 -0.25404530405002057
P 8.274191499781946 5.75161541655307 3.327554297934457 0.22575648440765636 -0.17845949909390557 -0.01916063208885087
P 8.103364281110949 0.41598748743202535 1.960748459802641 -1.015779095665657 -0.5655727614769098 0.23858268963804716
P 6.830105269896093 5.64289455177651 7.2469887269568805 0.7539400066028306 0.8193249597665437 0.13250591518192664
P 0.9718815126135929 6.175889928141919 8.473290405404768 0.6541801755036734 -0.6613057308048611 0.7235585660974957
P 2.636513399928839 0.6461645867342016 13.228160457236873 1.1244853373248247 0.5654442063188455 -0.620116401050745
P 4.807706316651294 6.174815135205658 9.310610622035444 -0.472541764461154 -0.40730902060458885 0.747138667410281
Ni 7.45502323868082 4.902176909566056 5.259620611069097 -0.9350217738109317 -0.3741734143928846 -0.7246636262362165
Ni 0.526855158444204 5.432642816348714 10.98048953728004 -0.4044638378463099 0.06856206534011419 0.3422012323616623
Ni 2.8629148257695824 4.113130647049267 4.731259815968493 0.3840762753288934 -0.3734259947038988 -1.081749231908879
Ni 5.607713614026671 2.356854131005116 12.88045752999151 1.341171741110413 0.4454289674047619 -0.3417692870305662
Ni 7.666581403453551 7.922215344069313 3.6541690465338794 0.15857895811989464 0.39281416942252345 -0.12600899460367332
Ni 0.9568900042440278 2.9261237689693185 12.020206235447462 0.3249614714446081 1.1130087041437928 -1.672808053472035
Ni 1.9058395123986132 0.9843435514004069 10.520137191766956 -1.1204484482512898 -0.38239297408919953 2.692803501211885
Ni 7.698037627751867 9.010795279374298 8.144505686928861 1.7901714565855686 -0.21538491136534518 -0.6501995935893706
Ni 1.3187153400535996 0.8344571906194317 1.3288063485611974 -0.6058133541645114 1.2989102613380406 2.3108242176213363
Ni 3.467856470670019 6.582587869040368 12.50206741132464 -1.0716460820366058 -1.219636208897061 0.9193753255229263
Ni 4.933938893923824 8.303016334477691 13.383514363808258 0.8789480707458154 0.36660820045111703 2.2107530259293475
Ni 1.1203697160317947 6.112680984942183 2.4316374822736164 -0.5445781615031137 -0.1500855759369028 1.0608654464813343
Ni 4.077365985549562 2.9467301438852105 6.430119225575464 -0.7912364290604438 -0.6665569519014715 -0.9574988718675251
Ni 2.3827510814951864 0.5793847366583033 5.795318721050948 -0.08981454696098726 -0.4036935353391886 0.22400350627229165
Ni 3.048881800111697 5.589405072284853 1.1746736291363584 0.41179276740755527 0.3158373976561528 -0.7200549238196116
Ni 7.018814819316941 0.50766547180378 13.478955976548194 0.3733051528553184 -1.4284316399703465 -0.8460932289993235
Ni 4.587457153825007 3.959963388175793 8.321665845013081 -0.07467203489259398 2.415547563373356 1.1245609277577664
Ni 3.5558783059672185 6.433571534610383 3.520715899130074 -1.5617698212455813 -0.7101029548132222 0.1268227487542203
Ni 4.465773915618889 4.239140853369468 2.24927013772234 1.1525463572270989 -1.4320594665309205 1.216971517580704
Ni 5.969214658864095 8.027850811882299 9.18994565748187 -1.7787966390897234 0.5149875923301904 0.4751378073231043
Ni 0.5961691108310272 4.0055957606851305 9.075775777827594 -0.46671153093262197 -0.40200663455506896 0.09771400431372204
Ni 0.06893128903968888 0.47006347031045104 3.9262287881617324 -0.598991960367304 -0.049882229542423766 0.6831264262243784
Ni 2.2217359810957413 1.4240913750888677 3.5357148198647166 0.25214834413762377 1.9792745514362495 0.0476746803681437
Ni 7.034223273222125 3.7669731979225967 8.187168480678961 0.13188267977563095 -0.0654623433688679 1.7008999266122449
P 4.826172371151011 6.864128025602547 1.81186276830715 -0.07692483548251268 -0.022247498544290718 -0.7163736183132823
P 5.692622255991254 8.925015684513092 4.652240298058111 -0.3698290213812599 -0.14372338116430086 -1.5551345753172507
P 5.934080048395992 9.050608945297673 11.275005965456295 -0.33141082661437765 1.3523848362174127 0.7081430028733741
P 8.017677340813213 3.962502123214891 10.360510983273937 1.4449255238603114 -0.6391687896965057 -0.13373233138986002
P 8.61748592289737 8.514009306413252 5.817992219277872 -0.052332747965445355 -0.6253115720984391 -0.1690322922427347
P 2.342548266405234 4.813033954050861 12.216393008140399 -0.7906533028634641 -0.6005024834745594 -0.024918103397918376
P 6.992046915930246 3.706877448055477 0.7189113906976154 -3.4133204522695793 -0.33288329739484607 0.04850129003449712
P 0.5195419337494589 -0.30501511676312465 9.233421958299244 -1.0725727076159335 -0.42032651591017933 0.8498964047954977
Ni 1.5164123821311093 3.6372846054326073 0.5131969492429829 -0.9084931313927838 0.5882272656516322 0.0840251939727198
Ni 5.7792450073800445 8.927396906794288 2.1025414444644475 1.0744989781043688 -2.4427904582497093 1.3469621225399449
Ni 8.525767170517687 2.2163527509580914 0.8075104639252375 0.3454989292763275 -0.36619579550404674 -0.6849308264229689
Ni 2.0825410303936542 4.388500009684295 7.298548211891441 0.12138049469272644 0.06604187002142176 -1.0844632884059322
Ni 2.605437059340754 8.15579749857904 0.9425322530886024 0.7540382227435917 -1.7496480425502254 -0.0984493398178498
Ni 6.080168498620301 1.8302982468009221 1.778407985074771 -0.06489592934243661 0.25611838452896535 -1.9433135599606077
Ni 3.2331717268549913 7.972888124831459 9.590820259066184 0.17154914512731745 -0.7994418476893715 -0.03432602697537959
Ni 8.819324623962022 3.4651880192420617 6.763542231498716 0.802451838160289 0.3618542307058994 -0.7100885566355191
Ni -0.17773554292337437 6.1669765591360335 6.608215194750739 -0.5562831086448677 0.29007108732532627 0.37414204693431696
Ni 3.4131532163968963 6.546387731092351 7.615141442905869 -0.7620464377600489 -0.062476007047034335 0.8541973461636967
Ni 3.475713577652338 2.5932993115260876 0.01421228349077622 0.30583734902064746 0.11127194550381482 -0.020286775273494095
Ni 3.9266170107826746 0.8484035555130469 1.7342395546682712 -1.3120889648118435 0.8858746226623195 -1.3268954336970566
Ni 6.875848827881595 6.099783469707057 1.506443677647293 -0.3217398791835168 -0.4913277868194054 1.4263621590358273
Ni 1.0891451281421565 8.194721680693094 7.160158429345914 0.42113512785440377 -0.5459570441285113 0.6932547729076319
Ni 7.53905166229243 4.616383908540571 12.443890537467002 0.8973965072589899 0.26277599905479904 -0.8791930968770858
Ni 5.386269207331611 7.005787587692955 11.500605929323015 0.02124785363518276 -1.1490943941227567 -2.9538954276960414
Ni 4.116373556770743 3.9453888253418463 11.332220158399474 -0.5118541889075313 -0.6910222840326873 0.35421548321371904
Ni 0.2619650269377165 2.7609762750390785 2.89833759193008 0.26247980797061893 0.5941582864240864 0.34767433966109157
Ni 4.241966817555325 7.600490903329876 5.730212212391331 -0.19210485779148206 1.2511947004296322 -0.4971857882620792
Ni 3.4272830373261836 8.830424640665816 3.7165635561207075 1.4284360108457206 -0.8030964137228234 0.2380101049640288
Ni 8.153722036357294 9.03247644722645 10.888546560856758 0.6562799954554955 -0.7465797095830174 0.22184223695491473
Ni 3.5378662588285072 8.76310183484798 11.728931790447046 -0.15012928469064468 -0.3474843351374725 -0.42702089721121944
Ni 8.793121913412499 4.5774133991447785 1.1124551632201243 0.3821242938088451 1.5377225504883907 1.5480463010119017
Ni 7.033102153004129 3.3566246672234 2.943657718560521 0.46460348345068375 2.4262965743597436 2.126409272274944
P 6.829567873427963 1.6624081777919482 7.9210219532918105 -0.008294635908624424 -0.4572444719824513 -1.3494854031824308
P 1.4825100773571669 8.4038337649902 2.8090658465716603 0.6262132579771021 0.07495742734349671 -0.6342785514837399
P 2.9931408147277025 2.667256184088429 9.575360845151092 -0.5086408241765562 1.4543488740567405 0.21915029194504837
P 3.7274930884277158 9.017864822567114 7.879863869652475 -0.3293380032457489 0.14237843710063222 -1.633867924763412
P 2.559165370343468 6.183524664171908 5.582967433214907 -0.4186573557378726 -0.8659578291337344 0.19088332667955513
P 1.6545881326350182 2.5486305464768453 6.019168440213708 0.5948815377433561 1.3296004913330455 -0.005231680712584538
P 5.153029874706727 4.020902294570496 4.445354702921208 0.5285252218053091 -1.22252587174003 -1.4108820611223571
P 2.3897557664935745 3.2843355768035316 2.3136168789614966 1.2912146924659957 -0.10592996446561112 1.5317953863706781
