# total energy = -381175.00373017223 ev
CRYSTAL
PRIMVEC
9.16968473859649 0.00000000000000 0.00000000000000
0.00000000000000 9.16968473859649 0.00000000000000
0.00000000000000 0.00000000000000 13.42076050087320
PRIMCOORD
 96 1
Ni 8.874934449418886 3.594993264249612 8.290339534520593 1.9402410916828714 -1.0021411931672484 1.3858058348800197
Ni 9.33721493880264 8.437980629445967 12.311614939575731 -0.019606718487333974 -2.1489197946726346 0.4196842543404901
Ni 0.5879079220156482 1.323093819438688 6.9823784459033025 -0.6183963330358447 0.055895268505723086 -0.38398268717382256
Ni 0.3457328786383973 2.719774359377726 1.1996478548201324 0.3212228303377823 -2.603551768732903 0.62260188647676
Ni 2.6013937286413373 8.193571850852031 5.271124533236427 1.187647057584974 -1.620705162129209 0.3097302563171504
Ni 3.2416577999455654 0.7592278939937398 6.9219318837178445 -0.12884209317709422 1.0150764131716776 0.033502502632819724
Ni 8.025519037567308 2.335096912435648 10.47331962888118 0.7307805377672317 -1.554029258068214 -0.11190932197749759
Ni 4.219989810365917 5.729961805978702 9.971786469784547 1.5847207736148 0.5003883543597769 0.9676601286712432
Ni 6.164980822459336 8.126220516014017 2.3145843275435256 -0.11630410861108356 0.48369006776848955 0.2953534187701881
Ni 1.880894915358536 7.1966620590318415 1.0874154977405024 0.5054559986906715 -0.6707398796345674 0.30773096649893456
Ni 7.679583508894885 6.323625539141773 2.81461549227032 0.5413367717476807 -1.2927401279715864 0.20634234154710268
Ni 5.286754260973853 4.881215781117347 2.7272733276051633 1.6412991842304765 0.11572766728232327 0.4524339379676853
Ni 8.649910384486974 5.594837330801985 5.1084515740224266 -0.7135330635406937 1.7268410719580387 0.44880688273805924
Ni 0.8751308758978298 7.253780025635789 3.7748575485220623 -0.13827418512427153 -0.6669991816452125 -0.5061288563879799
Ni 3.679767000202975 3.451010873558461 3.3226985572178442 -0.19234577015769455 0.25444639614318115 0.24488523481730726
Ni 1.3546742138814551 0.32359634256862857 0.9601466915298476 -0.19403112827991742 0.3876372532072744 -0.9193881810387328
Ni 2.389253070849987 7.659309335807499 10.043372365062071 1.5430732732773424 -0.6982370566135716 0.7468661304751847
Ni 4.213277601094109 4.32236017144578 8.173323352882079 0.2799620239157824 0.521477056709276 -0.9987311390444348
Ni 3.617981664037073 1.49388836847788 4.758478633133641 0.6078476109857209 -0.32739707746929425 -0.2945286088760476
Ni 7.493182156330261 7.269001702399724 11.016310766884502 1.2388708887569566 1.1438963948615848 1.800428358426886
Ni 4.504937765449825 0.9673925764568726 2.3122497257940693 0.4146806304783116 0.06968409475969935 1.0848918913029189
Ni 6.727843584387433 6.0219979274111175 9.432271559287976 -0.8647270420504268 -1.2261022762373786 -1.7987026339850314
Ni 6.931172175088337 6.533061139917846 6.6470073110861385 -0.7042773492703807 0.25861646836047075 0.8111820189444353
Ni 6.928815566095366 3.748374581858254 0.3817495665862196 0.3032343641801616 0.5734207967664189 1.5585590276177674
P 6.622548093857151 0.0946577391966431 11.772194476832576 0.11773981261634563 1.3879683897489774 -0.45776254926945037
Ni 6.715592885497904 7.939589921329453 13.408145104005001 0.26071114610597035 1.0258616767126396 -0.790607023006561
P 2.2099398846338696 2.5710053932222525 12.182105062400556 1.5006598413081382 1.2481361161089666 0.41185370255247783
Ni 2.1353720078601817 2.6976387402764366 8.388525768427332 0.6667073614364065 1.572512404474066 -1.0995356093580224
P 3.2754939368485294 3.4000549351384675 6.357159076446418 0.5125712695792141 -0.5849732774907086 -0.7432043653528813
P 7.9159871526605565 1.1377561503105795 5.604187658390048 0.37902765716139236 0.8255917666118621 -0.35649348061461833
P 0.6053376588788338 1.3729127169437847 9.144584619355038 -0.7591778579630022 -0.026704248764063687 1.0395196338157067
Ni 2.8453715320497874 6.175159172584618 7.052515530982814 0.8043642246916535 0.3016086556512806 -0.9791051372833912
Ni 3.7258446663106706 6.726248059232659 3.258748258471241 -0.09185497442978374 0.021925853538813853 0.9274529603247382
Ni 1.385805293769142 2.5928750914644128 5.11450448295729 0.7922463583821968 1.0011682877310177 0.21927756155153202
Ni 7.555224243670493 3.4621887193266754 2.5938571647062303 -0.7866837766927548 2.314412449193227 2.0673497471086266
Ni 9.037943936064956 4.822282216923483 1.2658016288235872 0.23223720703599357 2.359154529295608 -0.13330192872066074
Ni 4.681729288346616 6.883269741705928 12.305535438554957 -1.7234932385317285 -1.2697084429631036 1.4411141205340212
Ni 6.97954226239542 4.233450907648722 7.640412449376705 -2.2074021071792433 1.3028455918367048 -0.08031509211098427
Ni 6.423244994782371 -0.17499701558190972 6.304026254855486 -0.7773918098678676 -0.06913130758002288 -0.15119449273036542
Ni 7.2110217854248075 8.356526319389317 8.635145358025957 -0.46350279418733725 -0.2506987561752908 0.10200671815180497
Ni 4.77702065276277 2.194562323228376 8.073057434463253 -0.44505255790194964 -1.282661660689662 0.3735249821756083
Ni 0.48628213934134584 4.388015114596247 3.57155921778099 -1.0282229778559646 -2.2121000268755453 -1.5447432047805976
Ni 3.7472008622041675 0.639875276668811 11.65691044865232 -0.544920889554513 0.5923968236482895 0.028915140372453428
Ni 4.588895399456207 7.412690663177354 6.269333669392431 0.8515493670178882 0.5615690396341554 -0.30110086277692655
Ni 8.866049024850058 6.3112006162410905 8.146643237995123 0.040034904434698794 -0.3230691395179016 0.7710519836927688
Ni 2.0587409520070445 2.0253816387135526 2.9477088822643793 -1.6333753013977095 -1.0084473378909342 -0.6945125565741329
Ni 1.1628627472862754 0.3990160830600089 4.514153298671364 -1.2539329252964018 0.19534419066438616 0.2736031715772901
Ni 4.342946113816283 7.950712748988884 1.0131199606053019 -1.409199788323928 0.49902155591923736 -0.41611196360819946
Ni 8.360212532677933 4.6734215539200346 10.676537266396034 -1.833640583512797 1.851991832326475 -1.1263113347899698
Ni 9.144779933641226 3.5980467692871967 12.402607555758793 -0.24625846101575008 -1.6254151660103686 2.253940617060415
Ni 0.7040218066700817 5.901086463670605 12.583331956465255 -1.6640891855417987 1.7387815321493665 -0.816062229854872
Ni 6.164201399251544 5.082380326206028 11.701199109256015 -0.6110725456809218 0.029194105065452947 -0.23148233114784003
Ni 4.1971939739592035 4.050726598687915 12.989095093599301 1.704805175203922 -0.6762723794170223 -0.5259271220608297
Ni 2.0552564717839754 4.332731084951811 0.17050937184198808 -1.0440568595644277 -0.8268233250261181 0.9767844595700146
Ni 2.7367474459379935 8.84559145806672 2.778097222564072 -0.9954401269979889 -0.4339873012267236 0.6782685839114448
Ni 7.038292432893332 1.528494758903839 1.600170517092379 -0.9914068374688796 -1.0572095948963018 -1.6527531917036893
P 6.732813553547706 4.668130645791847 4.414772254835503 0.4460714860847673 -1.180677054025044 0.4135904827379264
Ni 1.731208980723307 8.402099652833147 7.624239876299264 -0.2995147492367293 -0.8651756995520713 0.8194455445048081
P 5.062399583032164 6.4287743147152945 8.177994390317952 0.11751098443499117 0.9925934015778132 -1.5235686275855116
Ni 3.0052266471255003 2.01412126578216 0.8001338578756165 0.43912873621834697 0.9134990692478074 -1.2241436098491112
P 1.9878592885219728 5.2249230763839645 2.339748693533446 0.21650874055714328 0.40159731493179224 0.2439274988897283
P 0.8711310593891377 6.627563911441411 6.384926715950364 1.6751143330077085 -0.16781744599902712 -0.879835101336459
P 8.672091852012251 9.47411833283008 1.9345485750459683 0.3242423338903964 -1.1756304927400723 0.18275015604945943
Ni 7.822557234258306 8.53731582485784 3.7774608220360872 1.4416309122694397 0.5839831456632975 1.1632382897233065
Ni 9.423043188507721 8.364439757369604 9.722173895068003 -1.0190181714282451 0.6384475952597649 -0.2888102183350317
Ni 2.675769042034277 5.426078451787848 11.515187468295284 -0.2129210232058849 -0.25623279861964254 0.302357360891847
Ni 6.26603991861315 3.6008068444112595 9.73323253493385 -0.7369419293829373 0.11132311045672441 0.083447724202695
Ni 5.993865334452231 6.676905985337034 4.418543746192736 0.36587852137394405 2.102661020815411 -0.3569639924931336
Ni 5.13090629815467 0.8054082605711681 0.09899866797980392 1.0519822850590916 0.23158594660523985 -0.6155184972674174
Ni 2.8577872852656716 0.8504781783196128 9.508488145388265 0.07587891071650157 -0.4570529247969354 -0.07477127947461962
Ni 4.519040740668459 8.64150178352762 8.427807781131563 0.32384792666545514 -0.17371349976848793 -0.40397944201072356
Ni 1.288001435718459 4.404593904710221 6.581984159218222 -0.8438021189723016 -0.052542807093722416 1.2267661350736225
Ni 5.853844247593621 2.9912428778092344 6.030296492152902 -0.7415550026749165 -0.6040017548770695 -0.7526308008731037
Ni 6.116473189880289 2.677914748276904 12.200088648225513 -0.7364595904298801 -2.1911509354277037 -2.7238881384318314
Ni 8.265718930839167 1.3259914398347143 12.964951313527347 -0.7756357464087092 -0.3156023988272113 -0.3559124113001677
Ni 8.789729738280037 1.7778826763428437 3.565090922124797 0.19219741750528835 0.4228546816486718 0.1337529002151503
Ni 8.823639232661382 8.290532097901341 6.319742177630009 -1.2015765231818725 0.6693622825607505 -0.25593815019735927
Ni 6.400513346169241 1.5721424585401833 3.8289696924493724 -0.8643735153657501 -0.4805044709516564 1.7613848713711793
Ni 8.177699126467472 3.4697537092846553 5.877071976154298 0.7750436213506652 -1.8617368275283805 -0.9947197038921964
Ni 2.2334692958243862 5.263344055685705 4.623908006918696 1.4108573785320089 0.9642300199437716 0.40023951535231717
Ni 3.7239373718727795 5.713172113114385 1.1479785149228898 -0.5583356202985222 -1.0753456423753802 -0.6683569812246877
Ni 4.636825341893007 5.031607781481987 5.191633452694934 -1.1312725354499873 -1.125775259780842 0.8552278443107401
Ni 0.9572325657011856 1.0693227926664537 11.464308555227591 0.5970299515449267 1.2367630983853346 -2.0645822116658183
Ni 6.988877001519327 1.5166933745693902 8.074600692414682 1.025792514037601 0.8371774145669324 -0.5140586527580179
Ni 2.100270454455155 5.185493431754494 8.878960858013489 -1.055919929550601 -0.2978797847364676 1.1874506253034516
Ni 5.177570824089409 8.040951617081587 10.596791268617169 0.5322468936312705 0.6415370328183662 -1.7649005978339218
Ni 1.1788271685188123 3.681784330858436 10.509704021189384 1.948993898174837 -1.4015322444763412 -1.0062282187524283
Ni 5.915345323530797 6.086130702885192 0.9162807533953212 1.2061613143390777 -0.6226432812376568 -0.4289708218487387
P 5.252835596907711 2.827453967955372 1.8012937985994721 -0.015170537092851294 1.8058862962176643 -0.7739462745214283
Ni 5.637082068664303 1.2272889526738713 10.092573225811813 0.45958828962427944 -0.3703558404190073 0.3266406589192439
P 4.723873159676162 8.667855457635783 3.9688413134457816 -0.16429349200616866 -0.06752333966295468 1.1255209776781907
Ni 4.049323636913891 3.0957772845013203 10.602159202097656 -0.9796329847624032 0.09644747889647261 0.193230486755493
P 2.7948740778696717 8.240043813406023 12.764203989096956 -0.2749175195133394 -0.4833439972829805 -0.07335820117717688
P 7.711310618294412 5.609802256391588 13.07822259589454 0.5914470581405105 1.3893457297124783 -0.21015271643212838
P 0.6567997638996518 6.154719945170877 10.190826398417576 0.6105413557678002 0.6889319771625618 0.6476755416159361
Ni 8.794580501537942 7.392499017253147 0.9468598182581955 -0.7188688739313104 0.02049529173987438 0.7413544566283362
