# total energy = -340885.5043123168 ev
CRYSTAL
PRIMVEC
9.14334170322101 0.00000000000000 0.00000000000000
0.00000000000000 9.14334170322101 0.00000000000000
0.00000000000000 0.00000000000000 13.38220480580967
PRIMCOORD
 96 1
Ni 6.7002866074924725 2.3234694516952765 11.759251009296344 -0.5306178426682797 0.7128267815022885 -0.07485226922420012
Ni 4.784646774646132 0.5804202535084816 6.078183687263326 -1.2410822945859787 -0.7078357560456003 -0.9476944841825938
Ni 2.740360122294712 1.6569564058784885 4.803796589768479 0.672638382208861 -0.18771007115789606 0.28750821169415647
Ni 3.6150944915364573 4.819738920577936 5.164313071999719 -0.24908950270664196 -0.8067273256071913 -0.08710974643531451
Ni 3.6711614636192675 2.5392248887856343 2.6244783223142276 -0.08169808850143995 0.8451781733842217 -0.07883002292502553
Ni 5.119942262781934 4.52820346642588 2.9857034135370553 0.7724735466306438 0.16097625470747762 -0.19626361715486199
Ni 5.6084344432281545 3.3504953224065734 0.6812575988469151 -0.25619114674842974 -0.042107727803327485 0.4537950799812701
Ni 5.375370660059394 8.481638178926511 12.872918272825563 0.8362813851152242 0.4073758692867823 -0.11294573366181193
Ni 2.605258103459812 5.942111559860588 11.14689489145472 -0.07118073390988387 -2.2548728990666973 2.8263959645897714
Ni 0.7129996243333281 7.8251188057265715 11.349448257281155 1.9281728476644275 -1.6687480244700488 -0.2972321238501397
Ni 0.5308541974646273 0.13681730976163423 4.785088398056373 1.5065625799458184 0.7152896412204842 0.814890578144274
Ni 9.031345032904111 2.757961055311576 1.342971304538741 0.08911315001858847 -0.622555863730173 0.5901630492217642
Ni 1.4766862784184938 1.4273579492621398 2.757336565064796 -0.49666976785760913 -0.03208376790842216 -0.25170457173198585
Ni 1.7904034798427118 7.021583639291226 0.5406522025663787 -0.40207579723010756 -1.5440646906563344 0.77319371262612
Ni 7.529221977523064 4.385649624002022 4.119283961231173 1.174226927524326 -0.2443725568469469 -0.19448647064978117
Ni 8.117614310770456 4.4204034662862295 13.35668517421562 -1.8398482549854054 0.2576463911377176 -1.5550803250405478
Ni 8.132938551672412 8.950499604470288 7.378064250440053 -0.9815767387523352 0.6397246621999756 -0.1645572871905166
Ni 6.947431137074724 1.1266242932321797 0.5725981245755325 0.18261440180254354 0.5269532493324989 -0.4977727711138008
Ni 2.2289638705720005 6.989682519657024 9.323328510805688 -1.0672386969975298 1.5082492236196219 -1.3986160992708108
Ni 0.6099313035891206 5.332963840666035 1.6019171454170267 -1.8386177250124143 -0.4721417008092578 0.47585823042889663
Ni 6.420536920955344 1.7086711472516742 7.143474443520377 1.1638664102256084 1.397967152832902 0.8055153075769611
Ni 3.7959497928733765 4.950314985208499 0.9561732005601381 -0.17575469856823278 -0.14925870916023326 -1.2654175288972338
Ni 5.913940923691778 6.017955580315074 5.205918934649037 1.055660505241627 0.36445078778848206 -0.5611448076125433
Ni 5.408963297931581 3.3680688253979567 9.429101432062303 1.3672139308104452 -0.0023314763466540495 0.8750284239764349
P 0.3901354237454368 5.897226894832127 12.660769884085935 0.7404255170561636 -0.2425139063716533 -1.759330817055628
P 4.225641142030531 6.496463231486273 12.803611741777342 0.013880100416201902 0.4209795761131459 0.1622011282535142
P 2.1487676194078893 8.955994752908278 1.3484847396603872 2.745153218458195 0.9615442455814924 0.6143974962890967
P 6.328244028554189 8.163779043654689 5.933562535252396 0.3185501686016256 -0.928448234358472 1.3009414328354563
P 4.8590278604083075 1.7010638868516583 13.026800715773005 -0.5842734232102067 -1.845331903807796 -0.2101033512514317
P 4.44902212620456 6.5652394487085335 8.577699042494551 -0.9823843222552953 -0.2553588806551215 -0.8224488501075062
P 5.015763026005753 1.468566990876169 3.978355804984145 -0.24629291379811133 -0.879053228865112 0.08399485495541663
P 0.40902648229408234 5.866020669176773 4.050485799988528 -0.47460070387271175 0.6268069256970431 -0.44893440945485913
Ni 1.1070209683552155 7.850647016107394 2.8331869858585614 -0.4420484809683032 -0.7078897492119873 0.7122158873911669
Ni 2.2530108595768588 6.703377057029979 4.962630152315208 -1.1151308926931183 1.239641191264078 -0.03281370409591123
Ni 6.387108863236043 6.291240924180554 9.669044665621655 -1.0711292903011875 -1.673468055653537 0.44079455395654404
Ni 8.985070579917956 2.768210741499578 10.485238788816403 -0.005468479313738969 0.7388458312738695 -0.20005676564870706
Ni 2.480698357751377 5.698158056575939 7.360493490451218 0.9565141393567528 0.47322387812984307 -1.8246913447393092
Ni 0.7514007456723032 0.16746121989463142 9.212483777837665 -0.6218038160554968 -0.09064038529639229 -0.23631523376010913
Ni 1.4916356423055444 1.5079747941502901 11.598317221131968 0.22659363559697107 -0.19685368533037712 -0.3621892454478149
Ni 4.05068329617199 7.423579806054573 1.5077599256173573 -0.17620412740082556 -0.04170509304827011 0.353159788255695
Ni 5.62399641101761 8.403005439214807 8.310041425523554 1.1767268111280442 0.38872457273418215 -0.07891178400555442
Ni 7.063359568098526 0.8541051614117983 4.959030418637941 -0.24140447535755846 0.2528070607675452 -0.1315926593390379
Ni 1.0230210869910963 7.926161876256112 6.936585304999604 -0.5672051548740102 -1.0441180518196662 0.724660798022739
Ni 4.965502075983051 4.887033916424232 7.16461842149518 1.2241166132659176 0.18924501974518373 0.5668570275059721
Ni 8.077877347190565 7.832963793014088 9.631293635886577 0.3363067212540982 0.005013908274823622 -0.48685998085603893
Ni 4.804862703425501 1.0018816806872055 10.706633839145619 -0.7802763305045143 -0.23631369109821235 1.2775400231923804
Ni 8.308015260974704 7.562074004707267 5.2120879473796755 -0.6220334155677997 -1.533113076740837 -0.11506612243892442
Ni 7.383321671990545 6.281942145542553 7.479488598323776 0.4691178263812695 0.5761091422318594 -0.4799336860498509
Ni 2.5481670770923843 5.552449761221786 2.889298760316324 0.231926103553478 0.9386326310906414 1.0191675525219155
Ni 3.589465704395538 4.575437970303864 9.107246656412107 -0.4899167654044917 0.359178226535633 0.5173332097442316
Ni 1.0934065323748983 3.7310960692948747 4.125132042663686 -0.11469665491464763 -0.2533814452137765 -0.7805781780156492
Ni 0.38211031262392947 0.25360612925135123 0.33975378161061914 0.21843578237652703 0.7606667838037029 0.8238953527460456
Ni 1.272725752284891 4.204501735726641 8.580228090843882 -1.5507978956151096 -1.8217785419678882 -0.22287067821942907
Ni 5.511999616979393 3.323111013634881 5.034854323740408 0.33939950124680907 -0.7818207921734988 1.029873368975194
Ni 4.107024568509609 7.228817481798874 6.335322803796608 1.0805161308327262 0.3893159264612779 0.6264793671542953
Ni 8.516766898225624 7.347918652436625 0.3424154084164421 -0.7702153467240864 0.3211768075911952 2.1069388222551586
P 0.41939046025492144 6.155279431213921 8.077177881540804 -0.5863511316748418 0.9181162563048446 1.602598425226169
P 9.100020673366274 1.9664585267204864 8.232638465287573 -1.4227682710369818 -0.3044366120183789 1.413481446418417
P 2.1186860247972494 3.71191333814195 10.43548346559673 -0.25153179359954747 -0.6756429733631396 2.292378095101007
P 4.404567198241965 6.434059923517393 3.66534538388315 -0.7121809203881735 1.1190847351345437 -0.01822372209687829
P 7.003040942066186 4.282695595030652 10.778576395642549 0.43051656906930375 0.7937895344996007 -0.5535978485032208
P 6.3450220608066275 8.577944998389695 10.742912790846562 0.6383429513611006 -0.8958924119096378 -0.23592905406528403
P 2.570403684415508 8.780479163198294 5.876059144168573 1.3461301135569526 0.5771396403789029 -1.4816565607327579
P 7.107622485882753 4.253766061490206 1.8603674171682918 0.798626807987244 0.879833301564246 1.3096217342182734
Ni 2.383120613774248 1.8939426826910066 0.32531095886078104 0.793868210256336 -0.7738606567861576 2.013432685375197
Ni 1.5588849214427052 1.2716102645820042 7.002412794482676 0.06680111678494946 0.3194613675619853 -0.6299333871411668
Ni 7.306508457302402 1.3090979660724678 9.586757332181723 -0.5705547880725336 -0.9479965888040447 -0.7701616106680155
Ni 2.626571233258415 1.778315981947494 9.062536629212541 0.4252874594598805 1.5236449893494017 1.8926165478263726
Ni 6.73758229880457 2.1547839383300174 2.746684571836408 0.21072350133393386 1.0355999870463262 0.6873078112955775
Ni 4.329125484827864 7.590774954702039 10.555080205361502 0.3921449112696408 0.4285514749231329 0.0644135903893794
Ni 7.210366217992103 6.632607591289445 11.997561242005403 -0.256691483423616 -0.4652202910990762 -1.4439176514210876
Ni 7.639207236359352 3.7217972906568746 8.376805193209705 0.6575285231506159 0.06687645010757515 0.9438470854120454
Ni 2.9362927943042587 8.151910985963317 12.505001169719597 0.28183867211320496 2.695584406391132 -1.497170597207957
Ni 9.050116313674824 5.224743246802347 10.48905247669242 -0.0972756312247228 1.0569488850357474 0.16163831377150872
Ni 8.837113022474375 2.7278063139663202 6.234127039458558 -1.1276390524624578 -1.3420006647696114 -0.8815096608254045
Ni 3.617691200615309 3.217761429104852 12.111564999574634 -0.2518323555591018 0.3542856743300221 -0.8976006528499961
Ni 1.3083390687008314 3.9015553909745604 12.860445840239432 0.2276580723057434 0.11156479415388527 -0.6426474922737255
Ni 3.2464166623904886 8.91379823037694 8.065106841660874 0.2541779729731429 -0.4717272389796585 -0.1075556729944922
Ni 5.945503739678383 8.104585048667063 3.552467171692816 -0.06808409726243113 0.12137252427292645 0.15313104763144594
Ni 3.5971918282393043 8.74167482048475 3.540489393899522 -1.2776564941655868 -0.17341036670577234 1.1877607003447028
Ni 3.872625857434115 2.7158193928311984 7.148399047428367 0.08928309993754947 0.22552971310883096 -0.2574980384853114
Ni 5.405241957808015 4.850113102127038 12.287286314475725 0.854845778380973 -0.41843161288031167 -1.4376516159067176
Ni 8.272155074329437 0.19570408846387358 2.8255586957723433 0.4339824161307171 -0.4027188301307451 -0.6256406733030837
Ni 4.784345044365842 0.668178048363474 1.8006961397373007 0.7811847012513966 -0.09361232344052266 -1.2969569942664114
Ni 6.160692289575471 6.205805538149604 0.7848434327385274 0.25994521447422325 0.20699643019133382 0.9192262015395717
Ni 8.174083589893652 -0.13993701799298694 11.89979148784991 -2.749674246257 1.4504217710881924 -0.5417661459756152
Ni 0.32353623621217154 4.856943178471765 6.3579662898310305 0.05021390185022965 1.823343572462163 -1.2354819176800658
Ni 7.740753190689374 6.651177718539965 2.8795290995742358 0.6581180771054989 -0.6648548816087002 -0.4961552901150359
P 8.724805354814043 1.9716793749036705 4.073676972198385 0.24034209553131508 0.7123925221783473 -0.8804362252555675
P 2.1097346931486727 3.8196310482051574 1.810853478172851 -0.8664476242859593 -2.4603528926135048 -1.2365705227585544
P 4.9552158164277404 1.462706108765099 8.672565785619991 -0.6391397362307831 -0.8186359041193192 -1.7298896289763754
P 8.58968504929549 1.8669423942760461 12.648913712738938 1.5055181978417038 1.6732888497631957 -0.053243432705172816
P 6.878600059801501 8.397043980343641 1.4928782224598258 -1.376778691680745 -1.9124222696983906 0.15390006458698655
P 2.0614304182769363 3.295443261266554 6.065069392080943 -0.3067477766500588 1.0761362565974757 0.6465591686233058
P 7.1123130202399745 4.369392762233718 6.432317202565177 -0.8164350398132585 -0.31087336878265814 -1.4383255020452905
P 2.4634723017494173 9.08430326876576 10.411997877780045 1.2417476960841194 -0.949824386041403 0.5612126847360012
