# total energy = -340872.1671250408 ev
CRYSTAL
PRIMVEC
9.26888051302316 0.00000000000000 0.00000000000000
0.00000000000000 9.26888051302316 0.00000000000000
0.00000000000000 0.00000000000000 13.56594354361142
PRIMCOORD
 96 1
Ni 7.212598017728967 0.28053564938956915 6.479745626923628 -0.43097679653517385 0.7297510680614528 -0.8547509046743215
Ni 3.9568109996303473 9.082381505174107 5.046354943932766 0.03607694822821529 -0.7060007597193906 -1.881463616533347
Ni 2.265342238183559 2.970175729663583 1.5736362623720794 1.4534813838501226 0.6172028269483758 1.7165828845651405
Ni 5.234785726275572 6.950770677048987 2.1196919744937 -0.4550271526161583 0.3814336954997237 0.3436734460318146
Ni 0.054670638754344615 4.7062370759309395 10.173629996628573 -1.0125755011266948 0.8966452309152623 0.23632577528307042
Ni 2.523499102125035 9.1111057663171 2.4776700486253853 -0.6625468023008138 0.2315908317012463 -0.05929118156114949
Ni 1.1889656657364926 1.7619771365725534 7.188213446507611 0.27701502547231643 -0.7758470910885671 0.020149735474997557
Ni 3.747241608070791 3.3012323399392436 13.144368347347783 -0.1485385431647571 1.7241100461801213 0.8141976658423076
Ni 6.791077132282087 1.5217555566942242 9.43613111595199 -1.0480716371507757 -1.1528895994991306 0.7225548074233298
Ni 8.033375937294728 9.10731479413011 10.952831425138184 -0.1874043669920192 -0.357654590802255 -0.351280311844795
Ni 1.5011693727643802 2.8837619553376324 13.061412792393385 -3.335904278972946 -0.1576327921565414 -0.987844831149234
Ni 8.745559651132414 1.1235459060891089 3.4295516505845174 -0.39807644626272737 0.17923905757240743 0.16046023430300752
Ni 0.014649465871732815 6.49987670881342 2.832474458021556 0.4887582263200163 0.5640506684054285 -0.524383945943426
Ni 1.3994526764806752 3.9551611388741508 6.336869539213148 0.7262217147519557 0.9359555984791106 -0.4603657912202523
Ni 7.163723210046811 1.747072776482869 1.6814444670207975 -0.5632682817134492 -0.9086170585651577 -1.140931655806306
Ni 4.170662614051492 7.148383212566446 10.328322980283295 0.138654965502458 -1.3657882541075124 -0.6445351962147416
Ni 7.674559029463964 7.3688991521769465 7.1669283889765465 0.8903264877860861 -0.6922031917146659 -1.0744719815211752
Ni 5.741960337834874 8.980062331647972 0.6208212841312112 0.20526556354315617 0.8334919952955452 -0.7000789949183169
Ni 4.137600516762994 4.92123803155303 1.603413468357229 0.6174259987027754 -1.0448438742420973 -0.4832077288154324
Ni 3.6132321315927696 3.7024914522791263 3.7431151024041696 1.0355269677165457 0.6208139413384017 -1.2891382695529412
Ni 8.200345553374067 6.9133429369730255 0.6417847115036238 -0.6836637867850871 1.2995687208576459 0.16158226372259268
Ni 6.049093967145685 5.197784354709639 4.007122483813685 0.5789247573037836 -0.5392436366640778 -0.8003237360736927
Ni 5.579615893201276 6.73893967861015 13.303428827566094 -1.1389117971628 -1.9867418063475717 0.7546630008117842
Ni 8.520835639705547 4.601452380151161 0.2647924556008072 -1.0220237910237882 -1.0208829925511258 -0.8601443077757508
P 2.5168718524582907 0.07296555538681929 6.64059685488406 1.0607317491169475 -0.2970583172764368 1.4850840983570681
P 1.3052159668837706 6.189786306574368 11.40815869898998 -1.4807214505129984 -0.174559392708551 0.5791358448733251
P 0.8911268699442972 2.765954482240686 10.943769240523952 -0.8582913137274121 -0.4731806835967335 0.2352510541616529
P 6.881930700440725 8.095078875800343 12.446970351927426 1.1240472213461414 0.5899049104643711 0.04180279496839897
P 4.464124644399441 6.583685927675937 8.227188231744544 1.0622353302456673 -0.9179884724777286 0.3573239469357136
P 7.629021018816813 5.669727950907689 5.6247117782412905 -0.41439549513772506 -0.21818689959051457 -0.37972468322841696
P 3.390714113761267 3.4575149366259166 7.674973348429144 -0.6219886783727934 0.013146821794603166 0.5563550995333838
P 2.917027968000492 8.562666098091583 11.123544742113184 0.21414538253128926 0.6732094242209825 -0.2912800200317629
Ni 1.2498714805059683 2.8273978920880234 3.8931133980082517 0.21370932343513518 -0.9464045617265764 -0.3203052036195193
Ni 4.918550056163721 2.9641880327618813 11.00758270315421 1.4159533049976776 -2.0526196399873036 -0.22237908329499118
Ni 8.304268243253135 0.1700135164857146 13.420652361181917 0.20508172966712424 -0.2485547132490945 0.34185104811109507
Ni 8.014207892104759 2.3722680453941316 7.431844120690036 1.1147118028778287 -0.1303580156009884 -0.11203402048081995
Ni 0.13770034475396206 4.75360105606669 4.363974388946057 -0.996372151893955 0.42037228154645023 1.2924858458689354
Ni 7.14094957028291 8.259091718951442 2.6157578325906337 0.5129371375590649 -0.2145924973710369 0.4976961522395945
Ni 4.718657376005677 4.541955435240909 9.43203427070346 0.7261538376284978 0.8153538909339376 -1.2285188560986713
Ni 5.308232336568271 7.431046996953895 6.389125634557441 0.9209118167721108 0.17526901718106588 -0.3239965364281775
Ni 3.0792797238275607 2.4103353382351353 5.6455760285907175 0.6690653201456219 -0.8228239740587378 1.0686402053307467
Ni 1.3140492101458785 3.3363057843293964 8.825609412002159 1.2601753066616876 0.6308818670973652 -0.5709967607059586
Ni 2.532406496432365 0.22292862924442103 9.067463241763445 0.8071281605900358 0.539991827684012 -0.06349673500206483
Ni 0.9149729191997271 7.742731646665226 9.886860098111939 1.4295984065849379 0.7740303495948024 0.6906168210641526
Ni 4.341265631346724 4.512916032155721 5.993868122440238 0.898448345562272 0.3004992246371857 0.7005978435362643
Ni 5.999644488863057 3.8907331494566155 13.465040103740058 0.64156068696745 0.8539137534850068 1.6127275432403707
Ni 4.302262181559789 6.747263133436355 4.226917304509399 0.6112910894496311 1.1481471997181387 0.05479586479395725
Ni 6.385999241113256 6.536692702766297 11.086346870277412 -3.0406087100238857 0.4491429259212394 -2.332039418246371
Ni 0.6796944333735303 8.605506864468774 7.452505382553166 -0.7601633618047231 -0.7929338713675248 0.09101242392383035
Ni 2.9787679820287187 1.9379375668850976 11.560219320539309 -0.7289666244869446 -3.0706204258946275 -2.0096487928527322
Ni 2.6876509784859253 5.638695738482152 9.133258391077266 -2.1965371394402817 0.2649331546071179 -0.48917628769404137
Ni 2.636533101685795 6.603308148017891 2.166874284568656 -0.36165419887995137 -0.01873048652996774 -0.14291836876450226
Ni 5.506614189179911 1.7407884754002783 4.767886254928769 -0.5554814386791788 -0.2233908123889572 0.952249707653444
Ni 1.4748550205911128 5.115384005706346 0.3394208481767369 1.138082873503601 0.8125009948661748 0.20250162764477384
Ni 7.070265086424741 4.35082184729975 11.461513156691629 -0.011576649094005869 -1.2181879064863086 -1.4791461356060782
Ni 6.388010588214911 5.310354910237759 7.6157034910948855 -1.1494564054478655 0.05594077703167785 0.039802219598602424
P 9.073715101763751 1.8920751454150984 5.517378140281995 -0.8509346162520248 0.5267149080694477 -0.35140732434096256
P 8.26652536123498 2.429846332009256 13.33242003247189 0.2813185379436768 0.8188063682589124 0.1742536885426741
P 3.327861834054706 1.5368267566356593 3.561453383602095 0.45257791974471734 -0.07416372779760776 -0.28275192795609366
P 4.688709622616516 4.777829910093081 11.822611136051044 0.10517611701872209 3.9910169935932167 0.7094740629799717
P 9.101086106331437 8.561609445697165 2.022980473762501 2.0149848603536653 0.9010564726090803 -0.8001872104958283
P 8.047103149541508 9.121625945858016 8.635631653478402 -0.11330311700123066 0.07341965054273161 -0.1730946352375664
P 0.7224313882874093 6.363605625456118 8.175027605870973 0.6406952536433611 0.08905581441809178 -0.487723871518231
P 6.771779322762981 5.573637465180227 1.526453952297123 -0.3151912794317217 -0.8177342182406562 -0.04924073930368294
Ni 7.156586171944165 3.359292608348313 5.165639876605766 1.3794444114383664 0.37364608113450487 0.6496452637477973
Ni 2.690700440220693 0.9826311135247595 0.32542113083876456 0.6763469414086997 -1.1508052061662761 -0.1282659089586501
Ni 2.285529860245333 4.263824133492673 11.181267623266493 2.0623350675028544 1.513036617705936 0.19299574503686762
Ni 7.96501794248041 3.907723007693178 2.5122096054899377 1.4674954387410275 0.9022381516220075 0.30834160349973994
Ni 5.604919937383389 2.6717085037631283 7.3497709631737855 -0.5499386544840786 1.0107145366585562 -0.1549256776380235
Ni 2.962584516408949 7.058308230382644 6.804135131345736 -1.4919882816760692 0.06436113988488916 -0.7310993545592313
Ni 1.5533068264363177 0.6241766189275207 4.850313483685954 -0.04987477334325604 0.4586644922584295 -0.5581199047432904
Ni 8.709967149425704 4.878907053611743 7.381012652302076 -0.17455836426728646 -1.0820729337968849 0.8377510276822152
Ni 8.266673663325422 6.229169780468068 11.968472730219785 4.044993447809673 0.4940935224900007 0.34076064326039374
Ni 0.5064256860025562 6.556481762960002 5.874175359018515 0.3305423079664953 -0.3856914423348132 0.8066658762416365
Ni 1.2635708861107904 0.1109966995932773 11.983028580396926 -1.3480638402445557 1.041076179669549 -0.04016731624750502
Ni 9.088230168866017 8.416792454377992 4.606899701310804 -1.6902383331333406 -0.6592272510092776 0.013178960584119237
Ni 5.3150913082513345 0.3489705759133052 2.8356481227570707 -1.5460377552223052 0.21223916664751188 0.716204953945902
Ni 5.318817398273755 9.040569584549377 10.95304831694546 0.1362468702815976 1.5499769423757113 0.6783673142728383
Ni 0.29567821971203034 1.7203227869189204 1.2885134439474453 0.6338723171842566 -0.7042526666800323 0.38120640998026606
Ni 8.10330964182002 6.94011146429828 9.44049953940365 -0.2653339895899624 -0.898242400199053 0.04500793216925797
Ni 5.993758749648536 8.009758829391421 8.820821108256927 0.15268187590916932 0.48819284073484953 0.08616486602354193
Ni 0.30642455994087375 1.2316581300232383 9.701806895879008 -0.24687038356813612 -0.973394202941543 -1.3004359539539474
Ni 4.67705863963596 2.425628991312237 1.4872882970987638 0.5265506145774416 -0.732940521533028 1.399158859148158
Ni 4.591766399868996 0.6659375607086611 7.012073199910402 0.19156055525223784 -0.4731966244363334 1.9488000369964762
Ni 1.2091254811563086 7.772392064754151 0.17307132021306967 0.11939868837600726 0.21881836252692635 1.00671158614675
Ni 1.9876465738260043 7.582324398088063 4.306576845503662 0.18461960515803044 -1.211562687860307 0.16300099844699023
Ni 6.622967443882456 1.9599789650774295 12.095055979518794 1.1375473127151055 -1.9035848739124182 -0.0442689971207044
Ni 3.055616271520991 6.734713069032478 12.509509343467922 0.9968112963139026 -0.49762801800582046 0.7790578847163808
P 1.0162215370104664 4.475191687898871 2.4122827300602863 -0.44848369507068564 0.8312844461212651 -0.7851966506242671
P 4.741625662263287 1.3007483664091264 12.963928267015746 -0.22945064542979193 0.44184664937014223 0.4139478660773452
P 3.7300200278179094 8.122245964993667 0.8833206186585184 -0.894723331302201 -0.9186263631720436 -0.2899641294338167
P 6.244454164664517 2.993116209279236 3.129676481712905 -2.2916867254609374 -0.491191004131225 0.9273359751308998
P 2.8567987815186697 5.44751580613773 4.81380707034688 -2.7836125508756577 0.22868111425361906 0.6278646775375961
P 6.959409273817386 3.539637219209626 8.912581172943407 0.2840115113948076 2.586809516277558 0.6222828125744444
P 6.352473699792118 8.485697313150824 4.613126535333349 -0.7240118515848305 0.5842438555238518 0.45286742596067814
P 4.361861084157221 1.5962124749780775 9.532028808961876 -0.01535359963793485 -1.4282349505785081 -1.7564444966467685
