# total energy = -340871.7387129589 ev
CRYSTAL
PRIMVEC
9.19247103742789 0.00000000000000 0.00000000000000

0.00000000000000 9.19247103742789 0.00000000000000

0.00000000000000 0.00000000000000 13.45411055248838

PRIMCOORD
 96 1
Ni 5.756546064799232 5.371574564748568 12.451147042422793 -0.04079826496328458 -0.9464968643300667 0.6372576887167218
Ni 7.3630958659132615 8.092233486499202 5.345775894415174 -1.6497254606209586 -1.1898301812792218 0.5875155842965882
Ni 1.1208472020028537 6.238746332395345 12.178028612298975 -0.38934780814047787 -0.7090166637275789 1.0332471705434334
Ni 3.9714049338305184 1.6596822844658965 4.477285926402885 0.5478372918703597 -0.26444901588184777 0.3647788605518621
Ni 0.19267603417851256 1.4581281616331916 2.681296760208646 -0.49030551620247814 0.6959323197397951 1.4164448999221153
Ni 6.678799119685522 3.2934142228241257 9.056365601533319 -0.11799280916741615 -1.4123511894687162 -0.051369612721227656
Ni 4.827784740325896 9.242845910144503 0.488677282781187 -0.557599513463446 1.4690658685519409 2.050864862079726
Ni 3.1760999057762835 3.913455595586544 12.681131640084331 0.9185062926544116 1.4196122419065036 -2.0771189106802486
Ni 3.568691964425338 0.25171376100879467 11.60613464577394 0.9614012922457249 1.9374725277987987 1.2907439234771643
Ni 8.018592599971207 2.0406642520295866 12.443975995664523 -1.8339252046327514 -0.49009725684641403 -0.6963282696266331
Ni 1.0133872140472613 1.7626747314337718 11.879427732849951 1.65109945815035 -0.7007603372560576 -0.10629428978356534
Ni 8.624523529490528 3.089433287603031 5.380554689832726 -0.7213638724390221 -0.12770900801391555 -2.038346160787425
Ni 6.794320904855577 7.318907657007998 7.751491561474059 1.24195287011639 -0.5166084157630652 -0.37515120492512166
Ni 5.186612852374361 6.6720242684346 5.955636605358874 -0.18723595973495497 0.058888289695775996 0.05510799671773735
Ni 1.8712470084007096 3.230068904004452 4.425016616093707 -1.413662966301604 -0.05835144335569951 -1.5295821807694432
Ni 6.785588057245841 1.2689195275793024 4.836712468324396 -0.17355640536533337 -0.17550890110601386 0.06031396639870903
Ni 0.005589941717347806 9.138336705433884 4.709934502208951 1.1566218128480532 -0.48637147125539465 -0.9910710513960158
Ni 5.630085238939087 1.4996873237843664 10.480388775885585 -0.22656586768282916 -0.3611929429728167 -0.3714483021522377
Ni 4.507068613740552 6.975513704050845 9.955060191309894 1.4534911540421354 1.0073505052823295 1.027412309029211
Ni 1.825661543877888 5.939991019430694 3.620554967508885 -2.9131722389450667 -0.2555699682246631 -0.20311663552095338
Ni 3.620077878255258 3.664210932333513 5.637003492740232 0.30115794126710715 0.31861110374654805 1.7734397456531845
Ni 4.7200214008217545 3.7916461601374802 3.287054871270004 0.4611103826957607 0.48865589641419704 0.8485733151086998
Ni 4.403175304598198 3.229140464416469 1.1028547781854474 -3.051934162339034 -0.7590487885843057 0.33026745703855376
Ni 1.046967311224488 1.5428092060341256 8.281664578355361 -1.6757221417950368 0.7003523031843616 0.3221216880029678
P 5.398205153722679 4.5772990934651645 5.1348417740024965 1.5470721100240905 2.168685407335336 -0.006276577037331125
P 8.447899388465826 5.719960029550022 8.183516563693097 -0.6140308569782974 0.08166954925634967 0.06448943793263733
P 4.996301121780295 1.9934241426964991 8.360410963370141 2.1491889891736213 -2.4892114687164097 1.1500063644140646
P 7.169061184496098 9.063574337423377 12.596801748082019 -0.48702890233373547 1.8717201639933376 -1.2188214263052493
P 6.367643163115048 7.964173170655801 9.758401059374224 1.3420315180075468 0.7394209870510492 0.48089862106628145
P 1.1194223689717915 3.8161808656852543 11.360260861698267 0.4281488401680756 0.8232134961876725 0.20347376175005602
P 5.424100345003337 1.742910918422264 2.69838372561599 0.14749518950190726 1.039778286793732 -0.3470667879840797
P 1.2533842513051408 8.990209225030426 9.4326235581637 -1.9015621870554347 -1.252967990279971 1.7445924824041887
Ni 7.319404050451078 0.4085235304305634 8.536875155396517 -0.7925618327400866 0.8565218805318152 -0.22673736026368696
Ni 3.4145250304644104 1.5926691696501336 7.0347371187987235 0.23914987499542684 -0.9358933777826076 -1.0115288050297353
Ni 3.855083403668836 3.637828540080942 8.417752679269901 -1.1190004029508536 1.8329684971464366 -0.46141325864816013
Ni 5.56655607069605 5.287178486953846 8.307913679775993 -1.398839013914894 0.6874723618978998 -2.103879980824177
Ni 1.6895394308200253 5.355313083252122 0.8391384075724083 -0.06086109715143066 1.3503582927056872 0.6503998825256347
Ni 0.5542076519975285 5.116998268218014 5.852578891845706 0.046809504154371 0.11664143734584427 -0.21964882884802173
Ni 2.4411250659985715 8.37144560576038 7.747819169242386 -0.4708988295410922 -0.6558567918751479 -1.3192906247666054
Ni 5.234064388544315 7.642841148502192 12.598752390463899 0.10029590610828534 -0.899703815235928 -2.182901550934718
Ni 5.513644206652219 8.213188022129629 3.8221651644157157 3.3875037483167914 0.4247269589707201 -0.09349559535700028
Ni 2.991561047075811 0.8633670038302829 9.368245005584727 2.4201033010648385 -0.4369908639397377 -0.10102147142040022
Ni 7.681550644591242 6.955906163049196 11.718369203254268 -0.9150067641415853 0.12686851439049118 -0.44312628741351423
Ni 2.4361243616831016 7.694971652496731 11.02151370291661 -1.5163641394172724 2.777646820210526 -0.3413615100691863
Ni 8.417453923956936 0.5825682640454836 10.598839282369807 -0.4245634368096623 -0.3809289879491633 -1.2536056238639701
Ni 4.807469379044299 8.816168168403975 7.943562731049708 0.44534926320676205 0.19073934490252312 -0.21689980534797484
Ni 6.510245968346451 5.970813375257479 3.3685461281755926 0.3433834255952215 -0.7706056401839696 -0.10160228362453469
Ni 7.06360515525516 7.8083332069422715 0.7571636266833756 1.7124344096144055 1.0618578923015907 1.710707913841602
Ni 4.541053179649177 4.565486768014101 10.5626742623001 0.045808059473050146 -0.7722997400569409 -0.20759729700012633
Ni 8.843938623802934 2.761960694709101 10.010800578732162 -0.9446847508219923 0.46039021670028457 0.9251518229953875
Ni 1.0170550100433504 0.7991061148822619 0.7143892198437721 0.5082379323111827 -0.9444428100145154 -1.5924428248494058
Ni 2.938741107743661 2.7761906400773873 10.453009919758385 0.3412134145270962 0.3097901630208084 1.7423635930736705
Ni 0.18379978401855362 3.9140622986836417 2.5057876659366403 1.060566941404309 0.6595411827052706 0.7551810780987833
Ni 3.243682953804471 1.0818251618940864 2.2698298005100432 -0.24952376203058316 -0.5272540684023694 -1.2675111782014687
Ni 7.29860148819757 5.147940126169983 6.475880834131465 -0.5181773029120817 0.7439049909643317 -1.3387232795699202
Ni 4.004277210727798 6.377414759966783 0.9925782170639357 1.2661348666792323 -1.5674822982493264 -0.14073575929088666
P 6.288698220723035 3.5080032697732575 11.40608533047146 0.9708938051171925 -0.7976842415683165 -0.282916478558416
P 0.44575211941442605 7.3073343358073055 0.7197750887011871 0.2424354877252341 0.9514166702291871 -0.41076252637082805
P 4.951763598970642 0.11266108814252795 5.633652836999444 1.26535068021504 -0.20441812794119635 2.4446905034858992
P 3.611161181222159 6.140304158655701 11.933621027374622 0.5163492485644074 -0.43205537431133334 1.8427435742553295
P 4.092010155556555 8.163916376668382 2.3261346056620362 -1.74469866896475 -0.08698144838756633 -1.7742774110631316
P 7.794700772199915 -0.06452103588207946 3.065613756312138 -1.2170319385049941 0.4971022274093374 0.0065218602789178
P 8.576575599877494 5.298328954480803 4.085219677104648 -0.5763037747411688 -0.7512460047104352 -0.3542633057325189
P 8.643101513721344 2.9152543439090555 0.740438844640056 0.5179885839400434 0.13828138421312314 1.4935088320856535
Ni 2.5128171486389195 7.9297197887176 0.28976415691508933 -0.22434957675780073 0.8653410214853419 -0.8532972029469305
Ni 4.010886597497693 6.377515877149633 3.51308394858789 1.205752766046749 -2.2338752137691076 -0.09637137424289854
Ni 8.666330888363243 7.250056047958606 2.8827856164960575 -0.16094257325606476 -1.3820785066271035 0.37361137124182753
Ni 1.6799149135069795 3.107441338621423 0.5809430351429559 -0.9872475638848673 -1.2948129513402153 1.4774363520038232
Ni 8.862985424063327 7.449477517480302 9.497445187852978 -0.6076601775652632 2.3745549230110785 -0.4410210681450534
Ni 0.11604667527375503 8.520032709722246 12.12877351328583 1.9060742159931754 -0.5685626973431691 2.18057830211818
Ni 5.954561086232202 3.206913069131899 6.6905406631085915 0.0877959738690617 -0.9713810291662562 0.15404918857034114
Ni 1.4177272508492027 5.886564377001448 7.880085959892329 0.33929022936245434 1.2974023093339462 0.33291389352246537
Ni 8.297427827914492 4.639863052235547 12.182737915278416 -0.3588534962063626 -1.162100319464121 0.4618385191110368
Ni 8.690038271505884 3.5384579267533156 7.676188676158864 0.6912403135807644 -0.01680293048995171 0.7021078524228876
Ni 1.4791329582523984 8.307723395622812 2.5355345026367515 1.1631339029349583 0.7859898359495238 0.30146390254330013
Ni 1.2251357874054372 1.3461730552763769 6.004448627261715 0.53290175360645 1.026948224908599 0.4412871773222464
Ni 9.03642897006385 8.592588884652399 7.12707273394137 -0.5016692779547296 1.0055162802870683 1.2748344513357595
Ni 6.510586089779673 3.643527872205191 0.9330854629108305 2.5104894042585792 1.7331711279411248 -0.0563557530819094
Ni 1.4780390541833892 3.8561681152666765 9.074057431543528 0.08371511893146874 -0.13625921157677182 -0.27867133012881684
Ni 6.794422022038426 5.2960767990446085 10.101601970436844 2.0014773127855334 1.6313852675508744 1.4700053496470749
Ni 7.237830061304975 3.1027347933833336 3.2608462167225114 -0.4577990589343406 0.3713336309512444 0.1283975494405079
Ni 2.5218165779125314 5.75145343577208 10.086775433689747 -0.35740725067813933 -2.199301589559296 -1.4997638118564298
Ni 3.4184502156532077 8.275476206764965 4.602543457787119 -3.1198537089991434 0.5703223603467532 0.8601144829790799
Ni 8.38605244244656 5.602517017905826 1.1090036221498183 0.24434967402881147 -0.4962805028389904 -0.28021810579064643
Ni 0.16017329462219226 5.46799439483122 10.217052054331788 -1.1172623372138242 -1.8284832076815736 -0.21286265916412372
Ni 7.098389466155413 1.1149272505705696 1.343504480896265 0.256059763376888 0.10737209622877637 -0.31746387751598226
Ni 2.762668514989049 5.894396362436705 5.786815033861693 0.9567717638935137 1.3832858966716433 0.8249528474762824
Ni 5.5496603086890035 2.0750900565542825 12.935441354951008 -0.2310709546420343 -0.6985638438253711 -1.660204762885728
P 8.208564209132053 1.5786690360610518 6.7952410712195075 -0.7640133316784327 -1.4432980155592174 0.07127740738874822
P 1.9547422240209533 3.3065134942387293 7.110336001685532 -0.05943207801438796 0.4686791961819541 -1.5000075524361198
P 6.327527218937271 5.951123102015317 0.9916516159701869 -2.3787203672426775 -2.3702462683333954 0.8679938857271566
P 1.2221574267469586 7.661979873474265 5.948062009116325 1.4157468454138264 -1.9412479356808308 -0.9677313482288108
P 1.9675473363581766 0.9568075540073405 4.051584425100413 -0.8588489860030951 -0.003898306613141673 -0.9580778842994468
P 3.6350340288458267 6.476656678698056 8.147419567910031 -0.31573146820590786 -0.5397501439868511 -1.8735551603195473
P 3.120319990727991 1.424878993418018 -0.04472137223301609 -0.4375426226781497 0.4240546154940439 -0.24042822748721818
P 2.8914642285259013 4.556956154770064 2.390069161883588 0.20052830596848692 -0.40568588317886906 -0.24191741043823498
