# total energy = -340858.43276231067 ev
CRYSTAL
PRIMVEC
9.39370836162636 0.00000000000000 0.00000000000000

0.00000000000000 9.39370836162636 0.00000000000000

0.00000000000000 0.00000000000000 13.74864171783196

PRIMCOORD
 96 1
Ni 4.050501247680487 2.314186999492864 1.412205010680358 0.3685352422705008 -0.36441633500612075 0.8849053167705146
Ni 1.1967208580600877 4.752342766951904 3.4774437112316128 0.8714041969602865 -1.034409823392967 0.47646063989958587
Ni 6.131677313673237 2.935233233981597 5.39994407533346 -0.3833383687216043 0.679264886386443 -0.8878685131638967
Ni 8.522742421602503 3.6622029228604633 1.6432789615363386 0.34915735196452125 -1.425419335506584 -0.8486769305660996
Ni 0.050008345316718605 0.6767246221138837 2.269887210688462 0.6958677850504468 1.3898478661598774 -1.3546291521668994
Ni 7.870001815429457 1.4287736333172256 6.137641379050348 -0.5715729449244028 -0.0407427291350008 2.082136161389182
Ni 3.8088574962853285 8.139930022408928 1.2878294951463303 -0.9227537550768559 0.5573822552463175 -0.12459128832054027
Ni 9.25526379206567 7.633843989660747 0.5882490414541711 -0.7154001986564196 1.1238104227449872 0.1765741091457346
Ni 5.834488565310283 4.988951490717309 8.509625047382 -1.6056125294621444 0.18674487903114934 0.1431579955791341
Ni 4.7654563836891 0.5236269041904207 13.711602357266768 1.0638188726827034 -0.7459760145607475 -0.43583052508304937
Ni 5.443221828678688 9.309390339085532 9.57779864406781 -1.0985621897011595 -0.04998198834508166 1.0290547297286405
Ni 7.09498330877784 3.932234460630843 12.447290950131359 1.4648883401354835 -1.2371035124438887 0.3000140574706511
Ni 8.069026312428727 4.264546284194641 3.782278938121844 0.3800033908111004 -0.18933860790025459 0.7214353491069059
Ni 7.310277708491167 3.4786310759562418 7.521882259598213 0.18471987818132057 0.7654027558267914 -2.5656603930037685
Ni 7.896050568446825 1.4506985484064925 12.094349603847965 -2.4449319300727446 -1.0937082040429678 2.6569224710445596
Ni 5.706132935584601 9.113869695268907 3.495261697067655 -0.48123003626377125 0.3156044557097404 -0.2971025402508109
Ni 4.090809649843317 6.067715554100479 6.724185462454518 0.0912898459549331 0.12076831503002426 -0.05411426534590036
Ni 3.405341364076867 3.964417305144908 10.599528807723269 2.0745364946650526 -0.39156538461708695 -0.9474880245987425
Ni 9.089107880283771 5.20894274456287 11.579133826037548 -2.4715515895428015 1.8724454721951365 -0.2786954984985329
Ni 5.585433178094459 1.3004837595493945 7.465375346904136 0.3024902869252855 0.5077831041619513 -0.05119169238246667
Ni 1.9362499348885474 6.371292024083273 11.550412563018938 -1.8186739349006356 -0.9370783992296442 -1.110455855814952
Ni 8.067880280020463 8.649989593752977 3.2077916792751178 0.03835468851879846 -2.356684984709193 0.17079838300422195
Ni 3.7468402343233147 8.90915261106137 7.809173796933726 -2.165908358810831 0.5736871630539281 -0.6208715340492145
Ni -0.028410331275055177 0.9865272419343654 9.115802920429735 0.3202375836063775 -0.14370255522869446 0.7279708362325785
P 2.1081360087117718 0.35453639794670183 1.9236689414099464 1.2304669809639777 0.674521972384819 -2.580778993812762
P 0.18817288521215786 2.565919593564061 3.516723502339483 0.39377293379136696 1.4065698069002488 -0.35882238585811105
P 8.77350746372246 7.2602280308580855 9.18842380028068 1.0935038013416458 1.5648088651822212 -1.5347408421522473
P 5.16751649111657 2.1710362792506452 3.5463935298928035 0.23403620791794535 0.09389231657478668 -0.5275798271729043
P 9.217491691134247 6.313135576217954 3.0093439559632857 -0.4953909011451855 0.9924478771388843 -0.7849138292765255
P 3.7406497805770305 7.578374142359067 11.090382942520614 0.01516179534210292 2.3885453237528993 -2.197853801369176
P 9.427807425467407 3.3058619935561575 12.98781901423121 -0.3751722879710442 -0.5560149425851456 0.013341454303912505
P 2.1835017301175936 5.36010629795468 9.588591075492857 -0.9559125012170119 0.9032591366873541 -1.7098941596910553
Ni 3.797979582115075 8.913483110571288 5.235221643432718 1.2403184198367607 0.32066284406925416 -1.3609077860867593
Ni 7.697505150569043 1.4754509696833642 3.7334711087213246 -3.1176590153406694 2.0468775952972043 -1.0756981406187927
Ni 4.124908810843333 6.763235107709909 9.11006994027593 0.38452493283053774 0.14308471913903745 -0.39727657606925126
Ni 6.6077316610999155 5.907092536486352 13.536307306714368 0.43298328544224146 2.1219977734708095 0.9380273934064749
Ni 8.291995371794126 2.8222081361435247 10.428605588997153 -0.6919046866376407 2.9133257338037954 -0.5088174589637366
Ni 3.428412311574399 1.4130203845577138 6.200362229761371 1.252007940359547 1.7687024880785152 0.4067788591327317
Ni 6.914642897516595 8.609314836967835 13.441304038181679 0.5362354459653733 0.002725369350963048 0.341006954943245
Ni 2.6897192747814764 3.5006029595868307 12.852821093391722 0.560314341291448 2.6065134224643884 1.3186879581856
Ni 5.006010464925581 2.6143817345004483 12.471433719741865 -1.5542650282281039 0.10414793286452385 1.1424696897173874
Ni 5.792592626450759 3.883575051820902 1.686752104013467 1.4363442099492036 -0.6827847266142434 -0.41362082175522963
Ni 0.5999930555264084 8.265119972449485 10.790813828483444 -2.262510875227929 0.579983280475285 -1.5934823218575136
Ni 0.3033247186013049 8.67455414086456 6.743378687180478 -4.3239946504740825 -0.0039039630400965024 3.7113565600782534
Ni 7.068126696849728 6.884423338029803 2.0918285311646563 0.632511432280988 -0.7757558169263414 -0.6364110244457104
Ni 7.378259975201119 8.624833243020735 10.968391550144108 0.9143657881234768 3.678748287124929 1.363589960904613
Ni 9.036690988168044 5.401758000399328 0.18339430581802332 -0.09096665828755947 -0.4401024129855259 0.422351259649692
Ni 1.857455509966195 8.473162429382644 3.50105010010022 -0.5111283664851004 0.9583313950711495 -0.4070020308871313
Ni 8.16237159145274 5.26203598367364 8.829748534472651 0.430717115115884 0.56981585302398 0.37122230218436064
Ni 2.167710906525024 3.9557187312920115 7.212523962178641 -2.0854222883396214 0.581552681844934 2.001319704161747
Ni 0.8800119839235696 6.244768167469161 7.4486019414271025 0.0352343977222619 0.6361372019590336 1.6158699455240946
Ni 5.414439506556358 2.6742478372698995 10.037567119476382 1.0984444331763727 0.563579642306281 -1.3602243868664898
Ni 3.699439582420812 6.743273477647916 12.891908313480169 1.4037724466607693 -0.6274720700848677 3.3697014300280483
Ni 3.383153425156195 1.7939352546818665 8.649503939035705 -0.38058754544934453 -0.3194495404874434 0.5258913837268878
Ni 0.5598715881580416 3.926607629380427 8.981231473945455 0.32910557551996866 -0.7988124416354888 -1.4951229706503089
Ni 2.9913042786122026 0.28213533086914583 10.31692567018255 -0.10885587986315445 -1.7736174088816294 -0.5291232604006242
P 2.2961604733333507 5.602069435430831 5.456560894414231 0.47676145896945626 -0.6500162739339709 0.6938664383497019
P 7.5883314731194025 8.866852742746472 5.256105735646282 -0.4993529711167271 -0.9040281536428947 0.45006698039740556
P 6.892220115889311 4.778926961340347 10.530112121761334 0.7143193068874151 -0.05955780495897484 -0.985806974783599
P -0.03663921971472861 2.9272485819567993 6.844912461698627 0.3524211103174576 0.9421375589201064 0.12330830784305861
P 8.604411321253782 7.404646901716007 12.172208415427175 -0.15153259279607453 -0.9174914782366522 2.211239735757779
P 6.666019620880936 5.145290977362839 5.939880335812648 -0.5561183009322294 -0.23131675210425323 0.06799256598988936
P 5.105893764901664 4.612254395603902 12.992631410975095 -1.8014794253992201 1.063691860186536 1.2033014762927792
P 7.333508349029196 1.9914849394836156 8.840555056460095 -1.007980682667161 -3.214272073280729 -0.08753989199419762
Ni 3.8341829337663325 3.7724662704687812 5.957024792766127 2.834214175082609 0.27548264798819005 -2.7593187113252995
Ni 7.507545582044983 9.255442272522695 8.270660381583868 0.2869669944787058 -0.7321735614600164 0.257623251209266
Ni 2.0206711910613158 7.846254520936884 8.990360279636864 -0.8868799239983822 -0.6633734119671671 -0.09079722258923073
Ni 4.071777996899506 5.415191003217517 1.2359029546020075 -0.34987237575367486 0.3589578829947108 -0.3602768589164505
Ni 3.7891025278051536 3.927593968748196 3.1322427805581388 -0.3093762154118414 -0.22165943152014733 1.3695379509579317
Ni 3.3750372612156956 6.985415095581092 4.2071394542488285 1.1293552638226163 -2.4303612313474208 -1.3231287675657728
Ni 7.942305187941063 6.486966147651923 4.8070752081548225 -0.6521993976282187 0.6742108689023033 -0.4880115779619788
Ni 0.3348969720781798 4.8197050489164 5.806889850429278 -1.5764158532935302 -0.8163885028460391 -1.07039061236295
Ni 6.747773063906596 6.987162325318282 9.901908820945904 -1.238811753384247 -2.055801637259711 -2.5332693782675726
Ni 2.626199019497148 1.43099054846764 -0.09447816024070722 -0.8880814005056512 -1.8197440280363626 0.5853466016697273
Ni 7.366170272664749 7.134737482153065 7.0757797509727896 0.6423124775318099 -0.762660417194964 0.2987801850635499
Ni 2.0739992728786976 3.8566996524762605 1.3289523318156893 -0.6929544680583937 0.12584598666324778 0.47717823479190086
Ni 5.49836289619111 7.578881402605348 5.457344329683487 2.047140104929971 -1.1726575261546772 0.3704265457559427
Ni 0.1652212378095847 0.7561860003230134 4.749358385836283 2.510890753462056 -1.5057714515030907 0.33346410959898054
Ni 0.4074032486882978 0.5582746577530822 13.567612778876533 -1.025196532324815 0.2958763811531937 0.5901620207804997
Ni 5.072480344604953 5.744346540804454 11.037794145543646 -0.30471763359390747 -0.45534828340100286 1.1287675096399463
Ni 5.941398359068186 5.19483339474964 3.6235778732186263 -1.101975586258083 0.6310446179274745 1.2386343472661185
Ni 2.0268428573910713 8.736007780330706 12.27321989976582 1.8737850169421664 0.32273103945219256 2.215786988808829
Ni 1.238691946585728 3.820270851826656 11.105094429033597 0.41184676057394237 -0.9087762098508413 0.27237341293524703
Ni 0.7809243310374883 7.292833592244052 5.137441594737051 0.509554080019445 -2.123792403477388 -1.2058288707003233
Ni 1.7971009343669921 2.6563622167343532 5.1683478342979745 -1.3438600865758534 0.8250361512187082 -1.079673837437089
Ni 1.7897174796711206 6.501075497465154 1.7373193749719216 -0.14946388319250387 0.24150989058717118 0.6347562624511068
Ni 0.530101987297118 1.6441150015718762 11.377991047824638 3.5360659456306327 -1.4953296873444764 0.14106794581932477
Ni 1.3740646763849673 1.4782972632874978 7.379556306941614 0.20879620240423397 -0.348077231526465 -0.14160787748319484
P 5.600218874902731 8.196564689535402 7.702635054652268 1.1602172435087956 -1.1451441512257567 -0.7094696921045975
P 1.8001914643860017 5.527577328893605 13.588208484246378 0.9913466736549056 0.047805035298420895 0.20852186569692474
P 4.138867861324332 3.5869029574124927 8.099036392221223 1.5158889995530669 1.5112396737065135 -0.03887199447484918
P 7.573846374975593 0.982140380174859 0.8577986819905836 0.7553656833057636 -0.5120143686344794 0.033658568594709774
P 5.7499451909300765 1.0482908737732384 11.40470487538713 1.719429352875 -2.6243537930799192 0.6518525558117613
P 2.0054909585059364 9.149377912508594 6.015979705833925 0.8203570005754839 0.9045732275130872 -0.7441227634020926
P 3.0006040497940254 1.9444130673703697 11.514198878288589 -0.5058115822578773 -0.2586954012275222 -0.7492045488003742
P 4.975847267688376 6.963433818242239 2.576220734046876 0.3192263687330438 0.08373054555043645 0.9480079016579542
