# total energy = -340891.3937816527 ev
CRYSTAL
PRIMVEC
9.08868920550897 0.00000000000000 0.00000000000000

0.00000000000000 9.08868920550897 0.00000000000000

0.00000000000000 0.00000000000000 13.30221535104787

PRIMCOORD
 96 1
Ni 6.36035540293108 1.9365451285539377 11.309051096282477 0.27551401544675774 -0.33079170497314003 1.3959701770075312
Ni 4.39227252377602 0.5388583693414505 6.283674134394578 0.2993013476743426 -0.5299017904378617 -1.3865157164628508
Ni 2.6811450581641623 1.516138733220947 4.600278076458265 0.2756554261206285 0.17337077171708853 1.9412579629831601
Ni 3.5746358898918436 4.495565473511394 4.94020322241143 -1.4193062806303103 -0.007952936298489529 0.355811109835613
Ni 5.227941116505335 4.475161366854472 2.7354408858561223 0.4575342353087281 -0.10512238096265122 -0.6279600654648798
Ni 7.369899703657528 6.120795740007633 2.6286642416523307 -0.45700047429244517 0.5864112954888159 -1.3351126794005264
Ni 5.16852835694351 4.501863934942684 11.372808249154774 0.29013330802182935 0.12167282912216465 0.5828017237606866
Ni 5.353210516083219 7.970989234999249 12.350388539769094 0.7973888218150847 -0.6881994698719115 0.2906349302485962
Ni 1.7232699540277365 6.628517169929953 0.5895059972952862 0.5841818919376649 0.2691564486598461 -0.27435059126627587
Ni 2.823392128670835 1.71385407229207 0.5345839589357712 -0.2063066032131608 -1.1722438356560263 0.30166727680335786
Ni 0.4765726752075756 9.248922519947921 4.959783893850927 1.9024083371058138 0.2727145983247497 -0.6115577128474565
Ni 8.632554902508078 2.315579811859174 1.5227044021068983 -0.6033314682829222 -0.051882033581271934 -0.5632510553222686
Ni 6.872939281433111 0.7562025499034216 4.9120428286181985 -1.5559858675739524 0.875014540019364 -1.5980730265519896
Ni 0.8550356799788613 7.760104385662701 2.7645328702650938 0.1780712625165514 -0.18766199152878002 -0.705069763264689
Ni 7.7269852031870565 4.0657068416870015 3.608225866454272 0.7351984643292693 -1.4346879052927033 0.5133186892681999
Ni 7.650085806116136 3.9855082505330253 12.643236094781715 0.19238433670511382 -0.6318403743558925 -0.6574570464827323
Ni 8.11238196874612 9.249831388841326 6.716661092950067 -0.6188326492423148 -0.7316716821229334 1.8013382718356656
Ni 7.011650851944442 0.47993639898206414 0.37934369872899415 -0.7367560386243763 0.48220242747936953 -0.9404794544913933
Ni 1.6345370839646964 6.387875953023355 9.10651003530265 1.6193031395753594 0.934594713575842 0.512693139869059
Ni 9.036810697605278 4.667677975855324 1.3409297145571892 0.28270821920235184 1.177220205824695 0.6999252429492719
Ni 6.235204156309337 2.3310033169802415 7.0397712555063645 0.2312229068388663 -1.4896421500413959 -0.26418933446255793
Ni 3.751765348527365 4.27137478357541 0.7088341209169878 0.6833526833025715 0.25128393925479947 -1.383566918247172
Ni 6.097392366002477 5.624780541432357 4.870220317619317 0.2592150211764181 0.33607969284495665 -0.5012756420607366
Ni 5.544809167501732 2.9596861079257106 9.333126496315128 -0.7571019492705799 -0.030079078773567552 -0.6259900862227025
P 0.27575536660326433 5.508963378345875 12.555921060192386 0.7221840543474723 0.19652766944952604 -0.916843303129692
P 4.050392400833142 6.08561342514396 12.770458653611525 -0.19431266407607822 0.08898176664704677 -0.7058660339137391
P 2.4941725494130758 8.791797821321406 1.5105864531511415 -0.9544899098378722 -0.6194309449479461 -0.8849192007275856
P 6.320456058510641 8.045607371147725 6.003887934249066 0.13585297727728862 -1.237899268872307 -0.460659154090955
P 4.669295762485583 0.9068057610160509 12.398861244461013 -0.294763350594673 0.6538351334594288 -0.018006206769433503
P 3.8118506710703084 5.937376908629756 8.170659551060083 0.30280061907685274 1.0287145727804026 0.5189967134895836
P 4.752911700678759 1.058577777525598 3.8290691922558486 -0.06455191573945657 -0.4008442388158516 1.286340652203146
P 0.28284090849624255 5.693545561907309 3.4180704988384836 0.4312007396205219 0.2512787970484769 0.8102965310156883
Ni 1.3718467077041154 1.3609311922943328 2.5989605884780986 0.6659992796257884 -0.8890239669245786 -0.2667784353459728
Ni 1.798506121023726 6.709970000156826 4.833452935405549 -0.15015036773656723 -1.2092191273287949 -0.7557598334203888
Ni 6.067963191234053 5.50238316755763 9.22996805917598 0.05101351493338956 0.6520754704558448 -0.18894008691025527
Ni 8.573005812612243 2.3196788105684263 10.314032338210414 0.663228915969503 0.5793086230057636 0.3163701302311712
Ni 2.092043507526441 5.2909348195071715 7.05654533980303 0.3599896666933349 -0.34630317034517777 -1.089754875822175
Ni 0.402132677362208 0.23381833812381336 9.516165420495563 0.8966863685658427 -0.6401563504207556 -0.5201768498406139
Ni 1.5213465519801526 1.1770306604029515 11.71648429703102 -1.0612598537062754 0.9796029028554162 -1.3124494334750558
Ni 4.25853246611161 6.78236140751646 1.6138512279508195 -0.00520211302622975 0.9265957545307656 -0.8459150515502463
Ni 5.438298821883708 7.618384459114203 7.999486819151933 0.8532825476589111 0.333175117603652 0.11743179445762357
Ni 5.22575074247223 3.0367581900863763 4.87367856375872 0.4278667901512825 -1.4940310231377107 -0.41155314059292347
Ni 0.5874128722337766 7.544802433504208 6.924547583807276 0.6651778121657577 0.17519265541717569 -0.05773155038351347
Ni 5.145079539493684 4.5642850505416765 7.204519193207041 0.6453252962162047 0.2699930856285286 -1.0106044934432532
Ni 8.27110683229021 7.207684783562768 9.056985769301061 -0.8134975544514892 0.8131640823714704 0.028153065395448287
Ni 4.40365156232144 0.08599990130057408 10.279618926430562 1.1854207393576166 -0.5715768015791446 0.13876526582807716
Ni 8.133558613962435 7.585028970726273 4.434399505854193 -0.7355627896472234 -1.3216627245432078 1.0920153897215774
Ni 7.124859561306854 6.048231647558251 6.999399299261355 0.44680322204446915 0.39251360746296915 -0.4470397635353075
Ni 2.6604046700166815 5.213453746344474 2.562046878372492 -1.8193277664345504 1.1518328760998422 1.3844855734066994
Ni 2.519938982541081 5.159512377520941 11.531197740077197 -1.4718673425564779 0.3012908673005456 0.5952335217661361
Ni 1.2491039636498948 3.466207830908737 3.871636066878428 -0.4615430993578051 0.26133283885036923 -0.21922613948830633
Ni 3.650271959200931 2.6010737086552633 2.655215028635344 0.18832302215154662 0.6714939841917725 0.1688731409570511
Ni 1.1755492041067028 3.256713550979097 8.314735265780286 0.6607591142727718 0.48677924821677454 -0.23700531784859827
Ni 3.645091406508528 2.885667825246882 7.422569564899187 -0.7185636839860657 -0.7491402712213421 -0.5283017929405934
Ni 4.1507678814206885 6.670461469360551 5.866875039699508 0.07750101970095685 1.307921206587399 0.760585022723174
Ni 0.6184434739923786 7.230233820808123 11.131971625436094 1.3830922926035984 -0.897228614222558 1.1572884998977746
P 0.0010951870165519142 5.683984261148699 7.801416112343489 0.42205635411709247 -1.5798307925123503 0.5225479211759517
P 8.78094592673416 1.7407656802257652 7.992343109649777 -1.448407311761325 -0.9359738533115557 2.0048503430228246
P 1.8882114808027086 3.1171112889522306 10.52442003626227 -1.290937784655525 0.353309683569998 0.332817220043601
P 4.240873143512769 6.117332949523763 3.6943839109422982 -0.016121845262527076 1.3313503841446168 0.8580719986277544
P 7.122696453340553 4.049574418829079 10.406921465722991 0.23885008436682087 -0.11293853457296033 0.359794005742761
P 6.260688840080388 7.674107210968807 10.070774487759707 0.4296601346062794 0.6094193263482149 0.5797619084930983
P 2.489809978724736 8.386614979952935 5.902751730397741 -0.528188921511813 1.3400833931422405 -0.2217774451552503
P 6.9159106027132555 3.75924533952008 1.4403108925753514 -0.5020217761981418 1.6974641614578188 -0.5380655571955765
Ni 5.28222785550836 2.4022859042899234 0.47265999462147107 0.31510026237981215 0.7544192602320942 -0.32250555370494777
Ni 1.564681420817659 0.9314361080273015 7.351442394170277 0.8067844040973717 -0.04187092920217306 -1.440201636022081
Ni 7.0216484097718865 0.6331935072634334 9.206449258821362 -0.9383960895998031 -0.3133699099522667 -0.47373089967324866
Ni 2.8045785425773704 1.5152025982607409 9.381187483398335 -0.2727693628220851 -0.13754142072330508 -0.1714784397903821
Ni 6.2134367463123095 2.165598267069633 2.629728527126507 1.2190222294621456 -1.1562101792319313 0.882420859785764
Ni 4.198247192412118 6.6288807174873146 10.444207812074895 -0.4105097869300737 0.49022735466637507 -0.3755271002073016
Ni 8.182255809271027 6.99727254605079 0.2833062493696654 0.4973056016693951 1.2143996430884696 0.4247583264292878
Ni 7.747925542491086 3.7172737740226798 8.176192744883128 0.5650181745250205 0.8891676915912945 -0.05000230006005582
Ni 2.8259278728834323 8.54223151188158 12.451737418941477 0.9646059152259516 -1.073189772374642 0.7424356055076569
Ni 0.1934609237810987 4.7754607379241145 10.025028389747998 -0.48930124330767993 -0.22554796794127605 0.9913042504527444
Ni 8.751098672274772 2.422853607347658 5.952581376347513 0.33021552075469585 0.14553780866522031 -0.7148288995339819
Ni 3.550832613573591 2.8305358381729913 11.919250220542787 0.38360550634006196 -0.3555730256828779 -1.0149532573302522
Ni 1.166696821084947 3.3644508696032167 12.876863570437914 -0.7238568140642049 0.1376470930632339 -1.1753654120041435
Ni 3.1883666101951107 8.14418329132633 7.956906311495953 -1.1204106530348186 0.2661881100601416 1.0982868245525859
Ni 5.757748060537374 7.761694906226157 3.5220005656681335 -0.18504537984153938 0.7470903306708488 0.655441301604284
Ni 3.1734429829654154 8.445500595556583 3.524155493814394 0.5544612249447806 -0.737533283110033 0.9288328713914004
Ni 3.4172379749321253 4.248044119081728 9.489094760505521 0.4708445792643891 0.0929140118219174 -0.4725795596776248
Ni 7.455687838505939 6.276303207669071 11.236101643422293 -0.5160324886549371 -1.2723157986789635 0.6507600940785309
Ni 0.41131952413673645 0.05569912126337553 0.35318281650125116 0.7240213646665272 -0.15106259513819145 0.24896814663742928
Ni 4.727036203283545 0.2908553143982797 1.7955195778400002 -0.13258870470372003 -0.1785931964582924 -1.2117912589313453
Ni 6.144290000902128 5.771290207049095 0.15476855725110028 -0.687866254902209 -0.5824078307563777 0.7313382100429147
Ni 8.066238695027996 8.69009539214949 11.39189722252294 -1.5466345082660395 1.685018222384982 0.6205781711785119
Ni 0.10907153815963662 4.767917126108861 5.720285393620151 -0.5930462843068302 0.8782417887074101 -0.31859644845852875
Ni 7.990220900783679 9.135313908272412 2.5206497180157235 -0.2778688888321795 -0.08460060686021559 0.22474578375495485
P 8.632527636441276 1.760360893567557 3.7732528269052237 -0.44175280410475537 0.12859141061886886 -0.37080089837622593
P 1.9053073046876392 3.5485513526511467 1.5533660030947782 -0.504713206987376 -2.0019141432126366 0.7007266558046448
P 4.82941119543658 1.1171180229497546 8.271410394500606 -0.13217681397728204 -0.2971465061148689 1.2040730643514812
P 8.510948244570612 1.8042410837411058 12.571324570197797 -0.011794935752399042 -1.255304865943264 -0.47417775740268014
P 6.314375725613767 7.754842034769891 1.3306204146993066 0.4822906163178016 -0.5849496233416248 0.12904623876810034
P 2.021524370087219 3.3007755149313267 6.014077263413019 -0.662983118507284 -0.4430103306609403 -0.1853359144987647
P 7.022839028022246 3.8546493072607064 5.722519393360138 0.18147386044019712 0.965256661436073 0.943342120751169
P 2.2884955188357328 8.33519117796413 10.277237689929844 0.12174019202499035 0.5614217154230138 -0.721057654052513
