# total energy = -340874.5029209796 ev
CRYSTAL
PRIMVEC
9.19977117188805 0.00000000000000 0.00000000000000
0.00000000000000 9.19977117188805 0.00000000000000
0.00000000000000 0.00000000000000 13.46479503717772
PRIMCOORD
 96 1
Ni 1.36441806188638 2.6655692974522647 9.366232747218382 -0.5292698132808175 -0.8073395052698935 -1.4284138993585334
Ni 1.2509296847612341 8.529264245714483 2.5266012341009674 0.6996236525484532 -0.5601153379067644 0.1910584188048387
Ni 8.910714357642167 8.008207606316459 10.362788759191817 0.19650375819012608 0.9397556889514912 -0.19595894143024964
Ni 1.4959931891272875 3.5157569501470793 2.786552728147762 -1.0205024692832554 -0.5549055115710507 2.0462011380554697
Ni 6.981761537819062 0.8673792650759558 10.953988133881099 -0.7126254641247598 -1.247309763552929 -1.3631299905490588
Ni 0.051399121514120454 8.183076856672717 0.4642379326889914 -0.6224075110777668 0.19429672323647829 1.090094775660097
Ni 7.382117179496437 1.7437890255301574 6.504209696296129 1.3447625437854647 -3.016246736239754 -0.9705621328093865
Ni 5.247163083685469 1.2238915572992686 8.229911971710525 -0.5086230835647435 -1.6641406076050242 -0.04473385257226489
Ni 7.476341235796351 4.013179377415198 12.521909733883302 -0.2930188570997405 -1.844307833418656 0.1668381128048933
Ni 3.7256037304830536 7.732646860529374 2.796947549590183 0.6212397160219107 1.1182743234181065 -0.05791821247302284
Ni 1.872861815013442 4.283183461416973 7.660094705169286 -0.6458672847626037 -0.995110254462396 -0.4791677544181038
Ni 8.693222567465808 1.4713378023977648 12.29189061530784 1.116372478409703 -0.2184794911302689 0.5180880856323852
Ni 2.392124499033757 5.441756643425343 12.100932805133455 -0.8831001452409758 0.24245040012356955 -1.3935569395803482
Ni 3.9825809385113202 3.730010420872397 3.628587543633732 0.12860118081088173 -1.0934770618687686 1.18294065324824
Ni 3.0701200347821254 5.553497064028619 2.5601426798014026 -1.5186261959785716 -0.1924874379418814 -0.030549076431450613
Ni 3.369544986978309 9.184241954001184 6.907884615410821 0.8799801115547554 0.2488539896570682 1.11754155901714
Ni 6.557320895224564 8.767142728798538 13.22533711704775 -1.1905925133665434 1.1881980449924374 0.19038273289405278
Ni 8.544591064479924 3.641021034366922 7.749084091674761 -0.8357723066892896 0.9655068297736662 2.8212843543948183
Ni 8.261633702673981 7.065451856131923 6.865214236780645 -0.14271422317349616 0.7283323333370554 1.161812098799741
Ni 7.308555809239249 1.5522221905044675 1.0145305248809509 0.1718299095925299 0.3449003764603802 0.292916012973289
Ni 1.521586952515919 1.423940581341608 6.67610098072539 -0.10907519496281215 0.6451915988518178 -0.01133393695558048
Ni 2.749701204781177 8.757777361749786 4.757246749713103 0.10501799417430302 0.3620882010935764 -0.6981732932551719
Ni 2.088394053931075 4.070521551103673 0.803923843446522 1.004298091609251 0.22718884597880873 -1.767286581567595
Ni 7.805095058475265 7.192141904882764 12.462879402185546 1.4015525561913151 -0.07224439928770783 -1.7378916733452456
P 6.961310446513193 2.7591953686262767 4.560229970247648 -1.6038757492766957 -0.3919240535080863 1.5438703152573412
P 7.631697771505847 5.917706804787974 2.6805170856455964 0.18408301592827006 -0.4438564807113195 0.9638011599364692
P 1.0810191110643859 4.524852250222134 10.361806223631104 1.410989533234499 0.505065448120472 -0.9051396415395185
P 7.42815283441977 6.5195650343521905 8.948231944441297 2.182563965089641 1.7102312313154997 -1.8054034430439743
P 4.734524234905921 8.688779077991793 9.981990911039926 1.646284810370526 0.5025185133289023 -0.37943543412277236
P 0.8107877927147671 7.143686710142318 12.041930072749203 0.058593384163176505 -1.483634510394735 0.3764372707263969
P 4.264093936243929 7.907976099444016 0.7110392738286295 1.1416903883492016 0.4639972173252525 -0.10266646322299094
P 0.8177704190310761 0.8188927911135393 10.42106470965382 -0.25755871651991774 -0.2994604989600262 -0.12467639183517884
Ni 5.409750639532802 5.56521757249631 2.8117187021770937 -0.18851842599180438 0.5871000940257244 0.46568540366095285
Ni 0.6336921977359201 1.395421290721638 1.1721603240459932 0.8438489130498371 0.3769108679287057 -0.4259204650581891
Ni 0.9926461092271492 6.21964329451295 8.57663018754867 -1.8148825861790037 0.022742950123470506 0.3929458099043813
Ni 6.185392546455481 8.634822420093043 6.625769952643842 -0.006790540559272177 -0.03186059615402255 -0.695134763539164
Ni 8.77184381186525 7.750255222544413 4.6791508122473395 0.42857898572695874 -2.2735781887856845 -0.46848584922422537
Ni 6.696844624754392 6.518240267304036 0.8536918455326036 -0.796769443063531 0.8177110783122047 1.853899333761833
Ni 4.557677033748603 4.840965587316584 11.245366046236867 0.6282225750976471 1.9430042562503054 0.5486962974365454
Ni 9.203175083064378 5.369345244564122 13.317180272569455 0.08808599430565474 0.8725151706362779 0.16737110249022788
Ni 3.0461730304325187 0.8549448543656487 9.420051408549616 -0.6996671041918788 0.3811935544644596 -0.7889440334818413
Ni 4.54888205251225 2.9853717427849755 12.774346854840292 -1.119095019547189 2.136627350458527 1.669618857110776
Ni 6.4961240174168084 4.736400988224139 9.257437173365897 0.7799454295276568 -1.3274765030115074 0.5287720477087926
Ni -0.09127276970930587 4.960581012039439 4.060874671057189 -0.061663795558384124 0.907476002982179 0.3276210205546422
Ni 7.215546122733475 0.3406804060207625 4.315251103776338 -1.57354418817269 1.0126734601571399 0.40261624311460986
Ni 5.214071506795135 6.98635222363176 8.517680813837192 -0.5957827094013869 0.22449561541736174 0.397158048213516
Ni 6.157673635927104 8.77078583818096 2.2770178821602074 -0.5345706566684406 -0.9667502152624641 -0.42526843329648695
Ni 3.002520116241629 5.785570491505836 9.618603629822966 0.6400967008274137 -0.9809121085851428 -0.3742996555581038
Ni 2.8205762418573865 7.9906912420130976 10.592539244449181 -1.4906597926726328 -0.8297770083378032 -0.3020699115584152
Ni 0.9700054723833601 3.504450431381936 12.344618183778582 -0.42138735307452585 -1.7408384146783955 -0.5026488682591794
Ni 9.15395630731701 3.2217230638551864 5.77973599663126 0.7794088402978965 -0.6734349099682273 -3.3029375942389376
Ni 4.094698549732474 5.559136523754439 0.2357312564935058 2.199961334630482 -0.4993282885263787 0.5837499466065689
Ni 5.748596611182719 2.9831453981623843 10.690374210932431 0.956878721785023 -1.3942377676974569 -0.9846795460473752
Ni 0.26908410688500256 0.588823073796656 4.305152514965519 2.1722016480187105 2.536248772610871 0.8340851487948538
Ni 8.718641535202252 1.2270194794962976 8.409209071929808 0.7150885809532717 1.0714128829798772 1.2701481016036833
Ni 2.99723944759135 1.2872411815602733 2.9761232128300543 -0.23170061780623322 0.432892525500648 0.26294414920154713
P 1.6062800458860627 2.2871091111540927 4.611881165491765 1.1295653229508935 0.09119651491017841 -0.7745065179002725
P -0.32375190709501833 3.4076872382397276 0.9794591572353217 -0.05456780794355118 0.22564978362646299 -0.28342607120498287
P 6.314290540286579 1.9251625141020001 12.635579346500453 0.8295684918714229 -0.7990728943857272 -0.2212747944872189
P 3.4891052130741587 2.3633844139057616 7.813135658475864 -1.1443396530465906 -0.2907557720971767 1.3679595507272182
P 2.5693396910377846 1.861546096477131 12.937662112586994 -0.32812341411235746 0.23702717222546923 0.26129452941326614
P 5.217227028305668 8.64505256563156 4.5427393653035555 -1.1107623313117774 -0.7773244469650419 -0.2935150800098687
P 6.290058343030772 5.734382964728573 12.443597601795098 -1.6974057974160572 -0.6593498926300709 -1.6862672643007344
P 6.888439059093585 2.3838263054404627 8.631283268124816 1.3668305793290976 1.2988223296099246 1.7477847640892417
Ni 8.50529884182254 5.617941461058584 10.762815049061388 -0.44119924559413043 0.316957370193209 -0.3023481049204664
Ni 4.1970276044311605 0.9866202591122847 11.535626186395755 0.3258122494806776 -1.4179160851510033 0.13578407171256615
Ni 5.523928999495528 1.8637172424727162 2.915356884312949 0.13031507817819493 0.8141030492459722 -0.08011506028503622
Ni 2.284873566760334 6.949663536214844 0.4250671470110207 -0.5170385613219483 1.3496766932576303 0.40585763287004295
Ni 2.415225124435933 5.255774069498466 5.260803584395865 0.20562988886111036 -0.763342530863653 -0.6933013098748512
Ni 8.43073469650807 3.2636096219818715 10.437222267755706 -0.7388872260347661 -1.1268762061545046 -0.8170654743084058
Ni 6.485857072793619 4.085480379022406 1.4136552371760833 0.654623433688679 -0.9469984865568335 -0.4958115336223719
Ni 6.556124924972759 6.663155062738156 4.6501209343275605 -0.2689227353824853 0.5272311855842339 0.3973102575206641
Ni 0.9840535229564873 8.610755818718255 8.308505616796461 0.8151528306667252 0.41263994589919906 1.016170931787437
Ni 6.660597526353526 5.398922508868381 6.955455712142048 -0.25484003203717404 1.2093700510843624 -0.5190072550125449
Ni 6.3912834251893305 7.330414465533781 10.572206830191377 0.5168467570261164 0.07451108383469747 0.9112174723024824
Ni 1.5211545632710353 7.175968707169892 6.31999807831904 0.3191178681796375 0.5265336452965771 -0.0037139585164774743
Ni 0.7789602643828805 5.9864382951821025 1.9557213939898563 -1.0882230125586807 0.3819234906519487 1.5039130581381133
Ni 1.6753335282710613 -0.17348008490992828 12.401506808748488 0.39730511531434154 2.090711561763019 0.0841609482196357
Ni 7.13739406666359 8.833804270679925 8.875036725076585 -0.732754630774467 -0.789059218903467 -1.0395072925205322
Ni 8.27928806354486 2.5525685081990086 3.0238424258770817 1.2269543398250289 0.04194394853195357 -0.6214880845872909
Ni 2.9898612311148285 2.974736807315077 10.966132751799623 0.21305832011469758 0.9782564161298507 0.01233306764405618
Ni 3.34353723388713 2.9698333292826757 5.86437573132863 -1.1680876473958075 1.0721849852592116 -0.916977257604395
Ni 4.637117057781971 7.318960750429954 11.941522850247457 -1.1679218112419048 0.28256860830069397 2.043241026985881
Ni 4.6719749907365085 0.9703826630012371 0.4860597898988525 -0.4716495916641877 -0.6556891559490321 1.4568618702865812
Ni 4.417895710626078 6.999158305097243 6.34125874948767 -0.6035034750844122 1.3078643852075347 -1.4915614785512958
Ni 4.911463433774917 1.5015406511414302 5.348728557377234 1.3844115256356544 -1.4233588534331294 -0.6793121946846107
Ni 4.039840314259286 4.908114717069862 7.221815766784284 0.7997028146602421 -0.10495088838179345 0.46985470454729406
Ni 5.950255595179411 3.3017610730144575 6.732532377068259 -2.2005231206712232 0.7647823486339732 -0.39098637218516535
P 9.08141611165944 0.005782056178919762 6.605855207997052 -1.499801864183217 -0.47397566869420305 -1.6114738733389278
P 0.24414904711198085 5.293971519386891 6.415288388097294 0.12819443229076632 -0.19505005646273504 0.04980381089600455
P 4.533674830771989 4.097762073531329 9.124418602028772 -1.8249430557387991 0.0620368626270867 1.1403246183499263
P 4.759280819118288 5.21064919192074 5.1809836098132696 0.8641963663579375 -0.5524498509417066 -1.0000596280478713
P 2.835939859707499 7.547473866465257 8.21404972626312 0.960331970440946 -1.2724502673742988 0.06636402924753088
P 4.119427534631338 3.621370323152646 1.490741039767629 1.06621128417428 -0.13035621582877552 0.32714176692537855
P 8.374459696275052 0.09289836927464416 2.3983766635193478 -0.06064486737556653 -0.057735149927939274 -0.32867260174760815
P 1.7300997660325719 6.895624080375584 3.9896187634546356 -0.07733158400262811 0.26409960296222906 -0.7491780664378129
