# total energy = -340877.6621453671 ev
CRYSTAL
PRIMVEC
9.17847899932805 0.00000000000000 0.00000000000000
0.00000000000000 9.17847899932805 0.00000000000000
0.00000000000000 0.00000000000000 13.43363179039095
PRIMCOORD
 96 1
Ni 2.3088464411442953 5.7407991318522535 8.95414706575887 1.4005035461015105 -2.250741136286511 -1.0570229328067924
Ni 0.06741960106850053 2.3647617363915665 1.609873125876229 0.8164766916844712 0.8646859043998464 0.8703055645794688
Ni 5.330007117064521 0.017009557641536905 8.19626168178683 0.6205902553633699 0.6246700818596983 0.24689223794500703
Ni 6.461153714401758 0.31116145883729274 12.453863550505089 1.0576662228177462 1.3269445417674373 -0.9047601467129128
Ni 0.3011321346224711 1.1084482182915205 12.653796527082937 0.5431262595479356 -0.5991745086917553 -0.043940667247008194
Ni 5.355771108160892 4.141614344996945 6.045094170404832 0.13406528924924652 0.12827310804750167 0.4568382376829681
Ni 5.9547311248961465 6.964905366462038 6.6802632875587475 0.112226081886968 -1.1235764523573104 0.5135632011788381
Ni 2.5892856944248477 5.142573393452485 13.516517582556096 -1.427041444491039 1.256448492629404 0.10245511854313322
Ni 1.5789462402334715 3.0129642940003616 4.930532167122469 -0.7091691301450431 -1.7703055708995767 0.09893707808754573
Ni 5.494136682004066 1.8463428745799502 0.7750280295618842 -0.31662672632666766 0.7758203516156897 0.49511013667997317
Ni 6.591717580930391 1.3439863513570935 10.077064238651145 -0.9370598872868829 -1.4463591709830446 -0.39554879474486715
Ni 3.7550902291970307 0.6955258784829589 12.791665545201736 -0.6643177781583075 -0.1732085351076114 -0.15655884236607231
Ni 1.1848957714948232 3.060343603597606 8.41306745666623 0.35625411091030257 -0.04223216919633373 -0.15563710188275132
Ni 4.05892542594201 2.803630719032451 4.329095796700788 -0.598546131079137 0.01603494197567561 0.3910365086968104
Ni 6.951972889278289 0.8451093895965219 2.4458343252605133 0.020383191642042317 1.1637162578009894 1.1774212660919077
Ni 3.1551572936672567 6.801298974836528 10.933041865460781 -0.6126368048442482 -0.17435781822070617 1.3131132923113
Ni 7.620257959362631 6.545770114087345 11.008566063657211 0.8331253559847459 2.6106035333733617 -1.9192277226559982
Ni 5.432273732239356 7.518055593542151 11.832383217220473 -0.545064614221229 0.3793750131984821 0.007208087712665006
Ni 1.5172026106982788 9.125491833192484 11.047039494892926 1.1519177225041644 -0.8087600397665039 -1.258278603859607
Ni 3.216992707994385 8.594415848572925 7.061697936645825 1.0342391021430575 -1.5148767562384684 0.5842088885208584
Ni 3.308557216429509 0.2979132419692837 4.548479806385665 1.205862037931104 0.29253986058079295 -0.5011414304757176
Ni 7.112963414333629 7.406573785256963 4.599299209984663 -0.5322942019294381 -1.1218831238152873 -0.8316734540295677
Ni 5.812896085917802 3.780725721584691 2.827698527173849 -0.2725968417999628 0.3851656517383302 -0.26414125483344186
Ni 1.1494301278908419 5.126758873801952 6.315795057260998 0.3561281268553995 -0.43966815366158474 -0.008795229694126787
P -0.12201778455149334 5.1400217762366704 8.276379708819643 0.9781222045448316 -0.02222333017457463 0.41215246473981926
P 4.466082762969086 7.8250022947337525 5.368952322130788 0.7626228790888092 0.6485515164629863 -0.31399417379982697
P 7.241691585023546 4.88563104690749 11.939382256267514 -0.8940970105721119 -3.350797908255326 2.0590080600121508
P 1.9486829175883338 1.707454127422743 0.5894244947010474 1.3132264208503963 -0.4192949893218714 -0.22844431565246465
P 8.417418055803987 8.08888357154909 6.172472186805375 1.072057715652728 -0.060365902682567 -0.7391381657033076
P 7.416587506057156 7.648481782882879 2.2229836039842215 -0.4752375661257622 -0.13190967635882445 -0.12851736284782384
P 8.648045702500996 1.7954390289723723 3.833166044609274 0.11608813594553555 1.0770559401982676 0.7431940809402362
P 4.28090694523867 4.619069654167627 1.3371538914453949 0.8490512831863829 -0.07075855877080073 -0.2850551221679736
Ni 1.5444810508615898 1.0770669979286809 3.1584890816145252 -0.498649003071167 0.018064056590562438 -0.8613079890665489
Ni 7.710418160481137 0.08416390066134305 7.792084596953908 0.9502131368393893 1.9921490934060726 1.0377926238222708
Ni 8.072591770980491 2.7408315643899974 8.539154978892157 -1.1689042297598322 -0.268870284877995 0.3216691738465815
Ni 3.2384152784321936 1.3883826552164258 8.656552317017603 0.6509945786868402 0.37581480665104955 1.2760888925681508
Ni 1.2470983249896948 0.10608486251936303 5.571437833772371 -3.397031742411885 -0.5603392809921124 -0.7105099604436538
Ni 3.2385070632241297 2.8508815299209855 2.0752541456677607 0.013114168784454833 -0.6333928064446769 -0.7013293223856502
Ni 4.175198400366244 8.962996037549397 10.341075849871034 0.181447635187952 0.7667117044462021 0.22645376758499708
Ni 8.669780341231386 -0.07157010935983606 1.1592832253051466 1.3341207478009023 -2.617179901039299 -0.25362030069746
Ni 5.451383325920384 2.7748378298021996 8.389679773833077 -1.1347005872949296 0.5850115869278119 1.4739352808291004
Ni 7.886085073767007 7.001178716235054 8.021786135100285 0.26911531100926556 -1.2149064075215592 1.0397389489153643
Ni 5.82215717142412 6.229957001994747 1.6514773363648747 -1.1183889946190997 -0.44838367915771166 -0.27359314427496106
Ni 6.354077576129488 2.0213397588846895 4.702738834800437 1.0150707567447228 0.7631085604759761 -0.3909534620647009
Ni 6.336528323911369 9.196193658420608 5.965526852123632 -1.4057676227139273 -0.00461718705703721 -1.3662495100146472
Ni 3.7439750908936085 3.9415785694521284 10.21684146259429 -0.29093137844309247 0.972762482894815 0.06064512448588264
Ni 1.5985606502701455 4.451222805154685 2.966240327817539 -0.7073117652213303 0.32070295327857024 -0.6643871979436622
Ni 9.425013144716484 6.596517925548632 4.4005888068353975 -0.5543267562494453 -0.7377060612424714 0.05711731383828227
Ni 0.889202803642466 0.5600258258440203 8.306028032310737 -0.22838723716228407 -0.8952522072224776 0.0977109189899285
Ni 4.513599749754234 7.054111005744414 8.762301247198481 -1.3518611025034588 0.9342352733538943 -1.7854151728475058
Ni 5.0774887974908305 5.255835826701225 12.636762187547577 0.33125193243901013 -0.15912403199008726 0.9576179139438926
Ni 5.5405155373692105 8.624631402078181 0.9824717556638375 -0.36052934124688873 -0.8896132637691453 -0.05664731618039921
Ni 2.9659888374876346 3.69252971501361 7.111442540331253 0.6249426187947947 -0.655752919307432 -0.7167515704779914
Ni 7.863643692138711 2.499153028743921 11.62050812136386 0.7710689529736333 0.5834771525611564 1.037943033357206
Ni 3.7201385804278893 6.052582891578871 6.499997038348976 -0.021285648851653665 -1.7209699578892426 1.4317864153751922
Ni 0.11375715327727404 4.197786637661637 10.268318963151467 -1.1750422243367697 -0.502829616811418 -0.5583214792311352
P 3.876530687407248 7.707738044556613 13.295722840619163 -0.9449287485119985 -0.542361356357453 0.44932136048063265
P 4.354738631871803 4.815048541908884 8.294085913031973 1.1844414061634827 0.7814821778871573 0.1441581547088743
P 1.949830227487531 4.804043545355785 11.285311896910267 4.368191399595954 -1.5751925224093903 -1.710529479282209
P 6.4751692521303506 7.748875988302225 9.685084434818569 -1.3793472237388695 1.2637738226462236 -0.9744108171315156
P 4.86687023543582 1.411090212741335 2.9254282200832984 0.04984237744342384 -0.5701932909680567 -0.185288606200597
P 1.808463290948058 8.014960100124021 3.098641725880726 0.5395082031793741 0.5277158385301363 0.7791663852697871
P 6.63451682941004 1.9625515996498288 6.9400968550497195 1.4514386423884809 -0.2558849283619206 -0.9102103711942066
P 6.745668212444258 5.298873715639909 4.890245068398102 -0.9795993033109903 0.25696941967535103 -1.3255204077264011
Ni 0.5787838837719336 6.741510361369568 9.940001091005541 -0.21543376232540964 1.070052769407557 -0.19826110720086498
Ni 7.991729369285078 4.617160530495363 6.457143636842084 -0.5603575358245575 -0.049915139662888235 1.7281397361648043
Ni 1.85563149552385 8.457775828818145 0.7549032960820473 0.5705226492830174 0.6142386021137293 -0.4013281204308056
Ni 8.380639889675322 8.80468562841858 10.066290539773725 -0.2703396703346699 -0.9251551654294969 1.0626374507800924
Ni 2.226790837153717 7.18039770096884 5.350078615365036 0.21839464472594647 0.30770756946016686 -2.32165190436446
Ni 3.596320896106535 6.705319617909293 2.0270680477494007 -1.7370519510527698 0.8804969032901738 -0.6935980151796636
Ni 7.411135489416171 3.7244524656488704 0.7211604530227 -0.3531533604977918 0.9712614728692563 -0.6658879508589048
Ni 5.972096807530394 3.463884619822413 10.847670994785483 -0.6954708067223442 0.8720387452204917 -0.007194717976226318
Ni 5.337524291524061 8.359006214216063 3.3268526790060666 -0.7362649579205707 0.08421005629001627 0.4224245360897886
Ni 8.341227500018103 4.01925603886737 4.285919312726282 1.6254277644158586 -2.3932247315064394 -0.3355137930391576
Ni 4.4134441847939225 6.038264464036891 4.176247500538069 1.293379047107166 -0.7136405356528355 -0.6516314409398907
Ni 7.186014930235308 6.9942397859647105 -0.17188446201019722 1.302176333683822 -0.1386166560653548 1.0596434011487752
Ni 1.1677320154028343 7.204270925351333 7.509104740632574 -0.9341177739394235 0.8498328985474137 -0.3171928832427827
Ni 2.2318573576685714 2.2865886290998714 10.665497457599285 -1.7922100842821522 -0.23447535233789296 0.8529189936719053
Ni 6.7230707966696714 4.746136520123508 8.74882723974231 0.3971444213667612 0.7896636852566852 -0.44704850528605594
Ni 8.959535750893417 2.319062088486747 6.4092530859537575 -0.3679680569131211 -0.6081219476930301 -1.2220072802323985
Ni 0.6338217164082988 6.62484271234001 2.004069532434055 -0.5128039544153105 -0.007264394871897167 -0.7205506325091076
Ni 0.7101829919071819 3.512273562130951 12.549107711248917 0.8779666806691524 -1.1912386315909742 2.0861992757149617
Ni 3.7915012561579506 3.170246713461497 12.976808320407057 -0.19913708204791508 -0.7776427495364091 -0.5788201134051193
Ni 9.625012206344527 5.7248561134930105 12.05671167364693 -2.987219238659152 3.0917695491684176 3.1982371313050533
Ni 4.429295418361229 1.8408725009805782 6.441614567894471 -0.2012944947105501 -1.3445427144651747 -0.2956537236194263
Ni 7.653300484459507 5.467509913863498 2.7136742801520413 1.2369829277056246 0.6723982411735968 -0.2943928546291317
Ni 8.668100679538961 8.821454709905247 3.6413339937676756 1.4401031627710037 0.13716912498555087 0.40071105567209697
Ni 5.309814462838652 5.8198074807505655 10.324028660464801 1.0663321260228602 -1.9873226185517068 0.7496076977760638
P 2.9180771760971624 4.5886338171617265 4.700696623179866 0.037905259686205686 1.520943788368155 1.363682006397787
P 4.396078502159674 1.8743923069955217 10.977319766938518 0.496023649633178 0.06390631173565768 0.16014990215144032
P 0.2067608472499511 4.677766028610552 1.1328326839650966 0.3061559087023308 -0.402480488867694 -0.14043134067659044
P 2.3136926781585045 1.2122751749292635 6.821221781774107 -0.07187364621185041 4.983102602296676 -0.76697549963055
P 7.672786395787471 1.5581753418184066 0.4293922028735162 -2.450058452666032 1.1538807597678062 -1.862039189260148
P 0.17746956659948881 7.924340975045837 12.244876922050695 -0.9037864699457339 -0.22060270812085878 0.6285146524167693
P 9.170521452116173 1.5725671971939355 10.084989855434799 0.6023446788896207 1.59843760898026 0.6631672094936321
P 2.4594193923149263 8.146441814572013 9.172618734611905 -0.2491314116881709 -0.585667732454572 0.31847792060279345
