# total energy = -340884.7019271115 ev
CRYSTAL
PRIMVEC
9.14010896321100 0.00000000000000 0.00000000000000

0.00000000000000 9.14010896321100 0.00000000000000

0.00000000000000 0.00000000000000 13.37747336403766

PRIMCOORD
 96 1
Ni 6.365034864027143 2.1446626156507116 10.952311199250289 0.52349640113215 0.6996146536873887 0.8178828280033784
Ni 4.925549944377094 0.6810779703805248 5.848136103056768 2.1325917469365723 -0.14262037790810922 0.9799111781244543
Ni 3.335244084742251 1.90861015846343 4.6617819344162905 -1.7896654634834273 -0.5173185544562123 0.749080364517684
Ni 3.6354326873675853 4.522763617290859 4.746287726957555 1.5474744876688318 0.7409119697742789 -1.2606656160345449
Ni 3.8588900742379737 2.9288748348953315 2.6876015473996255 -0.1625795946388555 0.3604426950703534 -0.9769184140447176
Ni 5.247619968148031 5.076498845889057 2.5856646528254523 -0.08926150267099467 -1.72025750520325 -0.006076288101066955
Ni 5.025826081130818 3.347199347423307 0.6304198297968189 1.4055737615355666 -1.9986740390087838 -0.8722277213028461
Ni 5.994778185168644 8.233236600232965 12.313268871710509 -0.9900114997832499 -0.5284704573079737 0.7333547262523111
Ni 1.62480977142459 6.750253901455128 0.16060177071491677 1.2707996191447533 -0.6705035952540452 -0.536136972714296
Ni 0.9910985883468472 0.029110333419645806 13.177908566823392 -1.236806035808128 0.12387472186948988 0.9337994713680563
Ni 8.773161124006181 8.940580502086389 6.4965692598351055 -0.8860407159265385 0.675079901770818 1.191540221991793
Ni 8.976501130784058 2.3058941398814725 0.8955524580437709 0.41184161836761973 0.30469963587177845 0.09752220001789011
Ni 7.236507704690758 1.0979556036406017 4.89073709690033 -0.15303925924858802 -0.53174218608071 -0.9586085599919363
Ni 0.5548046213609533 7.185478475678266 2.0731074436696817 0.16444338732047162 0.6299896943003989 1.3319851895151382
Ni 7.8478530408414775 4.077292980785255 3.5363347106747085 0.16489667280780634 -0.1669378716075512 0.1509119284929401
Ni 7.777940346462731 3.770724582019724 12.720987201658135 -0.31070136198116816 0.2547348739178774 -1.0870292493608955
Ni 8.540335125325331 7.205495314570861 8.984190704555903 -0.07649983212995214 1.1855189554983776 1.37736875985626
Ni 6.884019397890343 1.2424698683578677 -0.08840861911986751 -0.8196715444726852 -0.3520477861384389 0.7176717682994156
Ni 2.3751487464062166 6.818174052053699 9.189361475183182 -2.049239153550845 -0.14907461817388518 -0.2761614192227696
Ni 9.02867287343197 4.977803948006757 1.2201524640089874 0.648724808816057 -0.5885702508133477 0.1387421258996256
Ni 6.9668470664039015 1.9737242955734042 7.096683229944173 0.6936077853716764 -0.01521630272912218 -2.0564662674269036
Ni 3.5724481956740375 5.009355604562573 0.8757494977037273 -1.8237202390752916 -0.1827982356785755 -1.3723103714967464
Ni 6.321692466753771 5.889566389509897 4.733565609124405 0.37544148247203085 -0.23033639046885493 0.9093428809875888
Ni 6.062862857730716 3.1614174901945966 8.733563429424269 -1.6451722940326379 0.9339398536006626 1.0781728274115303
P -0.00985852165732989 5.712284833728726 12.45404026175813 2.110102050474488 -1.4514029040545393 0.5690149543892394
P 4.344330407765183 6.1786680398170954 12.386122853192285 -0.9817209776396835 -0.20059001244435776 1.7213918759180096
P 2.3737960102618767 8.615677044499604 1.420714791636426 -0.46061261712373575 0.00870369842158501 -0.352238047772374
P 6.817196060381778 8.24708386549428 5.933792635331631 -0.22044664215896873 -0.02017956027166847 -0.7405093350192216
P 4.704075961177798 1.242067703558199 12.729187707527737 0.455512576893009 1.4005500830687299 -0.518933721462132
P 4.279974899709129 6.443456999962512 8.487285018194507 0.9641860540797136 0.5083695727930406 -2.3186946215083486
P 5.1007475552872545 1.1241328760553921 3.605590231210361 0.6769727479181566 1.04536503685289 -0.42608321588829845
P 0.03362828933955881 6.0138170323893165 3.913553410622015 -0.08260363103484483 -0.22003937941822105 -0.8583411931287411
Ni 1.1309788177588411 0.48134830669058154 4.816693073215897 0.4935746738720531 -0.17908967647873672 -0.39032714133461166
Ni 1.7908307128150405 7.135153035065195 4.737779199411841 -0.20614668059652883 0.21391604012930251 -0.7772771386668743
Ni 6.370189885550167 5.908586956512403 9.000537789651522 -0.8863793302128798 0.2360385830599548 1.5206033743096008
Ni 8.718320469505922 2.6518929692326902 10.057170960126179 0.346945431914867 0.520273266209162 0.3403194419579171
Ni 2.9660659387555905 5.5941489238260855 6.6668376099166 -1.4420119497579422 0.40749928223852405 1.4166403037623732
Ni 0.6350895115275159 0.11416544651682248 9.30910330225177 1.313887708583479 -0.13650526614930686 0.15450118850609518
Ni 1.658509353614999 1.5475027287973913 11.541120682445037 -0.2903767914912031 -0.13569074066781145 -1.3575401551661073
Ni 3.8521720940616917 7.073347617443404 1.6744314236382407 1.14653460381538 1.4193420189642523 -0.19694418816165438
Ni 5.986707468848023 8.079326303377988 8.110761880548445 0.17639078949033493 0.9913926964014926 -0.14909390144759482
Ni 5.556756737565991 3.061479537476958 4.587376876423064 0.5366115983578694 0.1337387591477632 -0.17539243013280761
Ni 1.6552828951085672 7.7898133481620375 6.806298308321668 -0.7894731665124339 -0.13500168502058688 2.91866900039358
Ni 5.240371861644914 4.869502795477829 7.131530809835454 -0.979876468231777 2.030162853645684 0.4999836627221906
Ni 0.9682300354202391 7.376159431375667 11.24610720958271 -0.7344405031173222 1.0793051412437606 -0.3961558322012467
Ni 4.696882695329181 0.5136759585075759 10.671370752343638 -0.13552567584485692 -0.30439521725748225 -1.1392334421682768
Ni 8.267146404932292 8.036477471995118 3.966247053498589 0.559522955738404 0.24026676220868945 1.5603397736672742
Ni 7.687105942392137 6.470566563503807 6.975978035378194 -0.7778196414339056 0.5049178667990143 -1.994430690351397
Ni 2.354455539441452 5.766577081683983 3.077180416860382 0.12278971633542726 -1.370328565180027 -1.6190812533725407
Ni 2.4141038913195674 5.518514521161144 11.302667118601551 1.78744711567587 -0.1969742700686414 0.4207414919604109
Ni 1.488640426300447 3.414607651913209 3.652197475448314 -1.1666241754764037 -0.03882854283142345 1.0271130326212374
Ni 1.644406165299349 1.3767563510108352 2.239642973201527 0.05195196758725891 -0.6344518438368105 1.1096873530800435
Ni 1.4547123413829532 3.7949458710906714 8.01000314603512 -0.4127954976404568 -0.032782593747659676 -0.29837189388153773
Ni 3.9841095686802315 2.9889893323366987 6.899485376470325 0.6736215720577368 -0.9854974139629802 0.7137696050315321
Ni 4.777507597553645 7.326044213271514 6.19938866710911 -0.6576869031053513 -0.37429528468272955 -0.7758368066759219
Ni 8.21218692901395 7.428678498168749 0.018152256639585723 0.23160651543053018 0.5802905273030587 0.08956257885118124
P 0.6231360768682761 6.0457434334175515 7.722908663682629 0.7642817548484709 -1.1254312461778617 0.06343811384998753
P 9.317244397412333 1.8255996877682048 8.075271750988602 -0.9855076983756254 -0.19789549633133016 -0.9228802533523913
P 2.1407963495084434 3.5556852356151247 10.132285290584274 -1.4762119926784192 -0.27427422950238567 1.0297741243931684
P 4.45252187898511 6.579269880832404 3.762694996189978 -1.9865962819086431 0.053740426946249385 1.520024104767363
P 7.057434687529246 4.263477002813634 10.243265409085542 0.89516504682531 0.01663992254952618 1.2382443109165515
P 6.597193634744905 8.020473140990127 10.18215738178681 -0.6100376766585042 -0.01036437395345957 -0.7568443247338191
P 3.057531010352939 8.978904979472986 5.875092112765461 -0.3100231049672209 -0.8704765429396945 -1.5341098934364676
P 6.861726671835988 4.248715726643981 1.341746991188778 2.4184552239384542 -3.298719956613164 2.7882469643238754
Ni 2.7964255141681225 2.1879867327059164 0.3927120988545379 0.7887386023392545 -0.869709839976999 -1.37322594133248
Ni 2.1384473414740155 1.2794233293819586 7.112107164022371 -1.470463520230416 1.2092188702184787 -0.7443212525661439
Ni 7.410316019020245 0.8026679275057739 9.041459886039615 -0.3799635387121004 -0.7583368501189456 0.6508179438996599
Ni 2.924149398499226 1.5877831895278318 9.265653051691215 0.084191544347255 1.0515742509873955 0.6838252520636159
Ni 6.889969608903621 1.6343429051985514 2.4208949923685164 -0.8316356588130968 1.8447184385935131 0.3081451712182177
Ni 4.351925838413468 7.231462364476734 10.5945307692906 0.4644929260147484 0.22863663416892882 -0.9060127881730913
Ni 7.649375572095958 6.310815736944552 11.187996224052418 -1.7829883085735683 -0.3631806628268068 -0.4012702706096767
Ni 7.946383416760277 4.438948816996296 8.122855158876659 1.4132251074332371 -1.0305925065294057 -0.8327867416984045
Ni 3.27872165017065 8.660344757590066 12.564216964670969 0.30972588544177626 -0.4834028755453739 0.5472030007204705
Ni 0.33345402963428306 5.144181353651461 10.04459599804927 0.5503965679571037 -0.6664996163009748 -0.11243511257398056
Ni 9.02474262652612 2.4775819489036173 5.8903826012510425 0.8648987917416009 0.16467452949467123 -0.032197410668150996
Ni 3.8073946996622308 2.858258352117165 11.337944283619752 0.39712693786526443 -0.07825898091290392 0.6297505817063993
Ni 1.2980600118029635 3.7853487565531263 12.420836987490949 -0.7707143978476919 0.17085571860471865 0.7499013177570827
Ni 3.6157266121838254 8.753738392204006 8.169087658642194 0.6358757207675307 -0.4447000596585373 -0.030107618018657828
Ni 5.852375285649638 8.153754211643923 3.5433451743416584 0.33847441832937836 1.0291467752218146 -0.3061669644459243
Ni 3.34501486135238 8.891068531181737 3.488390268477857 -0.09151250348870046 -0.8624526441939535 0.1511214734005849
Ni 3.8546399235142035 4.479805104598989 9.246001817161956 0.4772337706201845 -0.23656231677390874 -0.019808550085494918
Ni 5.505736648662584 4.457887123017052 11.853284655991411 0.3237114010875909 -0.45888869245409364 -1.3164850369970102
Ni 8.329975514771421 0.026645245999859166 1.8358439220288532 0.735121845455063 -0.6038220347660955 -0.7607318327136834
Ni 4.702595263506291 0.5303593996174629 1.428312964317437 0.02778694030528118 -0.6471700627344273 -0.05923641706381411
Ni 6.2325764031908495 5.757747736309441 0.2965608933301422 -1.0575857472887982 3.776255831854799 -1.677644041408098
Ni 8.129368400609474 -0.2229208624671944 11.292995969180431 1.0968598622980723 0.18347289314809695 0.27204842549566055
Ni 0.275424391074834 4.953326735881475 5.794305430610222 0.4057141653136432 -0.16757164853680817 0.06816045902632131
Ni 7.346362675763859 6.360775573194289 2.508891392568723 0.04864372914963235 0.048832448121670737 -0.7223210941459689
P 8.951237869277605 1.5622914252942945 3.4763372066296085 -0.8747286333478291 0.6276867571988352 -0.22862223599122564
P 1.86768074998807 3.682687051328642 1.5528570046984336 -0.3847704731824405 0.686636753370482 -0.5833108021866212
P 5.1172180318555 1.3748003676669924 8.157689942615225 -0.8413202330907124 -1.608502963636062 0.4819900543582474
P 8.58423506925279 1.6899147684254807 12.06990615527834 1.1417819196217434 0.8693383155701933 0.7146684626967176
P 6.438795544329991 8.021926418334385 1.1584612977507374 0.10430219905420102 0.2039383600913004 0.7619757324231134
P 2.2328098276507946 3.4381708531301536 5.835869162655968 -2.338208266061244 0.033066700646981764 0.6723059385701067
P 6.72037488486157 4.059579449381672 6.113237654932837 3.409245767979574 -0.9084165125185775 -1.1590342789442878
P 2.578278530675176 8.724663705209785 10.410576933878565 -0.23278253801650234 0.7484779550469949 -0.2346267903140927
