# total energy = -381170.1075002935 ev
CRYSTAL
PRIMVEC
9.24984796907341 0.00000000000000 0.00000000000000

0.00000000000000 9.24984796907341 0.00000000000000

0.00000000000000 0.00000000000000 13.53808749169665

PRIMCOORD
 96 1
Ni 5.188628088803612 0.46237953866442016 2.951830834235973 -0.3106013460681941 1.5879580496051748 -1.5049047326274212
Ni 0.05804464451380075 1.9285377538979436 11.037602807489973 0.2387950627591694 0.048877956647625495 0.7459986402685668
Ni 1.57863451373539 9.011405161193906 3.2199256460658185 -0.30143253508473244 -0.522722499080603 -1.1793786469285947
Ni 8.338219742653399 3.8687025664002097 11.964650297148733 0.17702199531643062 -2.0061592916422355 0.2663657732885864
Ni 3.392723901594122 0.01887708925990639 4.554361404612897 0.972430553476693 -0.479666034210761 0.08861538444656351
Ni 4.1952961902677 0.2000520068980554 12.16673264562487 0.6899964138713343 1.714990600377356 0.5260343370626553
Ni 4.107690882358756 6.292652915197862 9.923120103245248 -0.3660065623113761 -2.2053881620730085 1.539031499107801
Ni 5.276131648387458 4.331944190873638 1.3820086504387996 -0.8571674845356141 -0.5472307686346123 0.25663466204375157
Ni 2.2463995215025214 3.1512103772036113 6.971397492227788 0.9853704014668127 1.0478978305770728 0.3216946277678782
Ni 6.984208531342336 0.3826763756764569 4.4608130695334856 -1.979309775549559 2.0901783149673685 -0.2452693576296034
Ni 2.7630960160430798 4.3124917610845435 3.5092886327953616 0.34641938420806795 1.460310490956814 1.4649654732303223
Ni 7.3439998587348185 0.0068402624008725875 9.398045096625298 0.8517303726804429 -1.3058815504495511 -3.0713624462669746
Ni 1.6294161778067768 0.8221930656914697 12.894594839118453 -0.705565729064501 -0.6746662112721671 -0.021554586242324168
Ni 8.06223203575031 8.405900878538706 5.818724016650103 0.3189219501187475 -1.3249773907387374 1.5621074070906582
Ni 3.9099568873033763 5.179609487260879 12.598814308029578 -0.5447938770583456 -0.048537799699387374 0.6154565336812303
Ni 1.1931748588751299 1.76537968968024 8.932172815455711 -0.34272676584782913 1.0073322504498845 -0.9948752556334542
Ni 6.139919429378784 7.231151716353959 9.336338437392762 0.3252162677678915 0.5437474380717022 -0.45373723016014117
Ni 0.3207310703723276 9.08675442085247 10.107616641205443 -0.5957215171461483 0.8827738722498086 -1.169580172780934
Ni 2.145289435898819 7.62345625853896 0.45480391336852477 -0.41815393373889276 -0.12002115245135458 0.13682716826509983
Ni 4.4161363049679485 1.28404536303493 6.45617819837069 0.5159512417950405 0.5166616375985037 -0.35939497053212943
Ni 6.133453785811225 2.0483695313195858 0.4969489946086813 -0.6982342284000943 0.057418647128784986 0.6257964821546578
Ni 4.620937183693735 2.302527597565395 10.836913486082898 -0.18737402797471603 -0.4808860226607911 1.4082716200827037
Ni 1.8350310431333445 5.551259119451088 6.64554940608783 0.11100866454009914 0.2443800130461146 -0.1505743426478633
Ni 0.7474237714859614 2.4242833433161537 1.1395414667466923 -0.15065481817681148 1.3598040114996193 -1.096603266202576
P 8.074136589786715 4.56862004489815 8.015183610225225 -0.4507745479873914 -0.8209599242668055 2.5633047482873983
Ni 6.19606600513713 5.975318388914244 0.0017907705217159334 0.7714037106052328 -0.7239177492091274 0.6450388753240375
P 6.408442509158813 0.2047037553245582 12.949708206884672 0.5576547921814138 -0.22374588173553078 -1.2702442608619158
Ni 6.733269412108703 6.1829034718086096 7.171517023014317 -0.4830866298565357 0.20007116382641027 -0.3636614591179672
P 5.616535294925001 8.845916135346696 7.817202644235291 0.09783047528692827 0.5295644617031008 0.483576939229393
P 0.6688416900436178 0.328400119130358 1.3663310835108227 -0.3241325477854095 -0.8737963513415468 -0.4238530410061991
P 1.7495624500514477 7.666986041985216 7.512203714892585 -1.4988873227887476 0.46636751732964193 -0.6323867337776656
Ni 5.168528169672988 5.5761689594045025 3.470096102952579 -1.9462975822895965 1.173111325862644 1.1156805945490011
Ni 2.8293989246157025 3.631027728820195 1.2822934418737058 -0.1773978905986106 1.6367447320905748 -1.3332990232305553
Ni 3.8386683108009763 2.3456873871022057 13.216150995908844 0.2259752852866818 0.809795937230186 -1.248289096747063
Ni 3.850674613162481 7.875542358891875 2.3716017605197646 -0.8206902155451866 -1.6016106073916028 1.0002326632906258
Ni 5.988832416456739 3.7434133788142474 8.037603391168073 -0.9642223066342878 0.09737539002738069 -1.07902026301349
Ni 0.33625601481265827 3.9642904929054392 9.778803978866053 -0.05821568910878361 -0.9547760736197235 0.509182041392007
Ni 3.3437089584403377 7.448782133889767 11.855383695811305 -0.7086559379540505 -0.16812597837838142 0.39602444882970506
Ni 1.7087521218396156 5.8371071640409 11.648440552349829 -1.308524901609669 -0.19106998876906447 -0.6501553706149964
Ni 9.198270585159326 1.0694581454043106 4.374169745789099 0.3385649211606557 -0.04606362712728196 0.9245962076022334
Ni 8.161825146325285 5.902642335251423 9.778532958327386 -0.40187190874941764 -0.2398304460022192 0.6548723164746915
Ni 7.017637481060731 1.3455753501757068 6.768096013820028 -0.27336148788012926 -0.15189177590770617 0.15267390548936932
Ni 2.094239526243084 7.734112187006356 9.726817984619421 0.34156925520461817 0.5311911986732465 0.7245872644723264
Ni 1.1437714221164272 8.013041345489537 5.360730755782158 -1.1573034122961101 0.7679761729809226 0.973598605642865
Ni 8.58359045354988 7.675847396116435 0.1127075446952702 0.8952722618271355 1.6346788507004815 1.9267412574242238
Ni 5.712187970364383 7.320421996855408 11.798158587806927 -1.4047602644953356 2.0509941885687386 -0.18939774327296413
Ni 9.247516774506513 3.946355038145072 2.815462179031667 1.9476630951785556 0.44539014374702646 0.29683514552203716
Ni 3.4754915391370673 2.3945543326922123 8.789751984877652 0.7287383105262223 0.022990290247586212 -0.3812706875592982
Ni 4.860582238841547 7.817999056125373 6.02383939019892 0.5412604099837903 0.5263382414563194 -0.4615055612516504
Ni 7.788066548851237 8.139274017544587 11.391880300646946 0.22139460789453483 0.45352897080407706 -0.09328836444220062
Ni 5.402873062067994 2.943958288827748 3.879758909399213 -1.3579147648967065 -0.157887845590141 -0.7915935552895464
Ni 6.998351548530888 1.2074381240842518 11.121091933156336 -0.8540590208136195 2.0275655252321534 1.8157405633039245
Ni 8.277512991961139 8.207926387442187 3.345667151206078 1.4736244344569007 -0.14191281031812333 -1.011642190679148
Ni 1.8674147600575568 3.3735212176939045 12.171038449746042 -0.8472620524964442 -0.2821780577304947 0.6398928123467238
Ni 7.084726626690926 0.03412546325292662 1.4391930591131397 0.16903023536020567 -0.7008773224498962 -0.07623886515908161
Ni 3.035818526695314 0.2690882454767066 8.000792697117346 -1.5478197868233925 -0.17277761821777984 -0.35374677110741654
P 3.293611783101425 5.890432536239723 1.5384143258091234 -0.07947074183281796 -0.6176694821721491 -0.04676656673157752
Ni 1.0123125860904623 3.0807912863884077 4.972038279138119 -0.07516902913367055 1.807431272107281 -0.5784743000299263
P 6.137764214856264 5.571581034927378 10.932573561400469 0.361665511733861 -1.0192351725350577 -0.08162918293671749
Ni 6.289396968794743 4.2455506130181275 5.728127307983293 0.8026107323356565 -0.47519334315138806 -0.9270055883746745
P 0.8478678680526625 5.370720591337186 4.513720348614636 0.45887583693828715 0.013028293938867886 -0.14016008929307475
P 5.579350907025733 8.001368037646534 4.0541694133879265 -0.2638566337134875 -2.0273716640537924 0.009831384268125003
P 7.971935022150149 6.006074132636896 1.5163062647349848 1.5391369143374138 -1.42053295394856 -0.19648293225451968
Ni 7.9862630362934235 1.7864600926708942 2.493255757945425 0.038878422232752397 1.0714496497550838 0.21405307992779912
Ni 1.9241255765278067 1.1814368020979733 5.9202734700212725 0.007806383418296233 -1.112111132030188 0.02356878845887554
Ni 3.3274014768815303 0.5617932021933156 0.9744427844739477 0.03821379206555999 -0.23140314117047245 1.6607652633748884
Ni 6.5702685953025135 3.685759077874912 10.201964163129258 0.2549297635375029 -0.44207290644833547 1.2353415354474597
Ni 0.9348173617571146 6.555986830397919 2.665540646924374 -0.012335124526585207 -0.34946819833672077 -0.22508799758572204
Ni 8.802895093525928 7.235943137481278 7.924776523437006 0.6521852565608317 0.656590584717379 -0.1406941074196738
Ni 8.427129279093139 1.3485260516035342 13.403708308484926 -0.43196332881815924 -0.11434801332597724 -1.0208346558116934
Ni 1.3124053961939233 5.768195798406686 8.988152893954808 0.962043296705098 -0.2057335043185102 -0.4202509254772375
Ni 4.354874563411519 5.457733908991017 6.1042150171172995 -0.45680841288629714 -0.9858812796649601 1.1354125257602898
Ni 2.097245726757328 2.1932036471720036 2.916171746228395 0.49102516797732215 -1.8343430088964603 1.397797460024257
Ni 7.64291793817579 3.782947228038493 1.0031210123950638 0.7678381047411614 0.7725398810922051 -1.127707186696232
Ni 9.11964687940217 2.7067089442435943 7.032819256150051 0.022335173162090566 1.8009088976077305 -0.9814988343265484
Ni 5.674698337489823 1.5529661862676127 9.02312194332127 0.040081955622550326 -0.3587912755098595 -1.2916736343802853
Ni 7.874127132188247 6.271008271495304 4.6538795914212105 -0.8675166889804221 1.463815675896595 -1.7365292457800803
Ni 6.380692965950405 7.210543055597848 2.1530704078144565 -0.389414142602039 -0.5370941944212427 1.0397525757621189
Ni 8.26601543122512 5.973625666778531 12.312782191469816 -0.10613128184313979 0.2077338225779906 -1.27283207619375
Ni 2.3432176777566576 1.1308678845245177 10.744760028042096 1.6056891483363507 0.04438623942485904 -0.16656043366347445
Ni 0.7006176919715659 5.050638860275934 0.2690503211009884 -0.006014324514879965 -0.04356194375135078 0.6724128964616162
Ni 4.214646871731698 8.880288569534178 9.887704286233129 1.1002028106283763 0.06903720520431982 0.1689639008986445
Ni 5.7606664223494715 3.7415819089624924 12.453754495892397 0.7814276705001382 0.42343883628691587 -0.2829871838953513
Ni 5.143525831242212 8.09823244313935 0.3838640561257768 -1.246875761339304 -0.22284856673224201 0.21295521887793004
Ni 3.770441433899237 7.307990201498042 7.9763434995811915 0.8320447213260572 -1.1812054157246883 -0.7762037030970375
Ni 3.1541980780223833 3.9863143803651795 10.344249020945597 -0.8207064134951026 1.6253272342822525 0.3843259294458542
Ni 7.958420994607654 2.3870249566349973 8.963513149555288 0.3096608365317957 -1.0143999559299433 0.15307834001663959
Ni 2.855677742034065 6.722104845891185 4.808267875000284 0.840349641647327 -0.2571378269324152 -1.8349973546510074
P 3.766713745261574 4.619531206837843 8.261265634412615 -0.17037260832071302 0.4867630502668584 -0.46354161784507264
Ni 8.648330137855094 5.036542092326063 6.1683312616851005 1.6783744918162191 -0.8895196756140744 -0.028774243919214963
P 3.854430051343352 3.1293622368508576 5.29906479587966 -1.1731388366664701 0.7312795888908373 0.9931503025225475
Ni 7.117563586154209 4.532203394360983 3.259077476578561 0.33778536268215376 -0.286147583901204 -0.2880784823753296
P 4.4310100601276545 2.3021668535036857 2.0948564910870844 -1.152503934024938 0.13883854226817377 -1.9548030486574461
P 0.7028182307479927 7.923900562856394 11.759480349498274 1.1844884573513343 -1.4540254292790507 1.562306924695974
P 7.341382151825493 2.6310451897620015 4.535475990490028 2.311229680589871 -0.6544619684101504 0.8286156410398504
Ni 0.0515605012507694 0.5565041392577931 7.286563854202056 0.03353618408423256 -2.3464671636359267 0.5176911073042826
