# total energy = -381169.07680518285 ev
CRYSTAL
PRIMVEC
9.24099138491558 0.00000000000000 0.00000000000000
0.00000000000000 9.24099138491558 0.00000000000000
0.00000000000000 0.00000000000000 13.52512498554619
PRIMCOORD
 96 1
Ni 2.6454555795946533 8.629071456105182 0.19376048773256005 -0.6190231679865661 0.6396490717670339 -1.4949036555506512
Ni 5.313985914780971 4.684277036013361 0.21963896012298625 0.4605254567265682 0.558806903507986 -0.39812555433310787
Ni 0.30434743213201376 6.06311612575165 11.67308914772119 -1.9113552618864569 -0.6176291158525169 2.0564495552563553
Ni 9.282853117538503 2.676292767984474 8.347599174150021 -0.42965139285553106 0.7710938926742978 0.0066565860845691814
Ni 6.6303466614855235 1.0597199328112106 11.599200952573309 1.5648338048828858 -0.4429352544486307 -2.8194958950358284
Ni 4.8147690759452315 7.0845229081091015 0.12401687723940745 -0.8609233520336206 -0.11752975348806856 0.5091139071582329
Ni 6.154777519709883 5.732159258807383 4.957025822062022 -0.6449203474683022 -0.5786285662196035 0.16539932347583775
Ni 4.681976029148194 0.13661327265270196 12.689353318349863 -0.4823014149510791 0.09775668462619938 -0.24999427390909845
Ni 6.484884215442923 3.5014670974028093 8.790858113502477 1.8753230508532477 -1.5082312258974928 0.4787167829236143
Ni 8.824767931541567 7.420469910423611 0.4564754052904601 0.5518196735568754 0.05262199707109002 -0.31605902674865566
Ni 0.8727700557598904 6.330282428879635 6.161749847741085 0.4183771054932923 -0.5474292577986636 1.1209390147344631
Ni 3.7185564679912577 7.123658506799807 9.756484423412033 0.0027248551303307913 -0.6989078574283512 -1.2871875735844736
Ni 4.434585447672655 3.1473061009869103 11.201427097120622 -0.15059979656915998 -1.6953879956550804 1.0268852328811475
Ni 3.1535437701997147 7.585430848375867 6.407122196689103 -0.6352098050487576 -1.115734073494756 0.8290486148122109
Ni 4.06421575229489 2.6000638297082896 7.731110457716988 1.4745942545693378 0.1032048522249642 0.4036745091757951
Ni 2.1739894380123244 6.300092109889662 13.215697087517732 0.3206114220060285 -0.7129473662405528 0.32459714612665386
Ni 7.032375993490055 3.091740019540105 0.7413419033965285 -0.042750760703965086 -0.40048351304232316 -0.27097164749171404
Ni 8.848591207438767 2.9000079294256347 12.319224812848326 0.0107855206512782 1.495946752103185 0.08885655392309214
Ni 6.296118483576319 0.3709333958547734 4.90767245915117 1.1170574202918697 -0.8163869601841424 2.0048683407449537
Ni 0.6783072526789256 0.6652229329183184 9.226474752945318 -0.5366599350973015 0.1354822242014312 1.3601135723202384
Ni 1.7108956346622932 5.850074309407954 9.989914639139744 0.9961366388443812 -1.4106306072331833 -1.3392300440030096
Ni 4.115410844797019 2.8939920440070632 0.9701710294930467 1.4028347653378486 -0.2260349348800236 -0.12200038766491245
Ni 8.249913577880932 8.049790667551312 5.515140119753775 -0.03457310998917917 0.1976566408476467 -1.395453899492745
Ni 1.786043376941591 4.835422691783184 4.158975650678388 -0.4084799009842384 0.5933825846003264 -0.8216415237148624
P 9.07094794314025 0.6155267292255481 4.21901437197556 -0.49324840088088595 -0.671850853310559 -0.09208251705955754
Ni 1.612719341748464 2.8198053648361086 10.908676185129568 0.6233025120882104 0.6428716924693896 -0.910697081022638
P 2.43766264638114 8.753020874107177 8.587832607765831 0.7518275882455181 -0.45851665382665546 -0.3402615921367882
Ni 1.0566888876233589 7.931746243070772 10.746482924109513 0.21931458543705454 1.5031173017096953 -1.2199547685787442
P 1.2416565720137214 1.0368022740737957 0.09000725649291212 -1.855879083196023 0.3404418264683943 -0.09440962253083741
P 6.494254580749269 3.6759185335499547 3.987558956115665 -0.9301988985009916 1.8380965624016214 0.1815057421193971
P 3.2018002274282553 4.78107642120466 11.33511005139202 -2.7550051715516104 1.1915728750019414 0.12049217855050216
Ni 2.987575564181983 7.985260824420921 11.715138431008635 1.6117608084517274 -0.8693352302463997 -0.369281376407906
Ni 1.0360629947596853 8.822993661187704 1.8037241658376784 -1.5200027646111243 -0.15489379595882355 1.1340087034342277
Ni 1.2042305567368945 6.228890270949427 2.006952973385704 1.9583306021947307 -0.11068701953462229 0.21348615168073554
Ni 2.844691354747342 2.764211560415024 5.686773977615018 -0.17908479138273029 -1.029039303109673 -0.8904054206531373
Ni 0.46254673665758983 8.379527723627296 7.5868373272709615 1.8406409260900298 -1.3998898237769115 -0.8739804423278947
Ni 7.676131179225758 9.07704699748166 2.0761338075009905 -0.35495056160753063 -0.922207909875715 0.0077421058392640844
Ni 4.650676791187054 4.438235639286074 9.4646659274559 -1.4794526111029036 2.1717817868724727 -0.7273157191470829
Ni 7.708271347406696 3.861921208980071 6.815918706715171 -0.26089266598915717 -0.6835761121672872 -0.6655465083590861
Ni 8.403323276550218 6.758962780157839 2.821178576162068 -0.31199025599592073 -0.16585955094170787 -0.07767302650244688
Ni 0.9019697404689565 7.60786797555911 4.2329987643010965 -0.8238516439923037 0.399831224170305 -1.127535437005058
Ni 4.40962552983001 8.458316416528588 4.541209854948478 -1.336795466419588 -1.9529423412996239 -1.5790638324393385
Ni 5.2094887837315 1.6258045856082137 9.619014510854104 0.45039993825679203 -0.5232806855769182 -0.6597255308019347
Ni 4.756550829959057 0.7436724814342608 2.297039707548533 0.9931595584939281 0.215120601960365 0.9645033282098162
Ni 6.251539940935477 7.684448071509497 3.437126694596659 -0.017001933874635236 -0.5950841406724655 -0.3347643164676428
Ni 1.9345091451977643 3.792678460222228 13.095972650795876 -0.7931737552924727 2.193275180859558 -1.1663161573176815
Ni 7.340368996739775 0.755374348877482 8.908593888869376 0.18559328192520938 0.3449088611008124 2.0373377741275687
Ni 5.339657388963445 4.66742146765165 7.214707223026473 -0.2079618794283967 0.24257664128878872 -1.4270229325482777
Ni 7.467367941912474 8.32348111062632 7.6606312643062955 -1.6641151536837275 -0.11974450175120024 -0.5835170046601563
Ni 8.656489477667243 6.901449626961146 9.269552558578518 -0.27415055944032785 -0.31658995955146124 0.22771206547213038
Ni 1.88689955736907 3.518230255850257 1.7368424903892747 -0.9972414418727857 1.3129412855098097 1.6862860333538119
Ni -0.19432880870528224 4.8672394252641995 0.7125331126247981 -0.10044734408448508 -0.30757130099261865 -0.5842178873819229
Ni 8.737921094116476 1.0748289537933369 6.692056154032584 -0.2608628411924862 0.4766771267857662 -0.8537011232535685
Ni 7.304504709014005 6.0037335148457505 12.865842393106526 -0.4933481596835439 -0.6348138551619197 -0.09907746032015195
Ni 3.5264547382197327 8.085386966525716 1.9984457166785816 0.4815833058381319 -1.553241729169912 2.8868369434846475
Ni 5.976093709489457 7.838439952638644 10.453163691145738 0.03280496234516286 1.116770228068754 0.589934735261042
P 7.076631101430975 5.984364396816065 10.58802209952657 0.6986615457455001 -0.5053433843722072 0.07686364322727407
Ni 8.438688550738963 5.37971708679679 4.821287671297397 0.4413074890372206 -0.41096358663804056 -0.37776190307509133
P 7.8908363740262 2.297633903297249 10.124921827482542 1.1992969831190765 1.7184680174029954 1.5372047303117073
Ni 3.921969171268669 0.5555637840580729 6.244942797156186 0.29430980799702217 1.3467222386149968 1.4075242003937178
P 2.80595311868797 6.927869621449158 4.011674247341938 1.554687203367187 -0.7632741395195629 0.07622703808453968
P 3.2431259410870132 5.459282022977896 8.013650074181895 1.6189311009479217 2.2836653978183574 0.4190779882150589
P 6.683084999555857 7.200608242407249 1.3763846824154422 0.12330522251926507 -0.5092769150986584 -0.47542319977400704
Ni 0.8090340137930254 3.724433738538434 6.0952599903291595 -0.3811958684573048 0.21897365715786804 0.6448604407646442
Ni 2.0618130430875343 1.4952016537792274 7.5559733400060045 -0.3186447851979609 -0.16714330275013795 -0.13241438390938487
Ni 3.1932523103588566 4.936343559150647 6.017855597943541 0.41946365368925176 1.204019071185094 -0.5399527469159604
Ni 2.6520444064816604 1.353463327281457 1.6970517054064378 -1.009584793929487 -0.6091886983946476 1.253233585236532
Ni 5.081020520922006 5.725441058040406 11.623682187060068 -0.07986000685143665 0.8007338270279176 -0.5042573503968799
Ni 4.456893200975928 5.751537617828496 2.9157730607990335 0.307583899398109 1.730716495753045 1.1128768065516188
Ni 3.0199282751657295 1.9356365461517824 12.706489812850936 0.2602241791672228 -2.24538964216661 -0.5988232959999235
Ni 8.007448444835653 1.0659483610325886 13.491285630231717 1.3070786560814458 -1.043339521782429 0.7173948604889451
Ni 2.2470671982121138 3.812038337260488 8.661138620453853 -1.4708563847934604 -1.0932713736158655 0.21780560499169585
Ni 6.6808117156649685 1.7169854480122757 3.3147648789217157 -1.272125022824396 0.6060321550435369 -2.248891998892914
Ni 8.25496840019116 2.6539665326983464 4.727545206069944 0.5928012581755596 -0.5387155320747496 2.1747886920195967
Ni 8.79961395287897 4.443595414313372 9.923465442090095 -0.5232575456484666 -0.03780421533196715 0.893173727426894
Ni 7.719323573152644 6.169775648794894 7.048253864958856 0.2794503743866865 -0.7730193918317848 -0.6412367279691279
Ni 5.122133691777957 2.531828349015922 5.513395420572476 0.7540055697334432 1.5440029841804634 -1.7666183518559766
Ni 8.720178390577832 1.7885569266095656 2.346433730821661 1.9454856279112622 -0.09333927228479408 -1.2669046549657215
Ni 1.3802159974608181 2.350113493607644 3.8404590063923103 0.35173616843529104 -0.5636323499210873 0.02290878627737345
Ni 8.908103192224635 3.9304801243723624 3.0014961936666777 0.34842278779134184 2.1403297390107783 -1.2408616939347403
Ni 5.860230158985543 6.6856355131895375 8.381533942865964 -0.26431660406904156 -1.3669959012623683 0.45998321106985296
Ni 4.002328832712443 3.531324740701433 3.2709976953281092 0.02683357525307637 -1.3128978338663841 0.7564573737080456
Ni 6.789023725267843 5.01846824995686 2.1222269486366163 -0.06186151339148701 0.41928959000523275 0.5753362686215769
Ni 8.174377713961727 8.46336199784739 11.424402979247674 0.6016530521392348 -1.0251929327803893 -0.9460016698612029
Ni 3.240399848616232 0.6253378898229325 10.294459828488282 -0.6285534760745046 0.21359439512382572 0.11951027425320708
Ni 1.6342785747462014 0.3231251267104119 5.431162610166574 0.048506175130503565 0.10877180478978041 0.04585819598469521
Ni 4.81533277642224 8.6850626231576 8.289752416019187 -0.2949854939078081 1.7968573532461765 -0.5743533358830173
Ni 0.44075463067590753 0.9280450459767645 11.533996517068791 0.45429644509772077 -0.6454268547910755 0.6686187195265066
P 3.444524108233474 5.064580797174481 1.2654659864237816 -1.2664004616357933 -0.25421731085151056 -1.206960156091289
Ni 6.3206810387876295 1.432815720659756 7.02735721104639 -0.2819515435419854 0.18492993730959764 0.7896670276907949
P 6.011551393592465 7.652160047465736 6.081437315353584 -0.4194073465300196 0.18719559341532277 0.31237335036695235
Ni 6.770708080260764 3.8727701329146376 11.565821567442093 0.0705163608530076 -0.3098842653965115 -0.34566373698896596
P 5.490544296973329 2.160765579281179 12.76871864911616 -1.0552159615050407 1.97840783256058 3.181345497756037
P 0.2021707140297058 5.061595956943762 7.9333514032815335 0.12323528851327807 -0.5506428796399548 -0.30661947860231065
P 3.342041513314953 1.0972013940365957 4.133074999908539 0.18232078182152472 1.2174908804192839 -0.7532352672263221
Ni 6.662653167512137 8.316947729687872 12.972569375387181 -0.1541350634159281 -0.15880521519808782 1.2293395522277537
