# total energy = -340867.8099017911 ev
CRYSTAL
PRIMVEC
9.24068198968084 0.00000000000000 0.00000000000000
0.00000000000000 9.24068198968084 0.00000000000000
0.00000000000000 0.00000000000000 13.52467215434694
PRIMCOORD
 96 1
Ni 8.737794710331684 5.697730508009203 4.942578290324388 0.7277702901859983 -0.01955581064474051 -0.3484754954061482
Ni 7.545755991368935 0.2839541406010172 6.406028772402684 1.2854466796339667 -0.9396952680272008 -0.5744284120953269
Ni 2.4989575947805496 8.169649867674092 8.308773877451033 -0.4581145332922304 -1.5990569877318137 0.21499616056735874
Ni 2.5830570403675694 2.5880008051614443 13.188840803144384 0.8209743224445086 -0.9536915823062931 0.5565178503634931
Ni 0.38663105299477746 0.06436042507076527 8.24171886955056 -0.7652299776943531 -0.3609358326566881 -0.5450903252528418
Ni 2.379272283359488 1.5731891235477184 8.574479519519445 0.44642526987976017 -0.3163590744875778 -1.2015646961073305
Ni 6.944557229706315 0.33302493347001527 13.315999978051961 0.4916319483233856 -1.18211250091999 -1.9941344992672172
Ni 5.287952471029047 2.175385878850972 3.1037232596402466 0.423558906804548 0.039211380092138926 -0.11772310044579724
Ni 6.42594244180605 9.232947406995224 2.0466613324366985 -1.5109758785221654 -1.4835666332712771 -1.9188119752748176
Ni 6.703162897537353 2.2136145796963187 0.9782786458892692 -0.7828574609681291 1.3656293599321447 0.42816709500052064
Ni 1.674670291709091 3.8967678173507876 7.55646409350565 0.817235938447999 1.2369821563746761 -0.34031481397222685
Ni 7.299759799634834 1.4748682685816825 10.900520855037595 -1.1004180119629758 -0.3471272089083699 0.7470587061019649
Ni 5.612827123100563 6.334894003462032 11.779434448910905 0.5530995687105636 -0.07499805077344504 0.7807987786668875
Ni 0.5891978881340127 5.313770936139489 11.349255758593484 0.32151465054658823 3.708775686724954 -0.8801994266544131
Ni 6.201976035620729 8.608951883189633 8.917370729008937 -0.28525104022886355 -0.03812226079301822 -0.6144774575974127
Ni 2.73906747217129 5.674249935408762 9.113329552551724 0.023429691777849974 -1.0112686093898133 -1.4770807684366174
Ni 4.4460616690186505 4.439500784899677 4.236251987439342 0.22930949186623734 -0.41253607333148307 0.2939771072479518
Ni 8.421689465343137 6.4407737361876745 13.225222291686375 -1.6375805977283089 -1.4731575221228113 -0.8648856791154782
Ni 1.0787756814327956 7.5248905317342265 12.626485247670647 0.3218956880350908 1.3870049973944434 -0.8491497564374602
Ni 4.11895077193757 3.3052163275476163 8.654938136454525 -0.19353002027378283 -0.5562170312936228 2.020727162154081
Ni 3.3055859548219244 7.23117545888691 0.6203038714034367 0.6939327728112629 1.0633972117642525 -0.18549635133602893
Ni 5.533865496626429 0.08202214030540664 4.535296161514 -1.0505512090395197 0.9080089926675137 -0.6961192389396206
Ni 7.848610098573528 4.589689587133039 1.361934199325864 -0.6260577062358443 -0.5028471003129147 -1.4419900953810714
Ni 5.435692492570117 8.24387102435522 6.52780432605996 -0.2462137238207437 -0.045693388272056795 1.7248204419835844
P 7.971575852054076 8.095678209403122 11.733396447827609 -0.2516482645727537 0.06673092566864637 0.18623168684015667
P 6.380385880247539 6.018419131199175 0.36581918931484275 -0.5014119105282848 -0.8968655744561844 0.02610800994096149
P 8.310542543958599 2.7014578970104095 13.190044863990444 0.4915720416197276 0.23672532471433425 -0.5503528592033619
P 2.806986483825459 3.9016468973716587 2.98620673625119 -0.18849965693872694 -0.12189471532498362 0.5436960160084765
P 5.98708397901968 4.295761978602996 7.544021515384244 0.46838454775967076 -1.317886545330227 1.971042393334444
P 4.718042658136634 8.97009621155266 13.5937831913084 1.4468605360994953 -0.8512853147232241 -0.4399692298417714
P 1.9687827138762888 3.7200582581857966 9.738074495655976 -1.2021506505177877 -1.3056090135144547 -0.6446097582064189
P 6.226999802091409 5.91045100437369 3.6795628180807536 -0.48542736217457044 -0.6460202654007002 0.2577327802039368
Ni 6.364538110861566 5.43483310915735 5.7270761413847335 -1.5178062711804376 -0.3187064916738318 0.0822966413173873
Ni 0.03343833137030987 7.451537999147723 9.824795522686028 0.5550700621733731 0.5675684517506999 1.6452337433981923
Ni 5.388324757367495 7.100770956510905 2.101503855194022 -1.4053145943369088 -0.10108857721290976 -0.5816241585128177
Ni 2.950180089892535 1.9193820286649705 4.168953025537825 1.6811214584337368 1.055528607649453 -2.2138522336799618
Ni 5.011184808708771 4.084104160652145 12.753832932488123 0.7446940625245303 0.5280647372291228 1.3664258876915114
Ni 0.6809153518445288 1.7153108105193002 4.218372192112859 -0.7771714663269454 0.7302593751564391 -0.3130328383278222
Ni 0.05033861441987592 2.146924578729225 7.097206825518386 -0.5486641586470292 1.2232228978070545 0.04137342074046423
Ni 1.4766147574527897 9.18296455882687 2.623164371834589 1.4012409384881674 -1.3191810957719345 -0.2772356261235548
Ni 4.142819453176035 3.8794415388675807 6.522786635811223 -0.46967009934031373 1.4796762970779354 -1.0844049243641711
Ni 0.728787628276582 4.342991103577752 0.3673337370713214 -0.5397190336385995 -1.0395013789832614 -1.4706879775363961
Ni 2.832814189617759 4.439279008535092 11.57011359940187 2.2370813794112308 -0.41804800428864775 -1.3420477159574629
Ni 0.015709159158107215 4.773422064509889 8.903210308130182 2.3827369446012385 -1.0278946479822684 1.205342675092524
Ni 7.739154221968951 6.79921978544825 2.4008723772018854 -0.06263053034702762 -0.5267375337772671 -0.47893764068516864
Ni 5.048701977051074 1.558404032575382 12.322017717413699 -0.022732151490193104 1.1596225473475898 2.442503523136909
Ni 0.00991709976969451 1.9103816045355608 9.882355729977704 1.6630489172027425 0.23987184076311593 -1.4019451636440434
Ni 2.5196012780506742 2.119174811110521 6.414399906097584 0.10045325762175603 -0.795099768670592 -0.6795289386811071
Ni 2.2856456947771693 1.4993560755046145 10.71891096228346 0.6911539245145452 3.2505004594851434 2.672844798701771
Ni 7.15191813059333 2.6720263252936025 5.717933410754714 -0.025640326275923588 0.43207465758504293 -1.3196909455288177
Ni 1.6119999873501007 2.2287323352155326 1.9959983700836168 3.4832991954515617 0.07213358474145641 -0.5835452867949305
Ni 2.9965498314545247 9.25269474412515 5.414845514299123 0.26452409209415734 -1.6417645539026693 0.40856166206476735
Ni 7.718362687789103 5.78458367678982 9.905550765508742 -1.6161661366082747 1.7289059249068675 0.3056617426747317
Ni 0.6031605584210128 6.687213480650945 7.678037276230242 -0.43467121466762565 -0.33790466186883744 -1.2486184550620238
Ni 7.479019786992553 3.279305455618597 9.239392782590977 -1.4226366305551241 0.16306861846013207 -0.7848238406658806
Ni 5.661386906262829 8.750556091977183 11.24967355055387 0.6428482954306218 -1.536432370922057 0.9431477453521756
P 0.5160763725939524 0.4824975828594054 5.884435712739679 1.2324071354094839 -2.501722456699227 0.3116346724287149
P 4.587989301671221 2.682791719657835 0.9925758288595183 -0.9740742597277032 0.20105306812370538 -0.7058560066114102
P 3.9120519051434397 8.430985591291993 3.1960561527624862 -0.9497791346257642 -0.09451940863582431 0.5490917331027512
P 0.39826876772637765 6.925077872350261 3.3209291829784666 2.1370268998897908 -0.7230116924550902 0.740886258742666
P 9.127548189726182 3.532139751927404 5.10848456832953 -0.139266888054844 1.00842702617596 0.5700205128356183
P 4.894428793436604 2.3273673733647304 5.2563096041436905 -0.44319724986076575 -0.33087063784019144 -0.3842266848638286
P 4.756040341935536 6.903297585211639 9.839172175520252 -0.14749493239159114 1.7296500021617438 1.461584215462915
P 7.495689977063862 7.044550648088596 7.0071591530195585 0.5718390541015959 0.22349417073604091 0.6421962636689198
Ni 8.736916845555202 8.838037627124125 3.5065144170677875 -0.4591167493044996 -0.1113706758652082 1.2878910274094013
Ni 7.710517348891907 4.512021656118986 11.756658940336207 -1.0200388993832754 -1.5804049198482653 1.329069815640556
Ni 2.808816138833286 0.008445059149761286 12.457345655083493 1.4819923468056218 -0.369105512951674 -0.49495972714503794
Ni 3.3554763961717016 0.7826016631431426 1.50549928080362 2.2625167887652005 -0.44595964309725133 0.029557144831826514
Ni 5.757138851672422 1.562396007137913 7.165398437287357 -2.119131250556292 0.05573457455814273 1.5101834645278571
Ni 8.805011430164667 2.079587730032091 2.0076564143153037 -3.497591186594202 -0.5596011172745071 0.07048139385001409
Ni 4.8687581792358845 6.201550964255274 7.848894711574745 0.1314175672137543 0.19939907746005012 -0.8767392360199546
Ni 5.388297035321922 4.557504292222635 2.1279312812388875 0.5112522936574744 0.015066407414819212 -1.8343363240282409
Ni 8.735937333278285 8.30142199096504 0.8632423215108216 0.5875055569942591 2.763072779051093 0.42593049236051805
Ni 7.0433493594470935 7.5279861601565585 4.975212682373077 0.7958104215843714 0.7523263822588075 -1.6057225726774476
Ni 4.192552802934231 6.683369356998138 5.267413207463915 -0.030175752252431902 0.4377279992160784 -0.8067273256071913
Ni 0.707927713050987 4.164738350542524 2.5551621940437 -0.9597048783799084 1.899721277191954 3.0486403220791107
Ni 2.766290520924104 6.143648851734863 2.8310519915874934 0.9032043721900186 1.1321562236065212 0.4492416562826328
Ni 5.604833933293643 4.888126648409645 9.84393205074516 0.6667999211502129 0.5492570550360217 -1.489433119354383
Ni 1.1171245111422927 7.512554221454184 5.396208907128493 0.17116193699122778 1.0072898272477233 -0.1444340340780803
Ni 0.797467148047641 3.2869105367874925 11.773672883772624 -1.112569045503213 -2.1024494190252367 -0.40864265181434783
Ni 2.6367084392334346 7.070101133425164 10.781706015847528 0.4907891407071161 1.3045085813614243 1.4570544459133616
Ni 8.04383798418137 4.615960845654509 6.970778588545753 1.4850149356820295 -0.6077828191860565 0.7411896489156977
Ni 1.07028349480556 6.520742596984297 1.2779410215802078 -0.7896881107367174 0.02055879798795814 0.784724596083855
Ni 0.44112242984150835 1.10535188245557 12.135539833456924 -1.4724224437289997 -1.9531403162430427 1.0705191675210144
Ni 2.2126535487831167 5.308882615436761 4.890981095035492 -1.1107435622586999 -0.9490260585098235 1.1725922201343806
Ni 7.473577025378361 4.068080818310876 3.579845696086018 -0.17558114910484598 -0.7006574931296062 0.2950536281415822
Ni 4.551553293106269 1.216572729294969 10.24933462486569 -0.1065064057943714 0.3100943245247885 -3.1434348387531927
Ni 3.201554358467824 4.650021998982028 0.9380872242173448 1.2075571662453397 -1.3739713041389368 1.386129793878342
P 4.9699898489871 3.2866240756499034 10.841431314898466 -0.5031132094901077 -2.5983882222540924 0.23424935237001593
P 3.9699262956182784 0.16982802338555403 7.643089941512568 1.0760439539939854 1.7523577281719045 -0.7024348967450031
P 7.59134027497302 1.097414136739797 8.406935792689117 0.43746651802457565 0.668005768532856 1.6997365024317632
P 1.634981563130226 8.968811756774437 10.203634832738384 -0.9710354729013794 -2.1255865192633325 -0.3652372882455193
P 2.888193595991016 6.154783873373403 6.915718909764774 -2.0396841628725584 -0.3278809590842482 -0.785298466309454
P 2.211905053552642 5.668991987431724 13.064184004883874 -1.4460737785321418 2.755290821112829 -1.9810429561905816
P 1.455250300997764 0.4462223621587786 0.43988417847257516 -1.5042483299903449 0.07333788946220272 1.1601123424998148
P 7.239371943694699 0.968719160507468 3.529046895709628 0.5398565876577283 3.4728173220836323 1.9003396275022433
