# total energy = -340865.86132357264 ev
CRYSTAL
PRIMVEC
9.28439107659360 0.00000000000000 0.00000000000000
0.00000000000000 9.28439107659360 0.00000000000000
0.00000000000000 0.00000000000000 13.58864482122717
PRIMCOORD
 96 1
Ni 5.397889126150566 1.4739713204632514 1.423954450147427 -1.354570273904506 1.567909872705048 0.7410132712388334
Ni 1.2868537075390751 6.801679736278706 6.300225144989571 1.9248859493830397 -0.617343209180982 0.45300215176632946
Ni 0.43637472527974164 5.974598347367105 10.290544913941433 0.7715456354997356 -1.2317404483597625 1.4264230941807499
Ni 0.3417853514347726 6.9111984105891935 4.164267473474087 -1.0998613681285572 0.22099454424263876 2.568369564404815
Ni 7.47700775696337 0.08046781538224844 8.008100909120712 -0.5280557383680583 0.02917045091636912 0.21787656743894737
Ni 1.0486348074493403 1.9708254960927685 0.787042453428048 1.3519418351427233 -0.9851531432496841 1.0281682133586292
Ni 0.9924363897143975 4.568282382931366 7.974549905953891 -0.04057149366445916 0.8964814516438884 0.1417315475452527
Ni 0.299359399067088 8.202341506694854 11.93390066083064 -2.291155278437499 1.299431681059149 0.46953820174813976
Ni 0.5576427961941571 8.068906241588857 0.9438158917804229 1.4080613038441105 0.9714134250660882 -0.9553003215543094
Ni 8.25224510744247 6.274270630405392 6.697829182574062 0.43560246823264337 0.718778113989717 0.07499959343534181
Ni 6.5072902716265375 1.0097053566707819 12.990214587941068 -0.2510625672726128 -1.294080444049565 1.0069530127335948
Ni 3.942746550304275 1.3179192792788932 6.2579375300453535 0.1447803616739055 0.512205144489047 0.958588248276962
Ni 3.383881928276 4.189859896815632 12.372365302487736 -0.5746598113798426 0.6712571855906182 -0.5413398570714741
Ni 1.6577094151228449 2.7487274667420207 5.5155223580523876 -0.5330724748563593 -0.6822972454548636 0.3055637836442867
Ni 2.160273491116973 2.200577031739373 12.15212098305798 -0.11452876187821567 -0.635408294212809 0.04927313520351514
Ni 7.110209328175266 2.6470076807344154 3.2184433679556714 -0.7933133661941305 0.5879781257553035 -0.41573632543633565
Ni 9.124114397750628 1.836740323628198 7.162125784856293 1.2966865142138442 -0.06889425186855232 -1.9992823620167437
Ni 3.196569343144252 8.161926553382413 8.129909331581826 -1.8337025470989838 -2.685179923228356 0.7243244977292429
Ni 1.98035128109129 8.572138793723234 3.3967807324655186 0.13944352284202438 1.5030936475606114 -2.1291135585799847
Ni 2.2312433746732103 5.045500071941123 4.138040926238391 -0.19444096212382644 -1.1391573375147026 1.1058921477036696
Ni 4.594130127020922 5.346899251675048 0.6277223066691484 1.1707150577163257 1.3142481772466914 -0.5810523451697476
Ni 4.021264643610803 5.736258750196493 8.35192047058782 0.5030527885658175 0.33347208001878054 -0.035478395412267924
Ni 3.9115138595293955 6.6523310252784915 3.7587549917748384 0.19204649374972088 1.2390639786043691 -1.7971617718604727
Ni 7.401144999436157 7.795750178780374 3.973265271423808 1.3355929614710547 0.054551095773002815 1.6491253651431148
P 8.248689185751989 3.9422359088082533 7.586064997049271 -1.4151675758715887 0.006657357415517567 -0.00396258419217382
P 9.206197697138473 3.149970985534525 3.5475601680936775 0.5926487917580955 -1.2904022238670294 -0.0201852166986233
P 8.520693984096715 6.926694058895755 2.2524674921260566 -0.07392641497582107 0.945307986228288 -1.138250509429717
P 1.233839835861143 6.833840866137261 8.664527766939887 0.9748921276433082 1.23383461188463 -2.158969722709469
P 6.012757193706212 5.885245369954071 9.991892985456108 -0.4701015304507775 1.0954989773948036 -0.9274480752287317
P 4.944114524003641 8.920776954034622 7.547173612273142 2.634320674484644 0.5875112134212139 -0.28033611942574943
P 8.44411632847507 0.8340623223817643 0.7696509325126184 -0.4857446363046731 -2.3490354385837353 0.8409906176654355
P 8.200772444643441 0.2523831667503045 10.774708255736176 -0.9826334621516238 0.5866090133219187 -0.11320387241920504
Ni 9.08576057920395 9.244774341065234 2.878047889829163 2.093566257602994 0.27265700561393685 0.4417893137696456
Ni 3.30511315641688 3.346372989295466 1.0409594015445862 -0.06565080523059015 -1.0326342195497829 1.1133313775905342
Ni 6.237003085586614 5.1136010787287995 7.191314052768917 0.1060070975604497 -2.60748889900378 -0.22453983839173586
Ni 7.888547665193847 4.560966282951994 9.880615847521137 -0.5893472381886883 0.12198110439120281 -0.4017140430153146
Ni 2.21720537572802 7.297336225490279 12.93398460327728 0.009295566369313023 -1.2550269296915288 -1.6138323462687754
Ni 7.621157209094994 7.869291838598395 0.4508398062034227 -1.6546905179357183 0.5150374717315195 -0.743181739645062
Ni 6.0489384647970885 7.148748834538681 2.2523857894866928 -1.122198598173177 -0.775236968308394 -1.4349977232236382
Ni 7.148451734031905 2.239005125412746 11.26504107524195 -0.7816040481770024 1.890097638059261 -2.706985963359854
Ni 4.6298936005241424 6.250335470828209 11.951715549968224 -1.8191729860242414 1.6110270156094963 -1.3747578045959743
Ni 6.15718517756294 0.31466564580057993 5.813520665422805 0.11129122877752445 -0.012960416815409936 -0.21625702955765336
Ni 6.902498936375144 7.625725129386683 11.436365939352788 -0.625737089671632 0.26502931386535 0.6705871561067871
Ni 7.8552631240440425 5.2073919949618075 0.8179186235947961 0.07764423014704047 1.2199100313837379 -0.8379271482487635
Ni 4.967446198176433 4.94710409785308 5.041509640759481 1.4962660831158168 -1.0422534878071017 -0.08476232924906046
Ni 1.1577635373446846 0.0326104943750559 5.445091897603766 -0.1407478434757447 0.8741107972581721 -0.20799556087980953
Ni 8.687543771824231 6.104069177585803 12.375450505562792 -0.4474526827030101 0.08393212003828125 0.09212751136488005
Ni 1.0359801827388289 3.5788727046297533 10.63100816812105 -1.5784719644916105 0.6591238926621938 0.9716821053464426
Ni 6.34185171130621 4.897135506369607 11.906071627736518 1.3952757220436678 -1.9189395019916178 0.7729373736409398
Ni 1.9465746672271365 1.9835079739757904 3.344193014326994 -3.029717002812047 1.7810797786969454 2.4694504840393985
Ni 0.916377731540529 4.380180624578492 2.0810330722033448 0.2915173328535496 -0.82486800107196 0.5369445562172559
Ni 8.978915809454449 4.15696530008097 5.367704643101157 -0.03991303414485384 1.0710017635843876 1.1063935128201203
Ni 0.8585610444827381 0.7622670564801387 9.773088675045132 -1.5643851473812411 -0.6476341468550394 0.40917589860999853
Ni 8.450049054219765 7.77239065143507 9.631210184912183 -0.03964461097481559 -0.008919928197449155 -1.0416793604711867
Ni 1.9942964361281121 8.013877657099348 10.586912882280917 1.8564616951723707 -0.9572438184339256 -1.837818883260203
Ni 2.241121966523529 0.7981957921402547 7.818566569261725 -0.19543880726072146 2.4980920590354914 -0.6852421870158005
P 2.993027642829837 1.0946482484363513 2.0648355239495233 3.2669280089135477 -2.317637383888428 -3.9311177461344236
P 8.420413278668809 8.744475656435277 6.0619756064100745 -1.603195692490536 0.1291087165749196 -1.7870123421312967
P 5.991180269401569 2.988552566446516 5.304259758318118 0.3347488898486751 -1.7668890890188604 0.21744230811500617
P 8.359758353332218 3.9712403457823093 12.127906363316612 0.3250033804261371 -0.2201409379930918 -0.42226204236999537
P 5.124008880856814 7.497684095356847 0.0008476648833967098 1.4870898159331873 0.5329773440393918 0.7787020440388589
P 4.3212525959375405 2.6552243666249535 8.120221069743662 -0.2146441765445787 -0.38930435649705214 -0.7994829853399522
P 1.4151268513398303 2.5906514283552475 8.789311836664186 0.023782961352210655 -0.5449342592909517 -0.5283357315023224
P 5.0396323369322875 0.28730083224829667 11.302803478092326 -0.1821184360027315 0.4784308762520792 0.5404782804021273
Ni 8.022233608852437 5.0911514216855 3.0990804540409607 0.04483078316144537 -1.1395453169817407 1.6670104729536515
Ni 3.062103510655374 1.0347267899758654 10.277825298495065 1.8852896751476564 -0.15155444717294544 -0.21473185116237856
Ni 3.4889998013298618 8.659189242208749 4.878513803668306 1.3595800684142716 0.31011797867387236 2.4618297342693474
Ni 8.949242896340147 1.7159039768876925 12.282300212297523 2.8094030295762003 -0.7629288403650022 1.2166442161482725
Ni 3.9610089470801935 2.8271248629676706 4.515166382954228 -0.23718966594526247 0.7193671537239675 -1.1377715129107697
Ni 7.014840065500009 0.3450460294966447 2.5853073329896055 -2.471805871645453 0.4633400433572278 -0.7058621772589972
Ni 0.800540100826538 4.22942068617109 13.436696301085714 0.6817819963813418 0.02012633843622985 -1.6896747473203868
Ni 0.4454065806857474 8.621847422263276 7.624221058071127 0.7247304749184099 -0.7612272842928631 1.788668903898113
Ni 8.05859128336921 1.4029550149528303 4.834486293881279 1.4412521887737824 -0.2527029310895132 0.7618052682835204
Ni 5.38421321844801 3.73662378933724 9.596164394820642 2.679920731711946 1.4884836109569204 -0.3577954872554935
Ni 3.0822877763345025 4.00789512080586 6.799717016055813 0.8487023844873964 0.23462319076966692 -0.2001470113696682
Ni 3.1751224003113228 3.686005290495193 9.711301054026457 -1.293875012906978 0.12449307217977913 0.3156131974604887
Ni 6.0238984627103305 4.327083193383029 1.971277645926519 0.9038584608342497 -1.5545802454756774 0.7197656747139668
Ni 4.917719000854717 7.968625536160951 9.835664540845851 -0.3848800021771114 0.1730064463991343 0.2780925748072114
Ni 3.8015588188495792 0.9398960219691403 13.291827308664239 0.27799410155613413 -0.8557716326293521 0.20766414568231978
Ni 8.133534886203584 2.896275005919901 0.7690576599381491 -1.8255840317569074 0.9817106932270383 0.1011885931258838
Ni 6.278049377475956 7.128378881042818 8.054926734305939 0.03173898297449373 1.1574867319515099 0.7753477828546452
Ni 1.5482835847207241 6.603318726051206 2.488202817666956 1.2898327245168044 -1.5232328415126477 -2.3033603051441234
Ni 5.815352475734899 1.351928002913966 9.48659929855597 -1.2819252967442696 -1.3590784461875045 0.1214314025353199
Ni 6.468778618435635 2.2140858204068667 7.476825782902969 0.08049969731796458 1.7290141683499578 -2.018907078226207
Ni 5.748161339249227 7.308393934976868 5.501485287546282 -1.7035183380716983 -1.2786869923126303 1.1430062789471478
Ni 4.8825218751925386 2.55866670192259 11.517082576409459 -1.025150252467912 -0.6674691793030957 1.3733542393802283
Ni 8.28967977129631 2.2765604863474636 9.131555837006296 -0.6008722081091522 0.13332558286974455 2.0986817244526885
Ni 3.2816700695540466 7.567391301759284 1.207501875935406 1.5522569966591395 0.8532290687131563 2.038413266579935
P 5.772690699839961 3.2874449606545144 13.589867395793423 -0.5638097560392161 -0.4688653440508312 -0.15171359845862903
P 7.112326169286049 5.644333996521675 4.975522689765337 0.09352207771956152 0.39813352475290786 0.3541023546746224
P 1.7160153895777335 0.17315667442293162 13.060861374696186 0.2265229302600357 0.6759324795791005 -0.2992550678174395
P 5.293411876064441 8.717931583032966 3.716697629723373 0.4532608047443549 -0.08019116493861028 -0.18584139338027347
P 2.5468662411690604 5.452620610133299 0.6820183527216379 -2.4785516750097187 0.2367345806857149 0.06973088883723474
P 2.4043694106063804 5.7864780202325585 11.267961944599197 0.24199145820928 -0.15099806044884317 -0.30268440521396256
P 3.5373900463710846 6.2345984283598925 5.866598599397512 -1.7540261170132632 0.9133813127230206 1.795101289787018
P 4.184874178936289 4.684977891358673 2.9174684848829866 -1.026178179511794 -0.6839337526170222 0.37414076138273633
