# total energy = -340888.4768408963 ev
CRYSTAL
PRIMVEC
9.08021765116434 0.00000000000000 0.00000000000000

0.00000000000000 9.08021765116434 0.00000000000000

0.00000000000000 0.00000000000000 13.28981637494936

PRIMCOORD
 96 1
Ni 6.498530321830359 2.0088256785558523 11.209056783370842 0.9769448964072788 0.9419760936415777 -0.41116901778062737
Ni 4.868022840413928 0.4723220606116157 5.51444990639639 -1.0935156284161878 -0.5531736164816086 0.6297670367666316
Ni 2.9255553940176107 1.739161368392486 4.618025374124992 0.15174702279972574 0.28156099297178605 0.9698288541877877
Ni 3.8088335868636425 4.64726458367301 4.3903044063249705 -1.9748026317078249 0.9283083663464979 1.2408776347743404
Ni 3.6898918130462164 2.872018429483864 2.563804962395198 0.35742062041457795 0.6647733776384874 -0.24867015578103627
Ni 5.11776515258085 4.933545692529856 2.5503153907345237 1.4386728580823802 -0.4790155451109557 -1.8550478455439794
Ni 5.221252395591553 3.2761426057964367 0.08169835222115537 1.5078321906868613 -1.43904412537887 0.8457816112961757
Ni 6.282729864043891 8.101216015707545 12.333627237638357 -2.5756797249129835 -0.9325326888404909 0.6277011553765383
Ni 2.127041034944056 7.0308762546186845 0.3549883933781318 0.2602912849597323 -0.821446891205553 -1.2634177248583855
Ni 0.7198914766433732 0.09386675218242978 -0.17046474602865208 -0.21135856381477147 0.8595894637135454 2.9477646322079556
Ni 8.274266807784231 -0.21861623334649555 6.841518299277725 -0.8085443242112721 0.6646414800463134 -0.16204429096067574
Ni 8.61742640134925 2.5831766991890066 1.1692805390144139 1.9446862719384184 0.5590377885718695 -0.6085024709609005
Ni 7.056691314009703 0.7655005029589356 4.810156428002011 1.5325186376899476 0.5080193885424735 -1.1698966755800884
Ni 0.9476387770752038 7.855605202669331 2.390240229987336 -0.4283522144281333 -0.9072127220184633 0.28092001695367746
Ni 7.937336243674801 4.18125872260849 3.9217851409553384 0.37048825223181353 0.13492403770511602 -0.48886698398373873
Ni 8.139253048345243 4.132307268096715 12.607982388350932 -1.423080402960762 -0.2967675255088953 -0.5143054786615014
Ni 8.691511898912148 7.540594284486709 9.11052854054558 -1.277762680726148 -1.399018991136184 -0.549567387187589
Ni 6.966615552786031 1.0277172184291916 0.3103182615898403 0.9877221895284408 0.5743517932211205 -1.5164703259778336
Ni 1.9034497502291683 6.929904231956666 9.111578213730809 1.760647736094839 -2.1343922904804207 0.6375479662636311
Ni 0.5572874752207022 5.222006053674372 1.0033023286330012 -0.066060381964183 -0.3247408707933698 0.34485923880979963
Ni 6.561165664665127 2.0223188823036726 6.782790174190393 1.0285075989759191 0.3959653134569955 0.5239378595449428
Ni 3.5635769023221746 4.768331128470915 13.542987858310157 -0.7978403075302066 -0.22985662261895898 -0.3772787927910857
Ni 6.158321799071559 5.854615752131223 4.589691462298142 -0.6997118413868852 0.1587411947293718 0.2794598874683832
Ni 5.48827436235612 3.044796815024592 9.092454366884722 0.30177989112182224 -0.2747997629885525 0.2655157665834653
P 0.6182466098375364 6.0739211740136945 12.051192509069248 -1.4946174917688002 -1.1307989382476784 1.8928800859004047
P 4.347699116079246 6.587053365799067 12.665461075460001 -0.8186253625963579 -0.6615684975479446 -1.0331870067294593
P 2.5233380634567486 8.946557058312399 1.1624467670489969 0.4147171401432019 0.9284757451622977 0.8338938587196542
P 6.524890194293295 7.847333124194051 5.51145979065335 -0.4416412182275555 0.7988443233146887 0.954855006486775
P 4.997061816497556 1.1720472813979674 12.35954308744768 -0.7500296158048309 0.03556581291975165 1.5902630435892675
P 4.108989268618651 6.452602579867726 8.296168293275311 0.38960774667008385 0.44766171339002253 -1.080455195687804
P 5.112180818593696 1.5439366842887625 3.54327807528432 -0.9393939347366983 -1.5984471220619567 0.7708617220588337
P 0.4717209501889335 5.818095115877029 3.2782119874479365 0.2900428051905521 0.5202920352622394 -0.5633811531422298
Ni 0.7871232257615494 0.09580174660952297 4.700926855213298 -0.8900637210430026 0.05731965965707547 -0.1971812438731249
Ni 1.824397373493958 6.672007884146716 4.743707393663822 1.19660041012352 0.27855331649371384 -0.38041348176532547
Ni 6.283074912322772 5.617131734082443 9.233897828594122 -0.837308797938474 1.6809764482154406 -0.46980173982217155
Ni 8.886436935826316 2.3912208935167873 10.180982712379544 -0.0837472577209848 0.9835228067351127 -0.9635239950156825
Ni 2.9428532090509876 5.133601052537914 6.705881636893177 -0.5676730956493643 2.4305838888811886 1.415892369852755
Ni 0.9008229898053444 0.255537307208549 9.100587518026662 0.20045940040376445 1.435674951796321 -0.735859494952036
Ni 1.6675638505246786 1.109947671417253 11.2678775266804 0.4733313502419848 2.68274097476956 -1.00893044817494
Ni 4.531609848722819 7.235580686173771 1.3981419821783154 0.11863378518552473 0.6812747177276203 0.35690614267200466
Ni 5.860399850911413 8.125387555664945 7.701674625351584 -1.0505761487401841 -0.1501346840072834 0.3911205837701845
Ni 5.593804654386514 3.3833254974783133 4.586050294934162 1.0398636474186864 -1.2895635300158177 0.6477588453583618
Ni 1.1818993177818065 7.707706614079496 6.971133869195799 -0.4005416199737682 -0.5851655960071729 -0.7644733020339866
Ni 5.248229722869327 4.928415369435968 6.968130133125962 0.618264949664303 0.008680044272501181 0.23977053929856124
Ni 0.9025400590036707 7.964377132477633 11.274708574580458 0.8020535742806058 -1.4900879793295627 -1.4258525663892605
Ni 4.73196485592043 0.14616789906471056 10.324646287357009 1.2550364427732255 1.8779478900706044 -0.7441006519149056
Ni 8.25834918586638 6.911189902936305 4.636338357515708 1.3589761162816854 1.6375420311808895 0.8388596873653618
Ni 7.319681664042081 6.375901979559626 6.992463300961364 1.1415728889347307 -0.9434655337029106 0.13298799702466774
Ni 2.7476466853829944 5.582145654647483 2.2641995418428262 -0.9528690864049975 0.49941390626164955 0.9744426988107154
Ni 2.4375844859369553 5.345306332067137 11.369305376279256 1.4184164218261894 0.3775559577118724 0.07786354524669817
Ni 1.4407218478140174 3.950176258154739 3.577446027089618 -0.307783931224057 -1.0788654826031807 1.3840392298979
Ni 1.5712953807168797 1.2968094748670447 2.6525413914837395 -0.7900994872425231 1.342856070791371 -1.0828527493857028
Ni 1.537044798929008 3.6065172526071283 7.961370672342436 -1.2786363415803528 0.3020200321570863 0.3462113819623199
Ni 4.314365636295768 2.703625789172071 6.9626947147118 -1.7703747335746154 0.18621677444182122 -0.728435691684139
Ni 4.286371324617081 6.963382995225988 5.810839113780877 -0.16075925360066506 1.0164234141178752 0.2980654183847125
Ni 8.446055449577644 7.249909269965198 13.517205487703455 -0.31949350635150137 0.07484507013534852 0.30470117853367523
P 0.508000052647911 5.831324993306756 7.915494687621634 -1.0196298368703147 -0.9248867422594587 -0.5109273062178878
P 8.732472761702468 1.8784065093566997 7.811302819704584 -0.3230727390623275 -0.479620011464174 0.7659452585938228
P 1.8955318002506356 3.5526352397945007 10.306983447565447 1.058925549146144 -1.7932030443230407 -0.9313450962902928
P 4.164614683261415 6.702599138134875 3.587652191970203 -0.16555898898215357 -0.6717960888132236 -0.08857861767135712
P 7.074098091657462 4.0330060055219095 10.443297494202746 0.8566008133988666 -0.03713161474497476 0.33766863459863133
P 6.763018907810512 7.7419662760852335 9.847435437446721 -1.3542969656384611 -0.09573913997553835 1.2888865585534512
P 2.659613973179013 8.68620905167882 5.690845850734648 0.37376846564498206 0.7140745378664605 -0.3719337264290885
P 7.044387618802236 4.1312721232600715 1.4197910376127385 -0.23922392276647184 0.557905217629323 0.0684507365732305
Ni 2.8767401427738144 2.069962785442846 0.4348707020262293 1.1737952393035462 -2.2131845181889758 -0.9438668829063873
Ni 1.4840889683386398 1.3184930351293558 6.877865503370693 0.9447572559311407 0.029464328007704096 -0.6033821190151994
Ni 7.150680649133315 0.7300222757156766 8.97958362673203 0.42544506808366733 0.174873324404544 0.6623426567098076
Ni 2.9343268844754804 1.8379995398561615 8.937481380556042 0.6371445601776253 -0.02448024452955139 1.0587864524651185
Ni 6.929250456270365 2.2548905024873314 2.6829882700078413 -1.7893049948202153 0.9701857233065742 -0.6239578862840222
Ni 4.414275273467548 6.964554343330611 10.53898392204538 0.10552655837960535 -1.1377936243979565 -0.6026514114967622
Ni 7.525130673462121 6.119204220507893 11.443555225785516 0.16203966297498545 0.6195710700702363 -1.4476850888833197
Ni 7.725985092642324 3.9513566864772263 8.31967788535033 1.151882755501171 -0.5562198595071001 -1.0913949825287592
Ni 3.249701011372714 8.830947724451532 12.289412024765117 1.3479951917901494 -0.5194777668910602 0.8487386370419706
Ni 0.3546251846635202 5.082715511620831 10.03281444131911 -0.7991412857298172 -0.3241312622338289 -0.24430956481949534
Ni 8.72512686544945 2.68508398429115 5.725173614374376 0.39209451764767955 0.23544851488443969 1.0573291511933018
Ni 3.734048912525119 2.8025547628143994 11.450200129219333 -0.5414624986922676 -0.1419467488798523 -0.5739722983945147
Ni 1.2388595244507674 3.3449888176510614 12.531034806116896 0.8371452757774164 0.3065372033011495 -0.4509802362402943
Ni 3.182725324398339 8.613966838342577 7.874880689153768 1.9503349855837637 0.2273801360540084 0.06527105329366824
Ni 5.836655081193681 8.264986825125906 3.3122210354405914 -0.22779202678044638 -0.18900102205517774 0.5391945285936972
Ni 3.028806551363817 8.65987641986948 3.40862570851637 1.448779350388763 -0.7212988235290416 -0.06067546350318582
Ni 3.732142066773408 4.602753355697361 9.235346123343637 -0.8238958669666779 -0.3836674699262489 0.378435017882716
Ni 5.219027742214557 4.648553974609881 11.338393590600452 -0.32275906447665054 0.5316707094128263 0.05132667529843418
Ni 8.277481204908545 9.476660177287997 2.2649704523395893 0.3965438116682848 -1.342295570302211 0.30804258420208236
Ni 5.027471466128411 0.671107098140319 1.4187540767325224 -1.9843897611756276 0.24997627618696952 0.49869554003838634
Ni 6.2144466256969135 5.68388949582805 0.10390402501072075 0.34579254925734637 0.30702237046768416 1.1115637441671502
Ni 7.962161559318503 -0.025146755356132627 11.342446999855516 0.7843476723604105 0.8614792245370906 -1.280422486946498
Ni 0.236746704358119 5.177058975241189 5.868424039438969 0.43573899381050757 -0.7971751631423819 0.5095491949234385
Ni 7.573119624880175 6.223672127048048 2.524720072615846 -1.0058338115274872 -0.1732872108643467 -2.0476175587870222
P 8.773942116693245 2.022327962521538 3.747395924765308 0.9349518398049447 -1.0603018606683803 -0.7742553211214149
P 1.7433473488283844 3.400332745540001 1.5242889088718492 0.020640559068487035 0.5690434936343296 -0.40560592187055305
P 5.144016062429401 1.0732908318950793 8.207299293005935 -1.5979655544398481 0.2872104779480795 -0.5580535702817293
P 8.776693422706428 1.8100687897025312 12.247044636227463 -1.048228217333298 -0.026240164643451587 1.1817625737797388
P 6.714049292863006 8.124443213006955 1.279506211702949 0.11877468163876319 -0.45677190322140687 0.18627976646927275
P 2.345229590029096 3.5221620286385895 5.754809629443107 -1.048818028398497 -2.692328104237363 -0.7272023334976703
P 7.073171909435204 4.23864569951712 6.023263546565031 0.3772222285215374 0.13861408496219355 0.05640177582849641
P 2.7126061246408426 8.533861156334993 10.124979560673586 -0.11476736025158298 1.7447423777184923 0.6624969228994848
