# total energy = -340874.52877397113 ev
CRYSTAL
PRIMVEC
9.21648990424984 0.00000000000000 0.00000000000000

0.00000000000000 9.21648990424984 0.00000000000000

0.00000000000000 0.00000000000000 13.48926459194596

PRIMCOORD
 96 1
Ni 4.587268265003696 4.5346144576768115 12.676550195313753 -0.5024295531595219 -0.17921334654079457 -0.10175809247610862
Ni 0.9098177910419919 8.451807034269203 13.37971861269196 0.14557251855789768 -0.7886175033803579 -1.204820226930151
Ni 5.376762014247216 0.7982374332993599 6.622082160590479 -1.097085348045317 2.211049988344476 -2.322628409345116
Ni 7.443882472204545 8.651749568165478 2.749382189436657 0.0597228697819294 0.5807908639782449 -1.5562044113426616
Ni 1.2664747558229419 0.8086253391698538 11.667539930727985 0.49555236642371425 0.22527080302048944 -0.5136573035545412
Ni 0.7808256404056176 5.511995571906479 6.297571391254207 0.31484983693190294 0.2863499297199972 0.7568497240504579
Ni 7.951600472908798 8.153865562283173 0.42731518530809115 -1.3390503238920357 -1.368206890851334 0.610067244344859
Ni 3.809673004340433 9.617960296524293 3.584367611633925 -0.8342867232826986 -0.4256160464438928 0.7726702360224822
Ni 4.729847365186945 1.851749519813687 2.016968927663396 -0.15866843250990736 0.45664746182840066 -0.8305925622605631
Ni 5.164469383761053 8.65642232859165 1.9024180951961969 0.19757102311237587 -1.1011196660156908 -0.005554611269642047
Ni 8.647869425878655 1.567936926986088 10.331737815532813 0.048070887365297854 1.5885879698796899 -1.8354652954263617
Ni 0.30266307980916307 3.44972298768518 1.8688166159817117 0.4066263927152674 0.37910376181496647 -0.7513323937766544
Ni 3.226112507488284 6.986357475999192 7.40068294031192 -1.8007626018378537 -0.5147232829252103 -0.718622305138143
Ni 1.4673481552084557 5.290053276398217 2.6406183910357184 0.914781792614973 0.12349856947699375 1.0024186151983512
Ni 6.068690000430628 6.916413533446465 4.195160993115775 -0.5668009774570562 -0.881306800785979 -0.9307131191332486
Ni 0.3003202480530815 7.869195835886276 10.983539047587081 -0.24617592860427281 -0.37686098852737676 -0.15254586455193728
Ni 7.126687752624282 7.743906870928869 9.288262486620267 0.5789586958655125 -1.050835315938842 0.5603292536897834
Ni 8.839968726791353 5.066498095141276 4.1432408183922895 -0.5521557167400555 -0.1214810248263327 -0.16662651101471948
Ni 6.78507855105401 2.941433564601395 9.466901103898989 1.659959736754457 1.1820754770344675 0.10810203241626543
Ni 7.679787750051373 4.004813746950641 11.742324373824749 0.19741238604732453 0.45302580591541336 -0.22266987506253264
Ni 2.6385336209994255 2.0987145856514586 5.265075666869671 0.3478453180213171 0.39498649448349393 0.8646835904070012
Ni 0.6207536422166932 5.395886230981556 10.63710777845276 1.6078797282297663 -1.72343667426218 -0.16993732055550734
Ni 8.7111959286168 4.347482844870045 8.45635260713348 -0.7283279624616811 0.7348796475372699 -0.2025849313871995
Ni 8.88804193859199 3.4730314908760933 5.948361350387159 -0.811795484158718 -0.4878634824198889 0.800660293477505
P 5.629026561830647 2.961156853185244 11.438761764592321 0.3943576026502434 0.6850339276597364 -0.9757408487968487
P 6.648259757116044 4.3111330083398105 4.096676346003419 1.2636879478006366 -1.230557740905571 0.012031220132921216
P 6.668185808479728 -0.2904779583901409 7.704730336917949 1.157249676240039 0.09318500609511693 -1.2982888257039575
P 7.289810409000708 0.9228747924143 0.6601338606564466 1.0267240247129348 1.5719061383486348 1.0988673796464044
P 4.241078467907175 2.9206227301984353 6.670387627938925 0.3987768147638616 -0.2648377666798342 0.06859960344626895
P 3.70427322478674 6.900146428609785 5.019719800184581 0.9491679834043266 -0.038285782954076 1.6043694010836627
P 6.594149744370353 0.1051564642178922 10.743457778124675 -1.7712111134329818 0.8565167383254927 -1.1064922431815138
P 2.009416014114581 4.608069882916663 8.882721258919346 -0.29501197627036935 1.2167845983808787 0.08221513734717455
Ni 7.935545347341945 6.166983866200139 2.0685250510321795 -0.8053679833658194 -0.20278907697820558 -0.4153414039907621
Ni 4.814058434247988 2.1011938214594283 9.486149743248227 -2.1738309560920177 -1.1332175749915 0.0379530822050056
Ni 8.20086044475469 7.402500432138432 6.6613093852963585 -0.2417042659861644 0.23861457131724714 0.23048268623873205
Ni 0.7666221076782482 7.49740262959072 2.196173437427654 -0.35318909883173366 0.36055582360945 -0.10793388226951733
Ni 1.3922706277299333 3.2033293442269404 7.489820223273929 0.2914934215941496 -0.1622936879673205 -0.28905215914250865
Ni 7.557954968841137 1.8406252163927963 4.937192583845159 -1.4812806654505781 0.36369154102495427 0.4708849455840213
Ni 3.4671052878109463 6.932459442523326 2.9520988868206612 -0.040582035187420436 1.3707103739994781 -0.48310848423340663
Ni 8.933009193265168 2.605520153846459 13.173629601619718 -1.9514338750748974 -0.8508466845239088 1.481654503850229
Ni 1.5086748963346153 7.1246509083359495 4.582937436356242 -0.10312257692380306 -0.43836486146912895 0.3000724215124122
Ni 5.41352659282711 7.456426115084273 6.646538116785455 0.501536351921291 -0.7159522145051477 -0.5265192471188739
Ni 2.8968810519778767 1.3760956877931783 7.746480114934761 0.16198207026417266 1.2081786018794223 -1.8508289223666252
Ni 3.4844875879367123 4.1040937771493455 10.41742167969465 0.06704151493052969 0.6010354731598939 0.8716543652978794
Ni 3.192951576495438 4.837072009759143 5.982462363359236 -0.6321347656678598 -0.3847653309761179 0.3050289941867391
Ni 7.638295112105349 2.691104479916378 2.7102360698427117 -1.9214219020938395 -0.1346694984921487 0.028289076752680314
Ni 4.78709098453007 2.705528286754567 4.378304630702806 1.0030451930387565 -1.7019435373854106 0.6430951213341054
Ni 2.8596648653883516 8.91671443895851 5.745630828268166 -0.3628168517294848 -0.646923236830944 0.6634400035390445
Ni 1.7278983272951032 1.8389385987241775 0.3794382847442953 1.788029470541901 -0.2090754242075496 0.3623357983280083
Ni 0.5618999020718859 1.0347814139026648 6.570958290602343 -0.19263630481491983 -0.33402692408098605 0.22693353543489306
Ni 0.7038532025846469 6.777087854230553 8.487904338973644 0.229794659032772 -2.611974959799592 1.7090480096406762
Ni 2.1845477569511735 6.472888385539648 12.184677184204526 0.13860405765986453 0.7955124307279784 0.3566773144906502
Ni 2.531677636026925 8.90709242340639 1.388949004736653 2.0709683176978206 0.045303866143121985 0.39027829037454725
Ni 4.709893664353284 6.7709404554055865 9.09345077270279 1.7594061503782539 -0.4022508893553911 0.917767100495542
Ni 7.014817997095887 8.849507793933542 5.053065060977277 -0.052076666090581286 -0.9176858536356455 2.3081813806818507
Ni 6.487441223237732 7.351588541420121 11.612975545025664 -1.0677583169464258 0.9985246794605834 0.5060836049723413
P 8.348388800063887 7.216502447600736 4.0063787069513594 0.41279626897140514 -1.0355480507624681 1.1378368189310661
P 4.145337569865573 6.201859064331582 11.273571849510589 0.9109205098873538 0.7250688320944352 -0.25056865835532977
P 6.498860454338381 5.69388300190754 7.976647206112289 -0.6114353283369792 -0.2799594528126211 0.8830800906363178
P 5.423065659969299 6.385718823191027 1.824787599989765 0.03418435919119275 1.7415110152653879 0.38911075242900733
P 7.993996326874082 6.2330845324260125 10.729927970815753 -0.4306196703060713 -1.0272721839069212 0.1878936479236119
P 1.1093520344316024 7.920328922364406 6.893891196851908 0.6620870890555759 1.515995957444576 -2.184913439158424
P 8.32608489428215 2.194418617733091 8.049664848077498 1.0448639288467554 -0.22781568092953022 -0.3879439858144158
P 7.754109525350515 4.461214331376916 0.6252936851869757 0.3542620201809383 -2.021034923202487 0.24805849033896635
Ni 2.5710320482946996 2.955147701710165 2.8414060770643026 0.5921335426845737 -0.2794100080670543 -0.6834866377772745
Ni 4.659543979524512 4.912536629817349 4.110151776021385 -1.4978712228194073 2.132217651426605 0.13504796487749
Ni 4.211124875431702 8.683279180429661 10.944542235131015 1.3480859517317427 0.5000757082153646 0.12941442074079648
Ni 9.268470996010475 0.7509596045850735 1.7312798574733343 -0.7898148661225687 0.4534274122292062 -0.23373127508301683
Ni 0.4767238665086327 2.0748070106110355 4.300202251208761 0.7447208019974078 1.5816485624473793 -1.821023923190051
Ni 3.7826594721725533 1.90319596695156 11.927679969009969 -0.6085232968965069 0.05977454895547125 0.7807519845893522
Ni 2.590958099658383 7.237608209683454 10.079529488538334 -1.320410083083029 0.22736368099377616 -1.709227986861966
Ni 0.061996563232233855 8.966511134387734 8.83882680368129 0.17327409823822418 1.1717923499409044 -0.7645051837131867
Ni 5.539027537054344 4.265299403607341 2.1095052521346225 1.4304088183013752 -0.7869830531007285 -0.9806573122618596
Ni 6.384437731082076 5.992764555872799 -0.11260246648279498 0.49560507403852067 -0.757186024343954 1.2951577362741438
Ni 5.906599590933356 5.046913053907313 10.502026292878371 -0.0013444298430363942 0.5801336900102202 -0.32528825865640754
Ni 8.100529734696847 0.3764853213507134 12.077248855203493 0.1867392226041945 -0.44026105005057725 2.2128561883152793
Ni 4.4336662427894735 9.04216930073578 8.410111633543345 0.15787344741243778 -1.3741782779434204 1.045810866141057
Ni 5.588114562754149 0.3633094272575026 13.206151829856086 -1.286413157312294 -1.1325876547169849 -1.766267396274461
Ni 1.938006649653055 4.168074650676955 12.736334800947798 0.7315552111497272 -0.41816730347533143 0.41831976989279573
Ni 4.427048802974892 4.51149950077574 8.27563659301046 0.38192246221068415 -0.6638125563871149 -0.8874494233486071
Ni 5.953815669164693 2.749924119048213 0.14886474635810146 1.0911612692513981 0.2984017186782087 -0.3549767868597758
Ni 0.12213600373098842 9.09292451112422 4.323578956425619 0.3636455182783673 -0.6866575793060885 0.2843555249977877
Ni 6.520565288270608 2.9795437507201883 6.937663994422065 -0.3210672785965245 0.605586582865686 0.11108528341430547
Ni 2.1376911218295427 2.2673210535733945 9.90311665359279 -0.5440387440598758 -0.21336762382500027 -0.32709317307563024
Ni 4.235106182392065 7.200779115673612 13.460168432187084 0.27610871160796324 1.1434662493027017 -0.9460654332196027
Ni 8.977027149469123 6.116118057931791 13.171673862443319 -1.512762795219259 0.03789780348703796 -1.7239164421120763
Ni 7.152235862883361 5.310983925171078 5.978765629223262 0.285749834242153 -0.054104752264203596 -0.24895297712877773
Ni 3.5439892473279895 5.379158301645253 1.2650084122651426 -0.8785472357629708 -1.9999014836579818 -0.1973182836716215
P 3.4308199667106587 3.163716870239377 0.6114413007283187 1.1672921480777059 -0.08076760626737058 0.8611002439311171
P 0.7477541093656984 3.044538438146967 11.481819362539063 -0.3765321444330483 -0.3185684234340707 -2.5512485884538125
P 1.720285506561337 0.7476942021807473 3.037876759180422 0.7340432676789035 0.42332519352718706 1.2057962176901749
P 2.955755990049667 -0.1449717009852893 12.650488726562093 0.5418039411920863 0.13972788685166257 1.2733105584920652
P 1.5592826428831748 5.869890311293415 0.5757163422195722 0.4186936082924467 0.839717921600599 2.3488770586289998
P 2.38204792099945 0.07215037025691935 9.254350411693036 -0.8890820738560236 -0.3496713154864623 1.7379610931306004
P 5.997096306169253 0.7664386995273984 3.6561705202181294 -0.8438507128220499 1.4678188835187171 -0.4247020192700557
P 1.6781108483558718 4.010297558496151 4.541646639541053 -0.7211674401574999 0.8802238521344454 0.6708069854270771
