# total energy = -340876.8011722836 ev
CRYSTAL
PRIMVEC
9.19904000388023 0.00000000000000 0.00000000000000

0.00000000000000 9.19904000388023 0.00000000000000

0.00000000000000 0.00000000000000 13.46372489889247

PRIMCOORD
 96 1
Ni 5.100490433324804 6.712861341167293 7.006077976509307 0.9511510752726265 0.15577568434314462 0.40599338711695887
Ni 2.487171999966322 2.6069710958655485 7.484376533817357 -0.3277647452213581 0.7651073360735597 -0.4965391558170158
Ni 4.762407320947599 2.9024166585619655 12.842441002701394 0.29641991236148946 -0.42830670590217845 -0.16104438894125167
Ni 4.009751079883422 8.54488692242464 9.182435577910455 1.1889626910726039 -0.5538238484710979 -0.5531885288799441
Ni 7.814381969306815 1.5924089913792068 1.2970039044581068 -0.28798258022741374 0.901999296138324 -1.267245840355224
Ni 8.838069521319229 6.029253093178412 8.832701881569772 -1.5877184227905432 0.6041385375652498 1.158632929740811
Ni 7.495359267488099 3.3495543882996355 12.996304143146027 0.6132412711974665 -1.4960220854258106 -0.20801972924952558
Ni 4.723044629451569 8.29432347513115 3.34298903356238 -0.10727902229433782 -1.1021825600625665 -0.5304432647636284
Ni 2.749317038424454 -0.15636803899438015 4.626849349890193 1.128160986404199 1.2112873227117333 0.03154563601676503
Ni 7.768708736477233 4.219369600827571 10.351463359951266 -0.5097376567851608 0.10852112223155505 -0.22920999017389557
Ni 2.993027201033545 8.995547884422882 1.3029198069823171 -0.30644001560165285 -0.23242566889771585 0.7508251151229328
Ni 6.061974077906474 4.945964962011343 0.05684730652909826 1.8097414082976964 1.71086346558286 1.3491892120982505
Ni 3.306972032857916 1.4772370125219305 9.567443912440124 1.1262457716593572 1.8000843448239063 0.9550599234087294
Ni 1.7367143294250607 5.195047363889815 9.69944185507758 1.7822023223371628 0.20458447831573154 0.13810217832278152
Ni 9.526341682509438 9.290018348895746 4.750163398914128 -0.03821173518303096 0.05560241985565262 0.010465675418014233
Ni 4.094511033013689 2.823378508215183 5.40157868706204 0.36003877476371543 -0.3139437801778658 0.10854811881474855
Ni 4.57735943542899 4.193557095022978 1.6439880077891706 0.8627238955774691 1.0203016661263589 0.3183642778430646
Ni 4.023181678056875 6.436899344862226 10.840668298899345 -0.1321896694930885 -1.0002066951486968 -1.7301948189216205
Ni 7.827803368440424 9.305932687827303 3.054300165631991 -0.6461112824526097 -1.1779709679477905 -0.11054380908853864
Ni 7.282061130606016 8.813995634045309 6.2080023961152655 -0.39176773043588015 0.9017038763850923 0.8787837772538092
Ni 6.5335720545915486 2.682173246597037 6.113176853586785 -0.2672242646341398 -0.3918950000423638 0.07640932929867485
Ni 3.611791417156215 3.8295786854825744 10.827500793265456 -0.5507261833823806 -0.2211405829021998 -0.0601455591416448
Ni 4.971170331186179 0.11836864520335484 13.44593941220157 -0.631791266285512 0.21531446313872596 -1.9456460647485263
Ni 8.225919414844993 7.6100528962734435 0.2801264016428211 -0.389470192650955 0.018239148715846008 0.21404433817705076
P 0.12060125217369518 5.848188391912617 10.998651689290478 -0.398559556546733 -0.250633193044678 -0.463966106977001
P 7.3195656160533895 6.937860656731999 7.7354210908947305 -2.0698984816724093 -0.728711571053345 -0.8927021871071142
P 5.639995722144415 4.775138792092843 11.382556139038769 0.05341981038203703 -0.011159359050929168 -0.3077024272538443
P 3.864535036892929 1.2265079825112337 3.061085377421538 0.06088937928620482 -0.0776066920408857 0.8693593986161158
P 7.7216464486310805 2.8934751918327906 8.27446826753007 -0.17662655965022483 -0.2880926234427167 0.1788860451083629
P 5.450256326304945 4.858086534373679 5.3178747837059595 -0.35790475913984815 -0.4783452585168085 -0.012217110891482186
P 1.8268465218247085 3.460053254915738 2.806029119067833 -0.5708846606081265 -0.07856699907162598 0.395682492109254
P 6.515100382583129 1.524170513810255 12.480562733957568 0.683145709498088 -1.1182313859953128 0.4050076261649218
Ni 5.597137395507351 0.8771551264201262 1.876883779156679 0.7444189544862727 0.43869139157061215 1.3362146542154536
Ni 2.6037882280792375 6.62294992572392 5.1935506801070614 0.032379187661653916 0.021756417840485112 0.26344654275926244
Ni 3.551077754180335 4.543690949596911 3.7042877627959845 -0.12097400328292715 -0.5656460379170064 1.2880987725448334
Ni 5.558759001274719 7.502893281121016 12.166898472848462 -0.41256718367973466 -0.21922253994388052 1.065248148930062
Ni 0.44368808979585855 3.0572456981903056 11.834129645789615 0.5062126743510379 -0.0763648492139846 -0.9665910639767805
Ni 2.0002208257802265 0.7636785306062521 12.768982989924487 0.46007268545986574 -0.41477036197864053 0.0406419418910784
Ni 6.368127322982274 6.126532939537494 2.644073583271703 -0.5914699409586459 -0.4415998234666588 -1.3872937322794558
Ni 0.34703653785817934 8.257232946476794 6.929079253296123 1.3353703039372873 0.0750085922964063 0.13664359149938404
Ni 4.858509690206541 1.0915212718281928 7.265469742341882 0.08298929650903772 -0.2475897782326639 0.4227356395723042
Ni 8.788293516718852 3.50684877060639 5.843565874390589 0.014575840931645864 1.0203602872784363 -0.5909060980353759
Ni 0.823040854628927 5.305537031466073 4.114702925473091 0.2982621077765509 -0.5466142180965361 0.49279074451817717
Ni 7.3075056748168175 4.732951995364451 4.292693307622746 0.6733228098703952 0.29785021705011283 0.1926177928721586
Ni 8.82290950365495 0.779604828289607 12.600107936357075 -0.7829736748310193 0.2868042436485964 0.24341173559557433
Ni 1.345046809951718 6.188488472892427 7.3632840529159465 1.7638279335950333 0.1758688555485939 -0.04036349141871113
Ni 7.085468450082147 4.671217238965794 7.2094071139115465 -0.5257602574656622 1.5842942276003424 0.5830886588734862
Ni 1.3480456969411327 7.6354790424045555 9.296082355961458 0.6770570801018467 0.5620056129509418 0.7522510489361819
Ni 8.904780958273939 1.440109687708195 6.9427444269856196 -1.0018295754641007 0.2480276371010309 0.24326878225980683
Ni 1.5802478607043409 2.5113470766785366 5.021538753952563 0.5658699810023544 0.39614143402354357 -0.6576586209705771
Ni 5.1458141026402835 4.83529131363819 9.200342428872402 -0.028394234871976905 0.7174375408014224 -0.7475497868057706
Ni 5.690884810566018 2.423496246160407 9.49378352078663 -0.49999291869357115 0.9392180712804664 -1.0873976884439078
Ni 8.086691946793485 8.60079868660152 8.671715924573286 2.0887104721725898 0.9404069493822449 1.3068482852381946
Ni 7.351385094876659 6.16040380424616 11.870050056575709 0.16280842282020994 0.1185697647168087 -0.8916413499427677
Ni 5.705952837831849 0.9097316862226239 4.542149190518918 0.3349697476102296 0.07315559824806755 0.3579554098721255
Ni 1.450026252660922 7.833460777944994 3.051216647476004 -0.6301701857423212 -0.9654170982733372 -0.8070173460437844
P 0.3528770082556621 0.3132006295009242 10.417529944212854 -1.1926010591561396 -0.6162234937542419 1.131090501346168
P 3.294350950190809 6.5143276632361635 3.164607692219321 -0.25761862322357565 1.6665322477656526 -0.6475819534608653
P 1.5492103002678832 4.61588501429914 6.048470807318249 -0.2597395262213204 -1.3130888668312677 -0.35074089440155726
P 4.576531521842956 3.3729199495055044 7.680328041264041 0.9937802227970628 -2.761159106968148 0.5319825842262903
P 2.4812662163859414 2.864875376955213 12.523943566057817 0.5406402599012883 0.7525487826822588 1.0453619515290962
P 1.6585776849830713 2.998822596135788 9.741583576510733 0.30086997771304314 -0.5057475617891612 0.16314318045180937
P 1.706707061451224 0.7860220784853605 6.38494224791464 0.5652161494684395 -0.097300056704755 -0.25000507254237586
P 6.995143077845758 3.863486346350619 1.9048341418212116 0.14613867547401282 0.7400748185849642 -0.511055604265636
Ni 3.2534336209610033 2.464036414756574 1.2864066105568623 -0.37046665496525877 -1.1855204981602745 -0.5367409248468821
Ni 4.2565245227608415 6.912710481796233 1.284646834234546 -0.07031915724053697 -0.48657870217019433 -0.5735092427151671
Ni 7.434259244838735 8.522616046960307 11.160646780957942 0.7849133150558933 0.4506146253707594 -0.2156862446558479
Ni 1.8085404325334962 4.639020599508888 0.966992029640755 1.812985883376923 1.46885272409987 0.027914724132397085
Ni 0.5918386264968518 7.735417411278792 11.935228013588285 0.2872061070727054 0.3859158996407935 -0.6898830282219216
Ni 2.0116460332675064 5.582685703911123 12.118092966951716 -2.206530246097252 -1.0100571055802152 -0.8562904812472995
Ni 3.97487751983167 5.2878012826452405 13.004437014272842 -0.4196225478646193 -0.24832357107489494 0.21214506427180885
Ni 1.4542210148301649 0.6848473586559782 8.602983458564667 -0.6038536593349794 0.06286861449976269 -0.5347089820185178
Ni 5.796517385104204 2.9624955877885526 3.4888278515503672 -0.31312256982815106 0.41704296006290115 -0.30998839507454357
Ni 8.862594161545548 5.662892132318199 2.185378179872988 -1.0217988194971759 -0.00042988844856700154 -0.8246003492328701
Ni 3.039887110003111 7.540848519520785 12.553616908885287 0.3139304104414271 1.6261633570303025 1.7894638889955825
Ni 3.067051874664895 8.405263895659806 6.915709368785647 0.35948084537771635 -0.9010677854629902 0.7715114398276905
Ni 8.721600477843833 2.9333898257195097 3.111129993985384 0.18908663979044857 0.4180857995051187 0.8348338540354202
Ni 0.3880605759501848 4.012363607199354 8.187250330953264 0.15484751610192043 -1.635982914223886 -0.9707953318661153
Ni 1.3302271567616963 6.925386758702409 0.6636454116216132 0.13298259770802906 0.7234472373306121 0.6266156356218434
Ni 0.7492746740172166 2.7236517172573773 1.019490950035202 -1.1680390535460594 -1.7695450385844687 -1.4729875722038501
Ni 5.316226315765766 0.586045991106562 10.93150789746306 -0.12551482857607416 -0.48806531401804987 0.0823246663418453
Ni 1.6592952100909684 1.1995639948057255 2.767441906630723 -0.8225648068600802 0.10709390286672525 0.3472128266436407
Ni 6.152327047262398 7.039620435495513 9.625983842300672 0.10652774595061008 0.5659360583535995 -0.19084527435276807
Ni 8.339729935805234 6.476896770107549 5.965627934091644 1.108736559131 -1.297581515224288 -0.7882765751011714
Ni 3.636030887147343 4.942662506707049 6.747453410599793 -1.3887353498219888 0.3891590891684395 -0.4187694558357046
Ni 6.596521084249723 7.385163969186875 4.576494725683577 -0.5127283639823687 -0.6768354510093441 -0.13128232718747068
Ni 9.003026703816728 5.095688534525803 13.044289094688617 0.7482015614571565 0.34328186702035074 1.3653902473381454
Ni 7.76133110652168 1.8057163273011334 10.31906986104168 0.7968380915179374 -1.3537369793699332 0.6800002218905709
P 7.933546331456749 1.575317175347512 4.688055161497772 -0.797921040169471 0.5934188371549006 0.9304207847038105
P 6.276826852522333 7.76216821914756 1.2102836359369065 -0.5275314904334721 1.0108832010259365 -0.1092402597857667
P 4.999319393111359 8.497751042259729 5.738010571787099 -1.1041520250841113 -0.10382088854240829 0.07472165718360681
P 0.262043849019838 -0.0322297560003477 1.399701985285793 0.7114185883008521 0.2860871629769137 -0.7094676352220685
P 3.4579650728709614 6.553892733608779 8.695640787401722 -0.5616788257391424 -0.9895718411426698 -0.99160738351546
P 3.2137121669110256 9.000690147696142 11.09124094523268 0.037315705731322826 0.7792964830897482 0.4038984522611432
P 6.312371942482757 0.282761926558365 8.870076660555332 -2.9790274468769793 1.1795421690896524 0.7112751207444524
P 8.65699562101359 7.237252607521848 3.9123028910951807 0.2976800100208357 -0.6688385488467965 -0.47017557822182254
