# total energy = -381164.4059519583 ev
CRYSTAL
PRIMVEC
9.24078933456969 0.00000000000000 0.00000000000000
0.00000000000000 9.24078933456969 0.00000000000000
0.00000000000000 0.00000000000000 13.52482926444813
PRIMCOORD
 96 1
Ni 3.689218786105805 4.259837524188006 7.880417575674751 0.4037688686618143 0.8078187588991571 3.8740443981601986
Ni 2.539498265381735 3.1422472277928724 2.595603717499404 1.5829287147113833 0.40476774223997386 4.061352605893986
Ni 6.340715417569423 5.232624652554831 1.4939389973505999 -0.5889356045725663 1.8005821103959312 -0.4774872813918873
Ni 7.186783602530236 3.8263613398204277 9.575145986989607 0.31225225140805574 1.1805235591663152 0.08449364896870609
Ni 4.333412688440808 4.235044486547933 4.2592396451215455 -0.8135016682165472 -0.6025444536052526 -0.28036517289147195
Ni 3.1754309020998064 7.849699343947903 13.169680873888748 -0.6885650807414464 2.1132580796049667 1.3355381969737192
Ni 4.272950204177296 6.185359268182573 2.83614331063345 0.06904903227886172 -1.572360195166918 -0.5620752898466126
Ni 6.712453888752755 5.537700069867314 6.408753500885238 0.3911390957129457 -0.13092777206152936 0.48414978101372746
Ni 6.189822569405143 2.8913782804008785 3.778336957928716 -0.10158042924766375 -1.660259270272747 -0.9210997644132007
Ni 2.3848351751909362 0.8083066236442282 4.543909551544424 1.3883044329321574 1.424599924929082 -0.8488903321284863
Ni 7.662462471542696 3.6084820101604738 2.035865084716279 -0.8165589669856324 -1.5397686343841417 0.98039428840846
Ni 5.0472729011628825 4.929258781259275 10.764505797412097 0.7419902904401221 -0.32598168517900633 -0.21798403955108908
Ni 5.181846515457475 9.144694312953597 4.152325561301895 -0.6230631423838946 1.536632145637689 0.5439991490711922
Ni 4.566548561203169 8.27220671143931 2.174251448668082 0.434754004189419 1.2949613039926213 -1.7773136267862937
Ni 4.934027028528107 1.673100344003418 12.738671056180184 0.5354875120557552 -1.2231624768827645 -1.4367157343560095
Ni 5.960096547887353 9.028703925902459 0.05652590802994051 -0.4540395918919084 -0.24965334562991198 0.7266788568940323
Ni 2.0048724015477952 8.377570190817663 9.19827702959764 0.040006879410240774 2.045691802519219 -1.6913050838349581
Ni 0.9057276446358333 5.452786457167114 5.799717105447524 -1.1276786474511418 -2.023961609930979 -1.309730491881996
Ni 0.8488598274025074 2.1967204278040637 5.985210240915466 -0.27831034724497233 -1.4350468312940188 -0.30254942229799503
Ni 3.9789082892659495 2.4210775507497764 10.361642499773568 -0.4634156337901696 0.04924408173779261 1.112137357282433
Ni 2.244458345228074 8.085228581133963 2.6203681086927078 0.6204393316078024 -1.9243781565086855 0.17997722129001262
Ni 2.232925840205781 1.3570006650790802 7.918517349879009 -1.4859862984563632 -1.498833843842993 2.1940951056576927
Ni 7.332335274490281 7.493023359292085 3.9808303734363317 -1.077330534015893 -0.49247732704281627 -0.6909068415007455
Ni 5.033005122513508 1.3391659417673611 1.6306481580479586 0.8140369718947271 0.11083228686323493 0.9264396885688755
P 4.588476954166231 6.6008251542420995 0.7481999097680229 2.017158728076532 -0.04805931740107207 0.5948892510528401
Ni 1.4949102043039997 4.1146185206420665 12.824080899264755 0.45248690269280784 1.808285649687776 -0.8983187619629431
P 8.38210741835448 5.6021453343108005 2.876839746625579 -1.261245142687099 1.898251891735279 -0.2411082842733783
Ni 8.409340024364653 8.522974010149216 10.32511181158917 0.7074968846489428 0.2743778449597855 -0.7022929718505002
P 8.64106205636707 6.405816778051838 11.35444610180128 0.027728833373836116 -0.8391985587620193 0.4785198364214598
P 2.086801239310334 2.4774925693083487 0.7833740500860163 0.14618624088249663 -0.5303964706860931 -2.087237744281805
P 2.1492874564263156 5.901408295165733 8.778223091660253 0.4075370774549949 -0.9276357657595056 -0.4053444406790503
Ni 5.3876111703704535 2.6930801832266935 8.632127137211578 -0.601389514065203 -0.6400933583933041 -0.07003505034121486
Ni 1.0000197343769988 8.832586654998515 0.4476136678880963 0.9667196191348446 0.8717960330820663 1.8052093247552974
Ni 9.10241770199447 8.054133325204463 2.4945603071097713 0.6598384022307152 1.089487481093401 -0.051236686687789176
Ni 4.130383307154912 0.2938090470214733 9.08254538464636 0.34521559370795385 0.19076479882381986 -0.6976711568077727
Ni 7.79421764510668 8.060731248750871 12.65172077352252 0.807506626975377 -0.8654032421818451 -0.9273717134648416
Ni 2.769381380317296 4.725480896041645 10.543321037426443 -0.15405098834255404 -0.1795596741366198 0.2897460998857397
Ni 6.601037692395555 5.058029179885599 4.177697996429868 1.1785972886778797 0.6006953162116558 -1.6433223853080925
Ni 1.261589515756024 7.077806974543136 7.161112689908498 -0.0003954356662057706 1.745282052272046 -1.219004745960649
Ni 0.6915963791081247 7.694102934039756 4.697565395703627 1.0168936688860746 0.1662794120879459 0.334490751091282
Ni 1.1215545949965473 9.323032305281506 11.76308489274024 0.3191350945708182 -1.8078691309756478 -0.937991912182849
Ni 4.8991984937292115 3.520324880422754 1.6788102276999524 -0.532280060862051 0.6376883484962372 0.4930499117168347
Ni 3.2863850589929724 0.69185696936584 0.4441455996710558 -1.216553456206679 0.030069051471238534 0.1879188447345925
Ni 2.217807908942583 5.670869084191242 3.611359591942479 -1.1628675366474488 -0.6597926365944444 0.5913241594094011
Ni 3.9743895433076952 7.055610598690935 9.819458594386957 0.6635775575581733 -0.7225676629391362 -0.25086562077045826
Ni 1.090653395641942 7.012049518021793 12.899413661638743 -0.992221362950375 -1.6923008720893242 -3.3315598859613202
Ni 7.050029161965401 1.3436200022006506 5.255315410633549 -0.42932434853341545 -1.3597389625896388 0.7661218933810031
Ni 3.179154940179922 7.846243288756927 4.962367605173035 0.3688324617959454 -1.6749256140356703 0.21514631299197784
Ni 0.4938342477122187 4.213051408059906 2.06859596034846 2.134251651137499 -1.1317312202539607 0.8937951630609768
Ni 8.436840613263966 1.0838614155206396 11.870377848920398 -1.5044211081227834 1.2014446255896987 -0.22022424173551747
Ni 6.849550238520975 2.817904764830165 0.11328468394975423 -0.7637369380885943 -0.029561772817516832 -0.25325828937235095
Ni 3.2331488719469554 -0.33887730042229447 11.125497230661997 1.3809068549165058 0.9094696363734401 0.4733832865258428
Ni 4.099472867011026 3.621437596731992 12.774498520300321 -0.8277419801856455 1.0315191321087334 -0.2432214739616392
Ni 3.514789647643625 7.072872393067251 7.430527901386822 1.5928130637046312 0.8526027479830671 0.9299651852236307
Ni 1.6419866064953572 2.8708267650406385 9.700967649756466 1.65661833108605 -0.44098584403174373 1.2561314756096174
Ni 5.6143246945827405 7.985871614788055 6.121216177548565 1.7273743187536896 -2.7380040090079234 -0.6202467559810221
P 4.989850636572717 6.324359220542613 4.78930425536654 -0.22350651203121505 0.9812964885077552 1.509199503348033
Ni 8.334304815405504 0.6047773156582478 0.6356332351453777 -2.0930702918031825 -0.5751156679703385 1.549688721711331
P 1.9069477575403928 -0.013742901818232388 6.312226988296004 -0.9159907253214095 -1.8197411998228852 2.1103432199510173
Ni 8.143325423341619 1.7860874745383344 7.419924095687238 0.2475465836995543 1.1308930406233815 -0.7955134591692429
P 6.652314832114068 2.353573585054384 11.539248950309956 -1.0514937754584472 -0.2370174020334563 -1.358681724969718
P 4.27085254501058 2.0737440040567288 4.474094464449932 0.17229502215440648 -0.5223959689791197 0.23488801439527934
P 8.608839424145327 0.1620353918789277 4.440728746594169 -0.44319596430918506 -0.583156278886628 -0.7755676121749352
Ni 8.405440411288204 3.5481488969468913 11.804835702789294 -0.03610625880425394 1.1268510093435238 -0.242609294298937
Ni 6.861979100103493 6.695922116729613 10.161244895274812 -1.281549915682722 -0.8387362744136201 -0.143733665576946
Ni 2.146006976231673 2.073965782999465 12.109807623261833 0.8949788989564329 -0.4538506158095539 -0.44894109432307844
Ni 0.2249106462236258 4.572933946596122 9.950432921256724 -0.3028777521716913 1.5678525371045513 0.22867082984097392
Ni 8.820693759194276 5.2219423001463605 0.12666534682818384 -2.184998285562746 -0.11807945534395148 -1.1235792805707876
Ni 1.1112141517914624 6.263000379718875 1.3524615893844085 0.7749397487829492 1.5301249406467907 2.585540419757147
Ni 1.4053577153848964 6.84367309653846 10.536085499419668 -0.30771014056332807 -0.9528364333948492 2.5137027689895546
Ni 5.72911377902739 0.3081978800104255 10.711137467079366 0.19163820256770867 -1.071949729319954 1.6836100291835454
Ni 9.136996735482787 8.866343258240851 7.982273251442156 1.08886527412837 1.5486731359626231 -0.05903561390691768
Ni 1.015165388008039 3.775758777719405 7.688148169427284 0.859824462542487 0.6955898487987118 -0.4007578497496324
Ni 5.648534096499831 3.155101165682303 6.467464855580061 0.01441077610869131 -0.011339336272219181 -1.6260450862848836
Ni 3.5967924117204095 5.8373141807149125 12.671236396404394 -1.3621696835183186 -2.7655544078223664 -2.4548869844029273
Ni 1.7591320922065807 0.9227852175690469 2.4418536172895373 -1.1460234685069166 0.9396908971518269 -2.2607380995982225
Ni 3.303637612580008 5.295489742031321 6.082521296514631 -0.5310377038145176 0.5104470241473595 -2.508570332858996
Ni 6.901021434814382 8.199269161646876 8.162789297803522 -0.3729020038796288 0.3908472755041397 1.4886180796522557
Ni 7.192429724780733 1.500528604186655 9.453138922037818 1.155105633313843 -0.978970668588056 1.1227552420075955
Ni 0.04690347415196486 2.5487760178195407 0.20993687127320637 -0.0645719703441146 0.2950644267748596 0.6549733608289301
Ni 7.994613401447581 7.770062221926974 6.138392956663499 1.3647523566438302 0.11615652728962576 0.6282354306134534
Ni 7.327456137750079 7.354041888510605 1.3404975395027077 -0.8477906713064044 -0.05031468909415205 -0.2949425564850146
Ni 3.1779074336270297 2.64084200142299 6.565641773134826 1.438711938850432 0.332183443114344 -3.6364348710686984
Ni 8.084905153509139 3.430837077028616 5.347852674490313 0.5010218741787178 1.1771320169862631 0.5945709484814728
Ni 5.072620386159798 7.327012579864607 11.942979033983015 0.9162007844496866 2.125802234818565 -1.1576631096283738
Ni 6.460901122953992 5.755533195580863 12.612160030532987 1.2100195117429033 -0.7930868520056212 0.5040130955965577
Ni 9.048774920220104 2.004992531808444 3.2221689661236472 0.015474698596831414 -0.14408642093067445 0.8229268181851892
Ni 2.883348034515965 4.779225326498099 1.0831036707996233 0.656227030730373 0.7354686872715205 0.22751151942555015
P 0.3377332907093459 1.3467526297668024 9.551654052480254 -1.6217477444611104 -2.394839127181411 -0.2957180011984585
Ni 4.178694153514326 0.09657641285135053 6.751080387946011 -2.829342963033237 2.6628648046709236 -0.2716362776589064
P 5.617512766884577 6.431709469616313 8.03120600292016 -0.5863806993611965 0.13027728296172403 1.2693813986409879
Ni 9.00017760939299 6.677301926329036 8.755771670023906 -1.4974174231114403 -1.1497978479476842 0.27323524671491006
P 6.052504440694188 0.8296750247768806 7.476133044644851 0.6058678615515307 1.372832048328171 0.03852669532028848
P 1.3083941134626853 3.536376131403301 4.447992006968786 -0.5986158079748077 1.0507360713568163 -0.6346359348231586
P 8.288202517684173 4.450724508359084 7.593718391925835 -1.105011030650297 0.16064586795125235 0.06326867815165878
Ni 6.894977958624814 0.46737786800162207 2.6956204761999527 1.349791878679256 -0.23030810833408077 -0.11022602073780373
