# total energy = -340869.65007951634 ev
CRYSTAL
PRIMVEC
9.21768859753707 0.00000000000000 0.00000000000000
0.00000000000000 9.21768859753707 0.00000000000000
0.00000000000000 0.00000000000000 13.49101900073819
PRIMCOORD
 96 1
Ni 8.419049604982973 6.244200508628096 4.437169448478561 0.7602978305000583 -0.9336063815206437 1.3995321833271768
Ni 3.1862046695355213 0.36817660429105775 5.869537416884116 -3.446840952624528 -0.26255745528608976 2.373524681974351
Ni 3.9777368054882287 6.034516528836873 4.611945119852898 -1.7043446906277355 0.8413752546983639 -1.9954131088693252
Ni 2.9226801707553514 7.00077916948988 11.36007205424134 0.7796636366211799 0.7259368365216854 -1.9809246854451625
Ni 5.5068499461417515 9.125225944695716 12.890938399262554 -1.6399820080809497 1.0564066393790323 0.12363638060643868
Ni 7.622337128048964 8.802210483827778 12.16679494097196 0.9815553985960965 -0.3903122289362762 -0.8558767907486486
Ni 2.813810050950791 6.575309100068248 8.56455727158181 -1.6305128922482501 0.11897574190597575 -0.021137553309563593
Ni 1.2313357111144214 3.3408498308225516 12.020214335422546 0.06353504443916799 -0.0307449944923406 -0.5648122291618015
Ni 0.9337702884126325 5.997111148583981 12.20242407263571 -0.276406188243724 -1.7998596304076098 0.5398905262194572
Ni 5.185051220166219 7.080005202824925 7.506659745228937 -0.2323598486567869 -1.0574772467353917 -0.45742496342437355
Ni 5.21016942154353 1.1720106674210717 6.534523593413499 0.04440706536046545 0.2941339445407902 0.20796136520776443
Ni 1.9814619899710244 5.233093813039081 2.491804848751092 -1.918837943416747 -0.7457633843293092 0.6676841235273792
Ni 1.4069511139182895 7.294399421479931 4.493359556286251 -0.020957061867641326 0.0026546640140276863 -0.9949328483442672
Ni 6.953271202554592 4.246801135104275 9.58339945142618 0.9744177591100508 -0.4161996382259994 0.2596703635462818
Ni 6.522390349937185 2.1834768528646618 3.9891049808124994 -1.1222759883783318 0.0660171874310734 0.5670879125698556
Ni 8.033492127107674 7.283310542119597 6.808849379670342 1.5125416803473888 1.8090081296760974 -1.0200404420451723
Ni 9.111334888007418 9.03103960279723 4.885259725672642 -1.1065223250885008 -0.8492400021584212 -0.1200877440232319
Ni 4.637797049241084 0.899149571879405 9.053835868421537 0.08911057891542717 0.06795194255994104 0.5179942403669983
Ni 4.977063295073499 2.0362703662607475 0.38557591325245716 1.1769816074513277 0.4597651815217759 0.46430780658713583
Ni 7.048536014016799 1.765362498928935 8.851470733361904 -1.0338110134667033 -0.10479996462622597 -0.5183832482753008
Ni 8.821033003905749 9.218057286373112 9.863311156961792 -2.535523464409072 -0.649904430946455 -0.8707261970566552
Ni 4.830382216718578 3.1492693914001495 7.964908837005748 0.7336226352017171 0.20949142869904566 0.09664365406767872
Ni 4.696135800256499 7.494847277315166 0.956196002956068 -1.64960384744143 0.011601588794670343 1.9038376133531727
Ni 4.108056486615727 5.330976448057676 6.575266698700784 -0.6048759299519068 -1.9241074193458023 2.6406967532143164
P 2.9986707953992258 8.205549502120114 13.08013606618733 1.1918456690473538 2.0261763581941103 1.0550120730243506
P 2.845740124187858 7.387322940043115 6.424315065227292 1.2617526784511366 0.5030612732062497 -0.32652367372540536
P 5.245685175637762 7.7722904858493695 3.2939400918760278 0.09043958213949585 0.2806469657979489 -1.2116400780654617
P 6.246541801527119 4.938339785353835 7.609514401466954 -0.8598568584423191 -0.4729523696360112 1.6191267618984952
P 2.2628042807740725 5.018727247449812 10.619698089901139 0.3798979755814877 -0.5745176293750235 -1.5803825512507619
P 8.81203653985281 7.325905481042371 13.467045778977145 -1.06873893569214 0.10333932092029946 -0.2157168407834672
P 3.6161268825407293 2.469188328054075 12.288429715920481 0.12962139454528 0.4867373392352456 -0.8449259481640997
P 7.437024716860166 4.136917069556043 4.130963364502977 -0.009652692598415634 1.0768957604713194 -0.6015059850384092
Ni 3.2084746051419746 3.5691351061658545 0.7542779257925082 -0.6149790798241795 -0.9663738057596518 0.8942903575298404
Ni 1.2555597966995864 8.573943643861632 1.381399681177773 0.29147850919581414 -2.3667385122904534 0.16919607151410862
Ni 5.368621488213618 6.82636206620126 10.894941957940432 0.25982771505975255 2.075500915460851 -0.8686135215890266
Ni 3.449858215955795 3.01809246523482 5.861901483665414 -1.2710443881657079 -0.6103896606812842 0.4271908471301804
Ni 8.512406354909364 5.111659983701575 7.196001517669779 -0.07811114248112999 -1.9046943049265133 0.6851514270742072
Ni 8.694713799621463 2.5864281090882137 10.305505800540855 0.49495715604187657 -0.3183923028675227 0.5974598399934936
Ni 8.58876568709639 5.344286790365507 2.285783056632238 0.17673711708616013 1.420945101785314 -0.19625950338980394
Ni 3.5595487100438707 5.065857289153368 12.554027272862031 0.5126234629733881 -0.5373279076986036 -1.4138884520488488
Ni 4.193126534509749 5.048915177545479 2.350904182903956 0.922147746061741 -0.2964137417139024 -0.4261022420516919
Ni 5.705804536427217 0.3064282302703338 2.0334875460787987 1.2759711360433639 -0.22250018225388776 0.846428243741239
Ni 6.210260979280845 7.0138129811403465 12.966622996645613 1.36124511482152 -0.9932094378952573 -1.2852877854585993
Ni 2.636710600285731 4.144484791879263 8.274014805808232 -0.04625877385722356 0.1762259817776965 1.1968621484253388
Ni 7.158300249613506 3.0872066941988874 13.130511656039493 1.0038052111332327 -2.248045334621903 -0.8672192123446614
Ni 4.912631651907478 3.11444496394933 10.618632525101425 -0.807332563291358 0.41971690735063844 -0.4391243653429727
Ni 8.006705524097594 6.315895690394236 11.224082572869003 -0.5991138306571488 1.0513927311042086 -0.49487488074071545
Ni 7.309341294666214 6.762529572792864 8.96043763889654 -0.4740227198820546 -0.06540166533426156 0.8614144327374262
Ni 6.9775505942712295 8.179647797213603 4.644525961903629 0.1254307535027001 -0.6637719329571665 -1.3858852819677037
Ni 6.037162005458997 5.79032152300651 3.476379349534804 2.022090103939879 0.3190019114270635 -0.7997930603812032
Ni 1.1155431071871593 3.002901714456909 6.901425391374104 -0.12066469957262446 0.1121314652906327 -0.1979939695824074
Ni 1.3467596074985302 5.883069905486697 6.207690165936209 -0.17849240921437 -1.926775710206585 1.1578615987924252
Ni 2.0050869257985657 9.066831887548828 9.562325971797257 0.6386201162818872 -0.8919156866500768 -0.7867331418734516
Ni 2.038086250910777 1.3573046432327114 13.400453509608244 1.0926432531135635 -0.07810471472322678 -0.5032726178861074
Ni 5.174155912266042 4.029365079218255 4.8119357783346235 0.5037271889250228 -0.9010053076561709 -0.6575773741106805
Ni 7.714891939068996 5.286980420470921 13.401492343111078 2.5367465381828955 1.3448885278403675 0.9955666252735242
P 2.9400370783492886 1.8333337345092269 8.04930875894009 -0.8357170279713221 0.32146014315956895 -1.4708630696616798
P 6.377801686889658 9.135540538215427 10.157482626728857 1.176675389064819 -1.3966803157006784 -0.1962780153325652
P 4.425375415941948 2.7532498369878784 2.636172287272727 0.2628765291884054 -0.0002771649207866194 -0.40508810169387005
P 7.164227223369694 0.7394586478643234 5.7619872700840435 0.3800188174300681 0.42613952304753056 0.37714252432353756
P 8.839993789312402 7.67980019864939 2.9386949828922106 1.0367559550276404 0.8438962213480047 0.42033937142598576
P 0.20152540363010152 7.461930911400165 8.792353087661578 0.6166551819750218 0.5370556278738234 -1.1022589218264565
P 1.09111623245326 1.260251600186211 5.566272697334036 2.073955939571235 1.0121805796811214 0.11562019517018152
P 8.645076546624463 3.096064892923143 8.218040391913288 -0.26674192568108257 0.42340104107044496 -0.7509418432064551
Ni 2.4430377455559347 6.447699419382926 0.6287366944242757 -0.19219176107833352 -0.13107612471393557 0.16889962331961234
Ni 2.189532874260953 0.2715752279849198 3.6070400851397184 -2.534339728513616 0.8970460658981066 0.959143863670116
Ni 6.839082476440045 2.8944740437041316 6.477105689487109 1.1918649523210636 0.5857186402971654 0.030353929701509016
Ni 8.028026037780428 1.029523637369518 2.9249200690800072 1.4468487090249533 -1.6506564570756606 -1.5964892270046376
Ni 2.271275336578017 2.6999439439365043 3.5959502840105286 -0.4971600772304664 0.14689612246532766 -0.8664471100653272
Ni 7.196028248966657 7.199954984301239 1.6080349902654651 -0.2266856810901451 0.6650921944304868 0.4112458937651498
Ni 3.4507523317479407 0.41644595230295867 11.34200722816455 0.38605628187339963 -0.609219551632583 1.1094690664216507
Ni 0.45354438352617565 5.450446909727892 9.359529448912136 0.17209036234276814 -0.8477202230797851 0.1869006878827233
Ni 6.437495438126161 1.6407485670317326 11.332429127962286 0.12414571614268943 0.12582824605143492 0.4029741406746609
Ni 4.869787835393077 5.316163622511496 9.302920858042969 -0.9201710819513443 -0.35660043850612777 -0.400033312878782
Ni 4.840134531234981 8.147266057236173 5.34531732794862 -0.5831549933350473 -0.12305865372609773 1.0540237409691524
Ni 4.195965582592028 1.2366911881787215 4.153574354586847 2.0464469355176886 0.558486801164406 -1.1913245064365612
Ni 6.508554599380361 8.757513911909031 7.800170306724898 0.9307342021791712 2.4532599903224654 0.4575396346253668
Ni 2.614929202173956 2.3427769468840016 10.134871636644988 -0.34839579120814834 0.3160803669048944 0.39163171907864813
Ni 0.9807528470989287 8.403453275907593 12.211773574161217 0.19771217667593047 0.8849616239297468 -0.8728293594425871
Ni 0.7967631742211935 0.11884089354028102 7.4239319120027965 0.20415767519095807 -0.40716915259261494 -0.06534278707186811
Ni 3.502961319858434 0.7028413799849214 1.7291037991352496 -1.150586662397567 -0.094898646352114 0.017056955482286754
Ni 9.057660287412892 2.8281435566908715 4.684216407155215 0.027663527353539455 0.28340010306305385 -0.01919791308468952
Ni 9.07201222853013 0.8107012411212422 0.15287444331103697 -1.3039383106802511 0.684595297460421 -0.43323988153773774
Ni 5.977726349502702 4.721917675211487 11.98395102678457 -0.8201654533899682 0.04518636672865121 -1.5332490880980691
Ni 9.08146957701201 3.1929520175752244 2.1961898889525844 0.6143576441900968 -0.7838002844973726 -0.4388873096315022
Ni 6.588969714542073 5.746371583862649 5.814399969112129 -0.8675470279977252 0.5052289702815299 -1.4161913891504125
Ni 3.1379961582682405 7.598758280664317 3.0679389597625595 0.5718089721946087 -1.1414726159114406 -2.2903836903787975
Ni 6.7792412421862815 4.073573113642324 1.551426399396297 -1.6529007730251466 -0.7789524694867681 3.1965528016240947
P 1.8330479861632833 4.5571607095534805 4.525251837000145 0.101856822837502 0.5160697696507758 1.3062517893047763
P 0.8686629886737828 1.0956421175454654 11.015254916346752 1.7611848395452314 0.7468591884966492 1.6394055667521896
P 4.266351852579973 7.991606950205471 9.130168469311684 -0.6654426357913701 0.055381047873465906 2.341391291774916
P 1.2369585011475075 4.398487418357501 0.3903893902283222 -0.7804046285522624 1.1023813063369337 1.9023335180038203
P 5.319611038039978 5.27650912624537 0.5000688230901041 -0.40792505692203296 0.4549711025672422 -0.27788328700988274
P 7.053412171275 1.1127317121706162 0.5733761785886808 -0.6874492219694484 0.04506243955627723 -0.45796412375729517
P 8.250034067201547 4.2450589919628765 11.498570590444832 -0.11055332217023542 0.318401044618271 0.572241431746337
P 0.9052175762708488 1.3094279687542685 1.978282809180186 1.1909851208192714 1.5096661585718065 0.959427713459122
