# total energy = -340893.6961877268 ev
CRYSTAL
PRIMVEC
9.07568082368950 0.00000000000000 0.00000000000000

0.00000000000000 9.07568082368950 0.00000000000000

0.00000000000000 0.00000000000000 13.28317626935165

PRIMCOORD
 96 1
Ni 6.291906234503865 2.0183224794904815 11.602349299190529 0.3011114042998879 0.33365462834323184 -0.6013483764146225
Ni 4.684512425743684 0.21257422362545575 5.974094955322661 -0.35125820035760796 0.6798228157724421 -0.10528873133718641
Ni 2.816646580896228 1.55875723588939 4.774319008973454 -0.6444644908778062 -0.7387764114885147 1.4117467231154976
Ni 3.6269959592293493 4.6528473757817155 5.16754102665824 -0.48428065016463695 -2.116155969978052 -0.8355856445997802
Ni 5.006326987681617 4.303397366112572 2.692393251569968 0.4994182771370237 1.0763064636267528 0.1614663069700187
Ni 6.976021969982007 6.052135826093074 2.802591074196285 1.2530443520438614 -0.945091756452424 -1.0842905102734939
Ni 5.1479348336422355 4.56164586042837 11.587193819989757 -0.24877479967970056 -0.32776911609673226 -0.41986294601019947
Ni 5.6673632671399 7.820895237697567 12.509497165164628 -0.29526934369681407 0.1968619128604932 -0.00685173281451078
Ni 1.7084515133536238 6.649043345725828 0.3712661309355753 0.31666760686693207 -0.33527699443800324 -0.5556645012242625
Ni 2.6941974968931093 1.614953850783202 0.3205548574567859 0.7852221045455637 -1.1932790590597708 -0.2495628427986347
Ni 0.44356935636750877 9.05626781888794 5.041164895616272 1.008212853282625 0.29878429882860796 -0.0044426091523858974
Ni 8.614953769174358 2.41316904402055 1.2314564249683646 0.38302238014308226 0.054284986595809735 0.44163170514585876
Ni 7.105513782208252 0.40989041285823113 4.812375153284297 -0.6432378175595567 1.1470213136438117 -0.5061234570713412
Ni 0.839211858094959 7.742844383678383 2.8899408706605914 -0.7590259057661702 -0.5983849229109243 0.6057467625926342
Ni 8.003479782018255 3.798462794692655 3.541294306380146 -0.262503976340335 -0.23571925204732308 0.5209816051300963
Ni 7.929304243657932 3.71002936195278 12.401425774526299 -1.3375266881586578 1.7307494058735098 0.21765596678770902
Ni 7.723721924443684 8.95970257624095 7.131298698644753 1.2225024747012623 0.041379077167419065 -0.4679073510129361
Ni 6.733592387126143 0.7179507806954578 0.4198509724263769 0.09344057374934875 -0.3110787999252449 -1.115166373916744
Ni 1.8553777082043865 6.53221210807595 9.001370841470354 -0.5999818350843991 0.19323691451339625 1.0615958968894554
Ni 0.11840042284289112 4.94486647798186 1.1990952702967135 -1.186655383095666 -0.7306627812424449 0.28533845773634736
Ni 6.30004712009168 1.9984648901190893 7.123661513335782 1.206237933213284 0.2786800718795652 0.045078894616509456
Ni 3.452597678899974 4.449642884910841 0.5073641311432813 -0.4627062664279709 -0.11498333291713102 -0.25406433021341407
Ni 5.816231657660442 5.539768272179935 4.829457399497657 0.9118607623134362 0.709222866201114 -0.5395521690434321
Ni 5.182921582740368 2.900142843335354 9.404435434874188 1.052831006212632 0.031054298202643296 0.10941509480073415
P 0.1242896320490595 5.784494002252874 12.395394984701213 0.015491667877695901 -0.5257240049110881 0.3087542655571263
P 3.9398528243164757 6.1815368815123195 12.472171613150127 0.406405534953713 0.44603369086829636 0.5266236339072221
P 2.187520394778811 8.391828159167192 1.4206090394115756 1.7247769903401584 1.3206170568875126 -0.23326719096240472
P 6.249831378779105 7.776905413345126 5.910841091116603 0.8299335885203255 -1.464799122855787 -1.040578156987208
P 4.696065767274662 0.9849200965957943 12.735444404301393 -0.18963145655032504 -0.09766001114733504 -0.5645070392165569
P 4.156180749479412 6.241917385208788 8.075799343675449 -0.0501496242711975 -0.8714414779561251 0.7146738620133563
P 4.728529477138223 0.999867742708538 3.778000764986649 1.2696577922308263 0.19101650982330973 0.30072882414948854
P 0.09102816985197752 5.714057644340911 3.5090429674449632 0.16817020135275554 -0.4335985504287371 0.14705424530974676
Ni 1.6752889760761707 1.146748559155801 2.509629916339491 -1.5569145500358088 -0.7541104707424238 0.7357952173730037
Ni 1.7731248140211469 6.243269661633073 4.956218339401301 0.021568727309711242 1.0266648893402253 -0.5202226154768846
Ni 6.095009341719424 5.577132849621444 9.211085318107271 -0.9041927042452169 0.9839133573053118 -0.024457361711415944
Ni 8.761244666376127 2.328892273041232 10.31971238805119 -0.5025336828375538 0.5306939473218537 -0.6383234109770749
Ni 2.450923875732155 5.1670209901541355 7.166698391214732 -0.5932386028232944 -0.0897412705208906 -0.315197964299941
Ni 0.37403239841290636 9.204555365843689 9.133618030357091 -0.13579744144900485 -0.27159102624326775 0.4637069397783433
Ni 1.4897003814438128 1.0400457811670176 11.411337077771908 0.26436571213942217 0.32675635856150176 -0.3429270547840933
Ni 4.0193194845248446 6.791667667924836 1.501052242863254 0.09800479608126346 0.9599013106614308 -0.20140556636711765
Ni 5.7864634249647535 7.974900463494255 8.047479589619465 -1.6844852326996476 -0.11096804111015082 0.38196000031683897
Ni 5.291394118465634 2.7509749553517158 5.0888775641918125 0.015660589355392385 0.012351836697133566 -1.179375304494485
Ni 0.7421755876196443 7.587650243710007 7.019188630094965 0.17760332174119736 -0.22227263962411398 -0.220571083551975
Ni 5.310843302205531 4.600979860581758 7.059104381381217 -0.7209635516768099 -0.4207690027642367 0.6847163964193175
Ni 7.988014822105618 7.2343339940627045 8.835039026147056 0.31524887214253444 1.1173276432341208 1.868751311173001
Ni 4.632191126508731 0.43663190604050134 10.540279563669053 -0.13634585775330713 -0.976601397024931 -0.22177358850050838
Ni 8.193987395589962 7.043254612606904 4.9690105113478165 -0.06448712393979215 0.2816383831769408 -0.8902668381927442
Ni 7.383910287677839 6.044675616557752 6.941787594813895 -0.9459785299327514 0.17544976573330429 -0.6558557634338834
Ni 2.0608783462923363 5.415749095415733 2.4946332615509674 0.09592863027852512 -0.1668399125771062 -0.27057852581835334
Ni 2.2437805394375223 5.468551405727781 11.35955941181088 -0.3429751344132093 -1.6274010860921457 0.4044183293203551
Ni 1.50427592464786 3.4319232782655904 3.770974372988783 -1.0665776663747633 -0.0750327606661224 0.8421337301309431
Ni 3.5491538458662637 2.531488693305212 2.7545326221860784 1.1984770583209425 0.7075881588111685 -0.5778135265174759
Ni 1.1081950675426044 3.3329802072752255 8.300098439197113 -0.4507159268353141 0.5409431358536878 0.0025384501511375637
Ni 3.8628365978970813 2.623180295416353 7.134685742681957 -0.8148399274119967 0.8685245614196462 -0.5577535225428072
Ni 4.155844949293516 6.8384528019328465 5.914002150704379 -0.5088812223221365 1.2904950406911515 0.17042608726646777
Ni 1.0496750783896167 7.54818010834612 11.3336710326144 -0.48706541199862563 0.2542437932140718 0.09854087109039159
P 0.14382957259595502 5.698592684428274 8.138694718493861 0.6965295870041617 -1.781780661418712 -0.9958268209134462
P 8.393407327608976 1.7418409426485744 8.022931688462362 0.3514260933940399 0.3041077679240505 0.6914814830572931
P 1.8163069027912953 3.2549838073402415 10.45152212912819 -0.4477961820853578 0.7138665356207125 0.5482890346957977
P 3.769983308656353 6.078536981249098 3.5692555710484832 0.953187388976365 0.067000120169633 1.0650131501011209
P 6.876670493360146 3.9592021755686733 10.354435034840957 0.9866294706848945 -0.5889314908075083 0.665440321798525
P 6.280470876821985 7.596290291736317 10.223077262662812 -0.43393896448729136 1.246761347248627 0.541979547538002
P 2.44562367820341 8.530241365521444 5.835698085193668 -0.24435250224228885 -0.09310813011059449 0.02983071020818733
P 6.922466378171867 3.9130977176131556 1.4862416395290787 0.6508732226176275 0.9910669376309578 -0.10540365964849589
Ni 5.19814149927411 2.79446561726566 0.6523317940990043 -0.8805287849693739 0.40815542776528413 -1.4936947228442146
Ni 1.4994567381962105 1.1728865195715275 7.24520212170084 0.36986887348025976 -0.14283712190460562 -1.2122897958343186
Ni 6.8848476816707604 0.6302098223929858 9.51885707929824 -0.5754113448338865 0.875760417046453 -1.4519993999879577
Ni 2.962111591154306 1.801232197148753 9.308186025915555 -0.9795864477951839 -1.1865489394247888 -0.3247606682877117
Ni 6.38020353203324 2.078367183001053 2.4499092146299057 0.5340523222711254 -1.1009232337341686 2.4189815287555696
Ni 3.782135645113526 6.994935688560609 10.229506474870623 1.8134209140318127 0.24447642941466283 0.2956856052986262
Ni 8.108848434944154 7.202505581848137 0.48592011278554564 -0.34102803798916753 0.10255179202199757 -0.10645524084146182
Ni 7.71543582796467 3.9805935549783493 8.120443524606353 0.2526232268915133 -1.0340514116122839 0.508464189389376
Ni 3.2495747016430983 8.323960218893303 12.349794227024539 -0.6157545245376235 0.2851865055395153 0.5983959786545178
Ni -0.013340343060790414 4.933957509780574 10.387044863163785 0.08576737347480713 -0.521990763120901 -1.2550423563104967
Ni 8.584867887654173 2.226146491837607 5.8069662952339085 -0.034734061047075666 0.6969445630543931 0.1716378481863818
Ni 3.6734725200935627 2.673060236543031 11.524921944435429 -0.17889093020436933 0.18671993933048486 0.5001458993316676
Ni 1.142737108286443 3.2757035863781248 12.743175069121573 0.7598674278308591 0.3340786032545279 -0.9896250629781086
Ni 3.2462530025069327 8.238040749707302 7.950870783705117 -0.046788678218764576 1.0570411876392376 -0.08507626094505348
Ni 5.7749282347951745 7.970280942018004 3.5248101475249083 -1.0169512615968874 0.26136703452241444 1.1836088829598583
Ni 3.338852172688064 8.29933789715446 3.7103098004864075 -1.0285947593730866 -0.3005524464726243 -0.03173641187133244
Ni 3.4398191204745077 4.444070416961099 9.37837371017634 -0.1916991377126311 0.4214004657006485 -0.0934994520117422
Ni 7.193575112039431 6.1620060166461235 11.487835082823338 0.325423241572375 -0.9248083236130396 0.36886845724020345
Ni 0.507288802993472 9.15291474266123 0.15492731495579892 0.105653827986089 -0.24898048793260344 0.06713278909275536
Ni 4.599927081620569 0.361733943496465 1.6315986491868277 -0.6415421750246886 -0.8275632885159361 0.019449366973863277
Ni 5.879461925096681 5.527407195066664 0.40037637678052074 0.5963974601672503 0.29787130009603535 0.5755697247886217
Ni 8.026795205736313 8.6396033179553 11.22193306697331 -0.008470756475172508 0.33524948363417745 1.4626370822074617
Ni 9.20246795928271 4.646013388214687 5.929609598804006 0.32620485693340595 -0.0032647867942008292 -0.06181163399015806
Ni 8.099364348612752 9.24448836092327 2.165928442825667 -0.02164200374980789 -0.8266045241470925 1.2271060349115446
P 8.760473233516636 1.540034106605486 3.6937993221571404 0.12952472106641563 0.5987394780368657 -0.7334650265779303
P 1.8612859763400245 3.170561825469725 1.5495091172561868 -0.8314729079829873 1.3346143996078692 -0.012221224656540242
P 4.763661437127555 1.0702496465363016 8.253833341693207 0.40978293606637817 -1.556900666078738 0.4851890209115193
P 8.4006769478496 1.615425786179597 12.381036350265893 0.22110767278173532 -1.1726058469811353 0.2950600558994854
P 6.223439299303781 7.704018621644189 1.510602581663764 0.7111205974444592 0.07617690157289461 -1.5264842585704097
P 2.017596425034489 3.2348176448250525 6.105851149883532 -0.7385964342672248 -0.2199560756757954 -0.36352647620199974
P 7.00064429172085 4.030482571785727 5.85657850377994 0.7892232552851569 -0.7654179253354431 -0.43054665097629075
P 2.287852044916261 8.655839710727431 9.952366951177973 0.9856892182588121 0.40820119340155514 0.2426041520926144
