# total energy = -340894.86745983973 ev
CRYSTAL
PRIMVEC
9.04637432741502 0.00000000000000 0.00000000000000
0.00000000000000 9.04637432741502 0.00000000000000
0.00000000000000 0.00000000000000 13.24028324970700
PRIMCOORD
 96 1
Ni 6.242703909679434 1.9245256764383198 11.49890793501621 0.2500243558160855 0.6894587962003094 -0.27883485228987465
Ni 4.629156397447393 0.38074923091727864 6.104498830384432 -0.10654702922431973 -0.7846268941637261 -0.048308971518032935
Ni 2.7974374753316296 1.4821941568598291 4.831843128378592 0.07303527062011939 0.4027977629977967 -0.07319467901611909
Ni 3.575498039302237 4.479022768951716 5.073716039025069 -0.23693152718786936 0.11970773497599384 -0.4478206075653901
Ni 4.9917531736201886 4.60975192449468 2.934417675541412 0.9761126303139706 -0.9248808287221878 -1.0695676022410225
Ni 7.317639340265048 6.240849402940364 2.7984398136081614 0.08642249056030277 -0.6461107682319776 -0.5235665922484531
Ni 5.020520644011625 4.863792208624326 11.209846421916009 0.11893768957918872 -0.9574579913272607 0.1516614050644549
Ni 5.572774658158141 7.984067644917948 12.4504345361723 -0.5290409850994631 -0.8708066725856035 -0.6366593930110906
Ni 1.7477052436487015 6.622470704343722 0.302300881942296 0.3919237963977702 -0.7181955020133696 -0.12659674878634325
Ni 2.624398427014848 1.9014483755048133 0.22523300969112864 0.19454123514711658 -1.7033964677818536 0.046960685020254606
Ni 0.7636867797866604 -0.0025926908849639107 4.654820056803827 -0.16769274749570473 -0.6420044593730879 -0.21978586864651825
Ni 8.674468841563712 2.333901254307377 1.3945990187927773 -0.2557795131323079 0.7403542974985959 0.6261114422919152
Ni 6.821916119350001 0.7508011241811386 4.717380258530861 0.5018623678021421 0.34367678846592425 0.4536454417772832
Ni 0.7799168799845453 7.452394132387944 2.6800716239591775 -0.28469362506349677 -0.16628146897047494 -0.5176054895690119
Ni 7.803827682628971 3.6786447994919036 3.856986832444994 -0.4347848574273544 0.5513915848805214 -0.14782789025097767
Ni 7.468659513445743 3.7455065522161477 12.58998662060607 -0.03230308300807985 0.6636559762045925 0.1639170825033564
Ni 8.195879453642808 8.76889489689258 6.815634317010438 -0.8580642853182707 0.18634455826893712 0.23600155917443225
Ni 6.7250656356988365 0.6656539350096599 0.4108021911019912 -0.12830344706480484 0.4619310788248432 0.21573740960875748
Ni 1.8186378648245634 6.459925450257779 9.220228463573747 0.273357117004755 0.0945255792834114 0.21191726453171889
Ni -0.06512575348898707 5.1034849430556015 1.421119369798919 0.1911160115156515 -0.8887763696901467 -0.09603147440497654
Ni 6.347777547602867 1.8503182677524894 6.957172985248598 0.4238239875404765 0.5986433187786334 0.25880081645713493
Ni 3.467701442703389 4.149906624199894 0.45906188427720745 -0.27551761499118355 1.5054053264129235 -0.007651603007986822
Ni 6.108699966626502 5.745777520977576 4.9621009678186025 -0.2535956181071116 -0.6830189541122366 -1.0603941632718705
Ni 5.401961017928245 3.057575015764366 9.160170488988308 0.2701506942523154 -0.9359846519448332 0.4001739522217044
P 0.032113724258664995 5.558589943197837 12.419928352633306 0.43011521986582696 0.6064137067526718 -0.06214124941543491
P 3.9543240110354847 6.059424365613249 12.657049202840595 -0.8347670053532269 0.6675573681415278 -0.658727942775356
P 2.426490895645848 8.419153018652558 1.3278150648878313 -1.0549241412962347 0.41188712689357454 0.01169132029499922
P 6.381837146981406 7.818663736541535 5.769479926377764 0.17943600407456195 -0.06505353796622344 0.340249250841614
P 4.655282326532444 0.9642711333219582 12.586901806957178 -0.09592400229283479 1.050777980338345 -0.21801232168586326
P 4.070443272024308 6.001373781493174 8.233337775859733 -1.1102465680176234 0.895243208361413 -0.015252555283696314
P 4.659099896502629 0.9891758018715242 3.7075307773871526 0.707914946022968 0.11022550651717147 0.03587665929195112
P 0.30397627046949527 5.565673254303651 3.8132150455783282 -0.6201752793131383 0.07104677943518087 -1.393678295649561
Ni 1.5707943471157138 1.3014385512336466 2.541843024090899 -0.5038927679686096 -1.1207376973569343 -0.14388150400871993
Ni 1.9982083954126082 6.527782304159084 4.896018107924768 0.0743925559789622 -0.27921563266806104 -0.4019480134029917
Ni 5.995647426537897 5.595037785401325 9.032825582084788 0.6122832781595713 0.6011187769023195 0.8416876437324601
Ni 8.531617544409263 2.3121356776527255 10.126631749537236 0.036032468143525044 0.1510134870678109 0.5741661595728756
Ni 2.281938880116056 5.079104964217577 7.160305702434608 0.9118921297720037 0.7765137781382885 0.4307579956561484
Ni 0.6576849838562588 9.119378577828227 9.025265527051417 -1.176164253756355 -0.015915385678675818 -0.17643038447901874
Ni 1.2003634107671366 1.0524461439840072 11.43286578380689 0.23573622132818756 0.6216186966278843 -0.4156949306754389
Ni 4.013713458557425 6.638428508674065 1.514688733478079 0.5574928126822528 1.244343996056386 0.41719208404625574
Ni 5.727368149201925 7.790981831070531 7.8734666722746525 0.0825465525446643 0.7040891445189745 0.9052447996588151
Ni 5.182685950375418 2.8079945941828264 4.902003189186082 0.30966829273096347 -0.33811549232806287 -0.20919935137992357
Ni 1.0346338329145934 7.290400707136554 6.980158013163868 -0.1352096872663349 0.8733901170420636 0.21404048152230878
Ni 4.912154125829549 4.217329252133028 7.178907761983636 0.9291444890945482 1.5986677227131953 -0.947141182782285
Ni 8.32802888995667 7.236113414740641 8.951477870134822 -1.0386022642077597 -0.21275492994166587 0.7247135056375454
Ni 4.609715738997332 0.06839692244922066 10.374781034698675 -0.028581411182118516 1.5236501315557243 0.20518431668325954
Ni 8.364105830812344 7.184766194004231 4.975817985225689 -0.24746970771503188 -0.4344611555393485 -0.2935161084511332
Ni 7.228831083399413 6.002993082499484 7.0364029409662905 0.543137058181213 -0.43046077613070377 -0.34861510630780607
Ni 2.2489738920322857 5.4236813627112115 2.579882123540253 0.05542707062005293 -0.7283860693931262 0.00700857010734922
Ni 2.456461533824094 5.052653365656397 11.320508005267362 -0.6502648996096672 0.30592682341066024 0.6795991297974102
Ni 1.3575441648712816 3.539240170959825 3.86174070215905 -0.2864098364236551 -0.6878215177072026 -0.32336841592587534
Ni 3.5105722106860964 2.64421903318706 2.6618395611205306 0.9808138924443819 0.719464084313148 0.21858233525672033
Ni 1.1702661233481733 3.0806342239491986 8.244922562835603 -0.13925557520093435 0.224386086422691 0.20896872342635625
Ni 3.5101651238409346 2.495406175344574 7.249677548421433 -0.2938390390081907 -0.5502392164436329 -0.6444241245581741
Ni 4.221128729354538 6.79490364557993 6.061851507847846 -0.21867360941894598 0.47296188271770806 0.5426819729216653
Ni 0.7089471686739018 7.50655477554314 11.465344076951334 -0.4289479390306032 -0.564287467006583 -0.5589742823237858
P 0.1554420409565872 5.5533520924567545 7.866648419936908 0.5035420694974102 -0.8456139753700597 1.3485412941016066
P 8.340413376423927 1.5875482323877068 7.884310561192329 0.862437731795618 0.22064050333732968 0.8164885187590133
P 1.7388669359215216 3.020964338822814 10.582336524298011 0.4506012556343207 0.3293410885695425 -1.2282560893555878
P 4.070470411147319 6.2622440782472015 3.8660169233081163 -0.2915188755154463 0.5302589166669642 -0.3190173380460312
P 6.846151356198634 4.040038407877889 10.357502459715139 1.6459492814079784 -0.32270789952374096 0.8272442146136204
P 6.480225514269848 7.822870300608207 10.176839127107195 -0.46438725367481964 -0.1047868520001034 -0.4964167713065386
P 2.5314831162002482 8.449612161045 5.824665523745333 0.7823131584288849 0.48258012253376237 0.6022459485282272
P 6.90526036611613 4.080774231517081 1.6262377661518856 -0.293797644247294 -0.028827465754653583 0.39133064289846153
Ni 5.220563119724139 2.700333693199032 0.7479677997388123 0.15581347955961553 0.44791085328635116 -1.2865964769676939
Ni 1.3443816902110495 1.0145599282609477 6.796767198693337 0.8689835033339357 -0.3874588186478811 1.2166560432228142
Ni 6.639486934471487 0.9426502986566974 9.317359384829356 1.1637106013740346 -1.1782741010105062 -0.49247912681502926
Ni 2.6481361132749504 1.2893978269911939 9.092446616789754 0.09616182933525375 1.0873930604582176 1.779515262423303
Ni 6.433012486605414 2.0226064669993065 2.5413925146489205 0.09215322239649291 -0.3088974760032099 1.2897316801625658
Ni 4.046913652373956 6.9382253541999 10.436017751860215 -0.32390166272152604 -1.4379714611399816 -0.23487284488662774
Ni 8.165185105517608 7.408673005217565 0.3065363944068462 -0.7086888480745149 -1.5706676379558433 -0.13394933249667254
Ni 7.866618566901597 3.762513735969575 8.245969228346386 -1.1282460899188376 0.23393413512244227 -0.9894520277353539
Ni 3.0004833473240056 8.5688614675544 12.293311678863912 0.18079148966119188 -0.43832372381854834 0.8965467576641849
Ni 9.145160744688475 4.834988552735544 10.106930555506272 -0.0008770032883146185 -0.05763359135306848 0.6483903082947736
Ni 8.824530099064694 2.2825178480736192 5.683749246061553 -0.974487950226354 0.4950168056352185 0.009811329663466975
Ni 3.820772386699399 2.7496997579556544 11.496220257200706 -0.36665962251434275 -0.21510209001760372 -0.5664348523668891
Ni 0.9178541865991744 3.536471980412725 12.6517787851519 -0.062357993411931316 -0.152213420913183 -0.174677406343654
Ni 3.2688711811520217 8.271633792340253 8.075076884659758 0.0277242053881458 -0.7128038986841531 -0.25164852168306984
Ni 5.796871443232552 8.012500399458917 3.594763198090162 -1.4916252419096958 -0.4707440491307828 -0.6811903855439301
Ni 2.943219797771244 8.29907144570416 3.43327184661447 1.4705823051964673 0.2683452656124604 0.4605282849400456
Ni 3.4226233593824706 4.146966552540392 9.281531219267949 -1.3308603318820758 0.37424180573697485 -0.07106040628193568
Ni 7.238709724175339 6.163855710958759 11.383955656316848 0.21617398292554382 -0.34013098009619486 -0.2748193033725783
Ni 0.5726644439254971 0.06077082888318934 0.2849227968410549 1.0512569768572928 0.49407321077502653 0.8719657258907111
Ni 4.359248772730773 0.4277587151591313 1.4958207105235457 0.2975442557739198 -0.7431326315746815 0.4016037426896955
Ni 5.95050601859662 5.73442432118473 0.24921947124549645 0.7393037447468944 -0.6282449436951503 0.8872702174582655
Ni 7.809753057819659 9.033872247595571 11.458975429418135 0.5641967070649896 -0.7924834140936675 -0.6363439186532008
Ni 9.392126764086642 4.699446726045332 5.8093201589576005 -1.6089359374084227 0.5393853044482646 0.3905132892034887
Ni 7.97422518963937 8.885909748940758 2.3269663037406874 -0.21299352831503318 -0.03139368381993303 0.5290396995478824
P 8.653372696609992 1.4328009529801957 3.601396904391432 -0.7592732458902859 1.7069795571474213 -0.26869005054638884
P 1.7133290211683705 3.3577699017610247 1.5232945493847996 -0.2704921367521342 0.7142239189601312 0.8300788558489383
P 4.702676281683616 1.0616010748129794 8.399146057169006 0.16136886216020596 -0.4857636624680666 -1.118265838777674
P 8.393198970679908 1.6832679192467546 12.615513679710016 0.019606718487333974 0.5846189794750836 -1.159236624763081
P 6.249986241020663 7.713445356628711 1.3314562305584452 -0.028552100606079857 -0.2732776699170713 0.8515982179779529
P 1.963207973103029 3.2892074306614383 6.008122376748523 -0.4627803141990159 -1.6363289847093947 -0.5016055145963297
P 6.786029152355402 3.9025606570795754 6.11001983264226 0.8409610499790808 0.1702610224435132 -0.9416768172336042
P 2.281169938297417 8.412938159483089 10.242338495856297 0.6185215457597993 -0.15562141815346747 -0.2801301740625305
