# total energy = -340890.9674249826 ev
CRYSTAL
PRIMVEC
9.06286706296161 0.00000000000000 0.00000000000000

0.00000000000000 9.06286706296161 0.00000000000000

0.00000000000000 0.00000000000000 13.26442203528699

PRIMCOORD
 96 1
Ni 6.569717749777641 1.7821675211303882 11.424740118464374 -0.6633687839814769 1.6570412775560817 0.2786754438938749
Ni 4.634677784667352 0.5041337698932357 6.053285669089958 0.2080647235548481 -0.7170675590565134 -0.1578575065728378
Ni 2.700408163269318 1.5660543898080805 4.704452799263111 0.22799900058492992 -0.10729342047204102 0.5946748210491888
Ni 3.2474881419773243 4.148618090837024 4.658571127761295 1.1505136430677865 0.4873083812473672 0.6510758255467368
Ni 5.041228944525921 4.5884662247993475 2.736861734019872 -0.18455841290279185 -0.7596563402613176 -1.2347771783035573
Ni 7.084370789633378 5.932235670719889 2.7226556896791982 1.2067390412194186 0.26684271292500494 -0.4882136666704559
Ni 5.006481911669688 4.169390182466259 11.506807099847537 1.5078900405079902 2.182839844458847 0.27466863672732694
Ni 5.71298678734535 7.712345920995201 12.479884432571549 -1.249978568634344 0.3220345276058002 -0.6282164044500601
Ni 1.9950542717284347 6.441804442074753 0.4947736406459959 -0.20799736065202243 -0.7516846349097506 -1.6927952952272394
Ni 2.6594621292462453 1.4364735145398444 0.4449695602187288 0.5180186658470304 0.483753059795941 0.08282628856861218
Ni 0.6900639282827324 9.212223254487107 4.442082793736783 -0.24246454119095665 -0.9027449160550969 1.7159532214009416
Ni 8.820906774396752 2.2309153906860404 1.3184731709835784 -0.5528668838744673 0.7322506945548551 0.5884861757399736
Ni 6.73635668903887 0.5071372040843038 4.619347944793509 0.39094497742426865 2.146897107815651 0.9621808507242268
Ni 0.3727693223594527 7.517874916553613 2.2924241641059586 0.6071832379288445 -0.24015363366959286 -0.17054667200473209
Ni 7.576982936451462 3.70165560612036 4.00105376817791 0.42915491283508667 0.06215256226934457 -0.23119873846915023
Ni 7.566143747276696 4.055660261936038 12.712728523037283 1.055820427858259 -1.6115319802703731 0.32679286822639203
Ni 8.084195362333551 8.972854805921948 6.655715296666736 0.10077773084071032 0.23108535281973752 0.41127983232687876
Ni 6.8543008428184775 0.6567152958359197 0.24007444592027194 0.5370630840729912 0.37040263449654276 0.3779585924669297
Ni 1.878913628522221 6.529387990724371 9.2510984233543 0.46885480252786993 1.036479561437802 0.5223610019761262
Ni 0.12518991610839136 4.779765225719891 1.380985203802867 0.274690748214514 0.5895264440790299 0.6240090512369317
Ni 6.537191119386138 2.024617344544562 7.082378771422162 0.28082694301923894 -0.7005158253454193 0.44199320225033556
Ni 3.68813380825351 4.5710564569024195 0.6490626107697217 -0.050706010995299776 -0.698365611771636 -0.6923749414058399
Ni 5.73696713396444 5.3071153425270055 4.789132605260893 0.7063411737779449 1.1023165145372693 1.588176593373884
Ni 5.292188800243694 3.1805226162144904 9.332847298098637 -0.1472751030713012 -2.070857760261885 -0.4363537445763711
P 0.2140522353203498 5.71642161401528 12.597950935058396 -0.5160576854659177 -1.3514839216696983 -0.15378950715105127
P 4.116145837648739 5.999853722921338 12.322449741241668 0.7617862421201267 0.9021188524353239 1.906793096437071
P 2.3780419768592496 8.144535932171005 1.5873929106375013 0.3083236057776109 2.3212806370679697 -0.12230249228636357
P 6.396027899832492 7.668019437505416 5.832180710512248 -0.039529682663506115 -0.040714189889910525 0.2636062082655783
P 4.697864094806543 1.0092590174584775 12.56678010960046 0.6944837602187265 -0.7739902403854864 0.24291319869260097
P 4.0594304146924785 6.316374359985483 8.08364434000761 -0.23353175747770102 -1.1988789217450515 0.4074216349230532
P 4.680436201175209 1.134707225282154 3.816041678236076 0.16487276154840638 -0.7852717268365766 0.3410632621024771
P 0.1605369107734616 5.756062595161123 3.449346289476062 -0.1338086931537502 -1.3838003744142169 0.6266300337995466
Ni 1.5499859262571936 1.0515101043587793 2.5285036981631563 0.5078926331566221 -0.17356566133671397 -0.5969237649843655
Ni 1.5615773334098075 6.700150534562957 4.809984450121513 0.5722846262794467 0.0870945769266629 0.08588255889643273
Ni 5.823889093308241 5.408963844154117 9.00869119541598 0.31549209850159216 1.7392990952157337 0.6524829903069085
Ni 8.670164104209553 2.2514609106352004 10.26459342494345 0.8435378095673214 0.7472235138146035 0.4067312937242479
Ni 2.1116661840292035 5.424144146719112 6.972019331204731 0.2008296392589896 -0.5573624577519756 -0.013825593029182641
Ni 0.5977341560789131 9.114072402678811 9.110986496396198 0.8895513001829582 0.0007121955756761928 0.49638566095828707
Ni 1.5442763199193148 0.9000967819985598 11.651628092604307 -0.03284995665048535 1.4635979034588342 -1.4681952930215296
Ni 4.4022605552468805 7.017985287371535 1.713644088495362 -0.14095378883896373 -0.2592571872682632 -0.5402713065976438
Ni 5.777641281971423 7.92912970449053 7.920464697157758 0.2949191594462469 0.08131242302724706 0.6548643460548915
Ni 5.457123920470764 2.8564435479030585 5.1324557657911365 -1.146250496916058 -0.4896578553161503 -1.3984883154436947
Ni 0.6230684950581288 7.303529044335887 7.201878113213801 0.38603931259253516 1.6461380003800166 -1.0650108361082755
Ni 4.669606074867645 4.246487993762027 6.946962315961926 1.3154144296406507 2.2294539447729607 0.26602073124434183
Ni 8.52004677185936 7.120794452922163 9.426109639337643 -1.4307474325877163 0.04589470564958548 0.6707002846458836
Ni 4.8263574260104205 0.3894377477191771 10.261834688166863 -1.1715442384858406 -1.0149589137572068 1.2646487690520092
Ni 8.12215065017964 7.462854249764311 4.462629219972664 0.5255975066355529 -0.6153495757897208 0.6365897161154198
Ni 7.418246817391234 6.138533716861368 7.1788375859236595 -0.5334293439751459 -0.08095323991561543 -0.31919397283321155
Ni 2.415045663649025 5.45486726653722 2.511896900300412 -1.3869168085560115 -0.5877729517230329 0.874690581021042
Ni 2.325531724285172 5.219241782126892 11.424434699839633 -0.4122864192145222 0.5197963265727436 0.5799416286040722
Ni 1.2296588849677959 3.4786184442549732 3.659733501299526 -1.4203120961870057 -0.1426646008824833 -0.31920811390059867
Ni 3.5896838818275176 2.6018766710384984 2.557871013047699 0.8815492558140882 0.181847441729532 0.39968878505516975
Ni 1.2253993373823944 3.37226569762798 8.20627399613116 -0.5922073333453027 0.04459912676661351 0.6521135227826318
Ni 3.460202698098514 2.4440015243625526 7.060346941251713 -0.2694197296235618 -0.37279967397380953 -0.7738336602029641
Ni 3.888305356165773 6.7749373147219645 5.980967613957044 0.60726191368558 0.8550815485408629 -0.9995441218640333
Ni 0.8224742306917395 7.491103206836005 11.702072011456105 0.17715903511492714 0.18440697492659208 -0.7300423740496266
P 0.2284368181449228 5.520962757048568 8.248772499306103 0.03867453375206242 -1.1181966761026356 -0.46090212333969655
P 8.533840455742299 1.6086951799981106 8.146583233872159 0.37587599890628814 0.5524411091909582 -1.2673808232711914
P 1.690913511263563 3.411091020725555 10.53171237288414 1.2471053608516072 -2.2715855838356878 -0.8255056346559589
P 3.8975404178456117 6.105028296811944 3.813282941459488 1.0186139940112908 0.22176793207355355 0.8651520454029874
P 6.955669012483831 4.036528549270543 10.523621045045317 -0.08124557434505363 -1.3492097809235408 -0.8346086253984917
P 6.455525623020068 7.5638780304759505 10.160640525551807 -0.9069106173970123 0.5350514529596011 -0.6614330004113447
P 2.292787585080798 8.463258845965475 6.022869780470031 -0.37967737493024933 0.6950753710561384 -0.9162689186834606
P 7.153919232549061 3.9939874506197457 1.7356496363509224 -1.525403109691089 -0.32744052911272 -0.8480840341771073
Ni 5.41335027188036 2.825076964513538 0.383705484213291 0.03784046788654128 0.16507613580846411 0.19741290026795677
Ni 1.381353156211308 1.2784171105198388 6.9203809264555805 0.6732878428674017 -1.8815512911511467 0.5846148657100254
Ni 6.921003545432424 0.7526022434169095 9.296635705902402 0.24420106426608912 -0.6189465491123599 -1.0512212385233508
Ni 2.8341942089197376 1.6879318279537818 9.12020524491507 -0.2368695636016824 -0.4596247992891697 1.8215018912677339
Ni 6.239675314846647 2.216079477074759 2.6284779988526905 0.5101989126922954 -0.2646477621562152 0.1872732407307936
Ni 4.018919398295149 6.980184068267897 10.399731650380556 0.9621060316222332 0.07961060984479192 -0.6856422506676965
Ni 7.899330997127125 7.304544085462621 0.18424265251630156 0.9372372934050118 -0.3039882116270507 0.27152186356822916
Ni 7.810668967280352 3.8526520365892423 8.239301803078986 -0.08729126631850127 -0.16430403352912992 0.6968905698880062
Ni 3.210158191968242 8.343157729791558 12.648820808668734 0.4814403525023644 -0.4207515192627399 -0.2744143546246758
Ni 9.052499282901753 4.767294720448588 10.400221951496235 0.22446244818658118 0.2250764276214962 0.2303399900132807
Ni 8.821151471811232 2.3479170062765378 5.817682841847637 -1.1576201722055806 1.070378271067776 -0.7420684519762252
Ni 3.609794384150934 2.57957295485196 11.664083191001366 -2.2567271786666168 -0.8039582475024863 -0.7560917628385108
Ni 1.0424019228197825 3.3510223369041903 12.853437692944059 0.3331193246650521 0.13430234496071708 -2.1503153894685805
Ni 3.4287454860369637 8.385735079911168 7.901775252411769 -1.4243227600082953 0.7960965853662225 1.2323138043647293
Ni 5.865360773629086 7.716850165995083 3.694221336153753 -2.2132863338741626 -0.5978797011397317 -0.5156676491163505
Ni 3.2038594992621694 8.138391308207384 3.587641111559965 0.013223440668809486 1.4169663196432243 0.9671129979185216
Ni 3.2464187236473725 4.553166357043733 9.090585982322285 0.4538516442508184 -0.9565164533495978 0.43308535823774447
Ni 7.201073330606176 5.975003341050761 11.465249322288264 -0.16236002242888167 0.9021162813321625 -0.41107902916998235
Ni 0.5885897230711042 -0.0045404964686939645 0.3541070662150722 -0.0461520730760302 -0.7902406408060778 0.8430012203375611
Ni 4.818771806161525 0.5663485406682662 1.5478652153316956 -0.9192477988061265 -0.9326082792734326 0.34919026208498577
Ni 6.025891340395505 5.5336779597343515 0.4689689388589453 -0.7477750154426993 0.30554115793646736 -0.08985028529492912
Ni 7.833108626474935 8.765034198090369 11.306885687070077 0.8137739480413276 0.03106278284307554 0.5006426364624281
Ni -0.19458519656834455 5.06101318363003 5.564637620386459 0.7145201100443115 -0.2757688117700412 0.11634190382755447
Ni 7.880797433697026 9.260347079334942 2.5076255709876465 0.23830063962125408 -0.41114407807996284 -0.43436756738427773
P 8.677758786925653 1.8129268924173092 3.5828396045158253 -0.25447724938111654 0.7556973556135694 0.8734052865507153
P 1.9837528763263161 3.348176596602454 1.491677251246648 -0.7108213210364854 0.18876499478497166 0.12667233921928506
P 4.911910892406571 1.176786117705599 8.275514301561941 -0.4883417076078879 -0.13749642641798257 -0.5345521447256795
P 8.678710387981965 1.5612329444560942 12.485402812411445 -1.2144366669739926 0.24649191718279484 -0.4375266818385497
P 6.431880602487488 7.994255468211158 1.5451862317864942 -0.906217962205362 -1.1148768677007832 -0.12926118299238382
P 1.7183921246230043 3.513827683338558 6.054133953460157 -0.2046688104994217 -0.9648090323756933 -1.074033608432176
P 6.944748257504238 3.985930561676295 6.236652848634452 -0.06663090975567235 1.0884050466624997 -0.5744032152843462
P 2.3685712806321333 8.417835755544129 10.441368274884494 0.3138337369625628 0.42318918216995505 -1.2591111270632316
