# total energy = -381173.4915839108 ev
CRYSTAL
PRIMVEC
9.21416442594859 0.00000000000000 0.00000000000000
0.00000000000000 9.21416442594859 0.00000000000000
0.00000000000000 0.00000000000000 13.48586101938952
PRIMCOORD
 96 1
Ni 2.8043585346044804 8.167573411306709 0.1500839931101439 -0.2642842081692094 -0.1405951199479643 1.822091188112301
Ni 3.1161382106234843 6.046500441464625 7.093427605775682 -0.6868743233025849 -0.2071730649785142 -0.8927749493265785
Ni 4.693824271641834 3.84083222956413 0.5034849705017704 1.0122314875237148 0.5930984777010043 -0.2605152280450803
Ni 2.33872995795926 4.742456630598842 11.320503779814873 0.37582689083590753 0.5126741137056654 -0.97996260018768
Ni 7.630581132478458 7.304547144351366 7.45611646074 -0.9850307587392069 1.872918555176813 -1.2986770622813117
Ni 6.0799478577234245 5.53241457498331 12.96220524702 0.8385976919532268 0.4629741753773769 -0.2443735852882114
Ni 2.7059144036653597 3.1124617590842942 6.028462793511946 -0.13878994841842549 0.8820375083044163 -0.7395287162735071
Ni 2.382838162265285 7.676734881249898 11.23109229409848 -0.31400240132994306 -0.5476717128267728 -0.15921813436579033
Ni 8.94273340789183 9.584205095248597 3.252843237230109 0.030589442751082798 -2.1915376293431614 1.9764396530906154
Ni 8.214077298319975 6.404452294583585 0.65021408640535 -2.315122073665742 -0.7208933605605069 -1.9632609496168123
Ni 1.511546789969958 4.594375796798523 3.938788009797544 0.6124588845054871 0.5574987262195238 0.0619890401082868
Ni 3.6528724928524934 5.049417298710586 4.793575892489253 0.006140565680099101 0.6551507669470588 0.3996229648142408
Ni 1.0460656399528754 1.8030829471127683 8.076438876873953 0.9110948306816891 -0.8497269690971688 0.44850246412376304
Ni 6.248926416062299 5.288801286149594 2.0733435989824196 -0.6193877504148365 -0.4210001449384363 -1.5454114344922156
Ni 7.487291664092623 3.7183022732529705 12.009765651515412 0.06233922435885392 -0.09083347514380485 1.5878289802264784
Ni 1.741513901536654 8.055648958057224 7.670150439470686 1.0307344314239086 -0.7874255399547858 -2.4434160076488496
Ni 0.6016849260880378 5.765440789083868 6.947672427034239 0.20641458954593483 -0.3681194948893209 -0.37480616288087704
Ni 4.707783730493646 0.31028605999268094 4.367517544252686 0.7414675851674327 1.2250458099484063 -1.0097071784399643
Ni 2.9705820578300273 2.4862671560683207 10.244506848684289 -0.30910624957990634 0.10176014935863764 1.4841150495755795
Ni 3.7812626576321366 4.193006801692934 2.6809348043602346 -0.4580528268163595 -0.33800647755402435 0.5037670410240227
Ni 5.604856334384599 2.4990287735665127 2.7764423811501326 -0.9031431799347801 1.3118449671218375 -0.36780916273775366
Ni 8.193686352815645 2.0384679872635343 2.0803555779832315 -1.08155125696546 1.270185382599522 -1.81664739138891
Ni 4.7180114528207175 4.128139085312233 11.587146029380161 -0.38608430689785767 0.5154506480095381 -0.3067416060024717
Ni 5.2060857335999415 6.413998168755518 5.872944286322067 1.997091267902696 1.3491115647827796 -0.18587867437611214
P 1.8080033108268727 3.9137254830140913 8.21822920073491 -0.420737892415985 0.25795158108296223 -0.567500574627242
Ni 6.35478794922961 2.0553022653640376 0.22429947913121742 0.6234392947763908 1.0077397703009483 0.1442658839313322
P 7.765246143118223 3.9457354896485457 0.8362987406903571 -0.37740966194199516 -0.3219352830237746 -0.9961479516982907
Ni 1.5371160957876349 5.902814764015669 9.356571010072184 1.7340941539760266 0.45259540324621406 -0.5375860464559967
P 4.100210953444349 6.158212968936162 10.632711567313581 0.3474856206890532 -0.15517713152719725 0.9149581702918371
P 7.06374417561653 5.1553801876847425 3.9270288933706903 0.267048658288224 0.9300700862326111 2.2072025895739276
P 1.7313322500308765 6.559683319848596 5.221442059753361 1.3663037602913501 0.333823035600296 0.12890302832201672
Ni 8.767351005393213 3.3880850545524632 7.52947963656715 -0.5160471439429564 1.6021119725080535 0.47150920943158153
Ni 2.352569632675711 0.7335792375352354 12.228115544784837 0.1310486139101098 1.204616595559777 -0.4753190700959749
Ni 7.254440519112977 0.572235535701055 9.207929955084941 0.35506677547042076 1.024304359527849 -1.0571877405194308
Ni 7.747932728476272 1.00837970813511 11.971547141003498 -1.2597207356227722 0.9226347130004884 -0.37190287319115306
Ni 3.510467584235485 5.980978519421562 12.87871386183977 1.01844404409233 0.29275840434950223 -0.4070925337184086
Ni 5.347928578197173 6.210171641190534 8.368907507439735 2.2171686996477042 0.3261992005064511 -0.12843663020855944
Ni 7.365618625057515 5.237155895480016 6.6772136706330265 0.22985019486105573 0.39630752728776264 -1.1011091244927296
Ni 1.856617241455364 5.2579430500474675 1.3731306930605074 0.8831613374962145 1.181996544167416 -0.9231239939320812
Ni 3.7187906239586774 4.824278409215409 9.01741513062439 -0.18610210324082788 -1.8490715733558865 0.6706324075224257
Ni 0.17702620940235558 4.397008398378833 10.653613898934267 -0.7691779065985075 1.7870143990138259 -0.7502296476307789
Ni 1.3421996650607382 0.8885190952096732 1.7295612876603692 0.9981559832672551 -0.7110506634384722 -0.8477739591358561
Ni 2.137234613951707 0.8574000982590281 5.955261786975747 0.13864802352392253 -0.6273723112822098 -0.0634280865476585
Ni 6.854241722868235 5.19619893535044 10.280662307818696 -0.8736287154154309 0.4095011431599012 1.1383487255704783
Ni 6.949626751273493 8.108787043336699 12.466127543165737 0.15364655381528378 -0.3360218430238277 0.5250066671290894
Ni 1.214952056649164 6.429911030430159 12.854884190234122 0.14228639160745818 2.4769236524879927 0.26978688315499344
Ni 3.678073232099825 2.4943479781231326 8.073701348672715 -0.39210917293569886 -0.4807440977662882 -0.3165537069968871
Ni 4.838532721323497 0.39129146365593326 9.522406616982444 -0.004078798055063944 2.186149625558371 -0.8003605028488989
Ni 0.5383338611443059 4.449731846266669 13.149698747020151 -2.0657685186644357 -1.7134181136839135 0.28215748890520437
Ni 8.411969904102406 6.351590634231869 11.70568625256734 -0.6310297055291391 -0.6009130886494167 -0.38831062512521514
Ni 4.983784806696419 4.453030517071256 6.7531798478632385 -1.3905199525262375 -2.0958617385053904 0.44531455331408465
Ni 3.2372123289817814 1.9310861169935496 3.446877872437455 -0.6006132980208108 0.2688180914838209 1.3550857800883436
Ni 5.983116205529562 2.5927183957481845 10.494359969553942 -0.8181584502622683 -1.0905120657031735 -0.5695206903810643
Ni 0.23457880077813645 0.9784244601303289 10.452957965290675 1.2915437936706402 0.5412092450308807 -0.48115290316893267
Ni 6.94998610367958 7.6615315102231705 9.875291601175588 0.15510308375615223 -0.9643215512163135 0.25770501228979487
Ni 8.838640994262173 5.0346009225827215 2.426227661759138 -0.2757086479560671 0.7927976028999766 -1.1330548241613905
P 1.018800927911612 2.794803446268289 11.587146029380161 0.8294067694825781 -1.5688827781412786 -0.23091617423172486
Ni 8.101793492664404 2.7551272549706614 9.920684259979264 0.3052542228236678 -0.4243376939521014 -1.56571415060531
P 1.2821693849158138 2.4446744186048996 4.189571761257319 -0.5687107928852593 -0.6329976278887872 0.4913779233310505
Ni 3.571225783356841 2.043692418398173 1.2237727760939432 0.08288233861752824 -1.3584942915492604 -0.2817180873749406
P 8.056257092898292 8.856682327880556 1.2497631692182392 -1.1824004644740538 -0.22891122798655414 1.5872941907689309
P 4.7578811415677755 2.6580652486703342 5.055862606609492 0.2194940484377123 0.1942303887749171 -0.16161877338748296
P 3.628104819325317 9.154419617569419 2.206866974670542 0.2349263238323825 -0.40692875444703464 -0.3896730526903805
Ni 4.734596948486238 0.4045939525961063 13.35322765707958 0.15302331840898806 -0.6528264896892563 -0.14460784065178323
Ni 6.4890291083134795 4.010077998666505 8.492288852528391 0.13356366702247965 -1.0238217634644755 -0.5897730128721972
Ni 0.28826973591312877 8.385156686109816 5.756089333777792 -0.5526336848177386 -0.16658820157761633 -0.5639210848060998
Ni 8.460804974673106 3.4875058869029987 4.004464729800152 0.04937726488154722 -0.5687269908351754 1.446795744299831
Ni 5.619322572270636 7.470125676078809 0.8744269523925363 -0.6994326195835696 -0.13885808265219957 0.610833175976606
Ni 7.3493924817980805 7.4346695720116305 2.979835842994962 0.7073385046942077 -0.40359326231589854 -0.5667935212578884
Ni 7.081149731901068 1.508865468170699 4.149303099197862 -0.4725926723037474 -0.9062105060061942 1.3449252946155739
Ni 4.987931180612799 8.129454413768789 11.14466159051975 -0.7945706356399993 -1.2915558778554983 1.5858996244142496
Ni 2.73085714631345 6.776907242245617 2.777898219102995 -0.29859249453277603 0.6721097633989006 0.9917570217194467
Ni 6.555168379361871 8.239674246630429 5.0222428854790575 0.9701067904395227 0.3939305424151538 1.0974435027156841
Ni 0.09850955150535715 8.840142903036329 13.16338730944276 1.9757151162197653 -0.6292615578851227 -1.174590481511332
Ni 2.078733885073714 8.887669562282303 3.774018481692008 -0.7354175223186109 0.15784825060145719 -0.26327787839188205
Ni 1.2088338515814387 3.2922393179342744 1.9981191619750271 0.07260435373028787 -2.5103253678768898 0.13085603828332948
Ni 2.3349705789417423 0.18997671726784926 9.66516811375626 -0.46936079563001104 1.0935387683446394 -0.003923246313806147
Ni 3.5091776012392786 7.92865934624489 5.321992548642004 -0.9330016580571092 -1.2120632816458092 1.63052549065374
Ni 5.785656665467286 1.916684378257323 7.602007087696045 0.5677281172570158 -1.5730705909703813 0.5298989622243842
Ni 8.93470787082257 1.7923208032586975 5.70511289143339 0.505185261527788 -0.642370584463255 0.11316941963684382
Ni 8.640435106894948 5.9799281046960795 8.921315083072662 -1.9852611080369877 -1.2381116419934288 0.8735500396586956
Ni 8.98352451306475 6.110151888163188 4.51901775440938 -1.1021568490309535 0.9001329323535466 0.6454980743486431
Ni 9.452350404707712 2.059393354294866 -0.06559655677355819 -0.3484999208861805 -0.08769904327988122 0.20294488582977954
Ni 0.5192835765396042 7.419770268405438 1.7102907845298865 2.204441738999339 1.4838872498354896 1.6935496568947608
Ni 5.460332167988107 8.451590810414483 7.498394732024263 0.008481040887817651 0.8894317438859586 -0.7455127017710839
Ni 6.754968317145837 3.127416347676038 6.018645101494385 0.8613013041983295 -0.5263202437341903 -1.576189339105021
Ni 9.236923244341122 8.262442446513484 8.827426434943003 -1.4847933065895267 0.8955023755600706 1.7157896992398838
Ni 6.230516515873572 9.591668568298083 2.0562430315348426 -0.5564859686842932 -0.6743407096119484 0.009171896307255172
P 4.121587814524353 5.801560312977667 1.386805434236729 0.8682561382496079 1.1284219533750695 0.2589196014231864
Ni 3.572985688730238 7.575646285168552 8.98900049088365 0.5927302957283083 -1.0751458676597483 0.6581934104281245
P 9.145417379088745 8.165537081005553 10.9897355540917 0.04009455402804063 -0.09444073287908897 0.13587560298510792
Ni 4.950346604601879 7.094583983390139 3.5018597119850803 0.591826038746484 0.03956619232839637 -0.34297256331004805
P 4.521832681590389 1.4048467678551113 11.49857118977845 -0.6514314091139426 -0.14948599467969093 0.07876368846346435
P 7.726500582410717 0.2789357875191444 6.680571312088869 -1.070636409825169 -0.6964287997602393 0.4120635045704388
P 3.3510717567255774 0.19493485905541394 7.703582191650246 1.2086478282063573 1.4059134042631722 -0.4877107588921084
Ni 2.625824887929414 3.2137807092721054 13.01803663251227 -0.11164861211694321 -0.4686061768521736 0.2531042802929899
