# total energy = -340887.99641643104 ev
CRYSTAL
PRIMVEC
9.09378454467915 0.00000000000000 0.00000000000000

0.00000000000000 9.09378454467915 0.00000000000000

0.00000000000000 0.00000000000000 13.30967289496778

PRIMCOORD
 96 1
Ni 6.362720868395209 2.0770931029822473 11.021993137091874 0.6293422905243872 -0.1943923682740781 2.442834424113767
Ni 4.655444694850543 0.23254625420064984 5.7616644615725825 0.5798367275950916 -0.12908223421235832 -0.6519890813896255
Ni 3.0642233975810482 1.8946081318010943 4.843589637430667 0.31897054396849583 -0.17621518314441909 -0.4789517817525558
Ni 3.5571974488956593 4.73747062997059 5.008975565839511 0.25723552885254414 -1.8012287428409948 0.20475802777911833
Ni 4.087110452367436 3.058157843398668 2.50642430430377 -1.225159452708135 -1.0184414729891684 -0.746156763112986
Ni 5.349664194525094 5.10206772717326 2.6997736196853577 -1.0105091055159694 -1.450419457095347 -1.6619718820884797
Ni 5.045222481005253 4.506743132646217 11.463394518422803 0.8410788065038676 0.2594978425241595 -0.44624323577594116
Ni 5.992640219210567 7.822700669472627 12.316997139436047 -1.4926745091098164 0.05602562343600029 -0.4296287671477117
Ni 1.8210576037244928 6.62499470373859 0.22142637465909837 1.1790629154603889 -0.1906899797218264 0.2531760140711898
Ni 2.986780729789216 1.578480905351181 0.19267091906673658 0.12878604312817818 1.1852168508769265 0.8507875491511994
Ni 7.904344665648655 9.282480407293654 6.948993509949026 -0.34487517964939957 -2.960176889829379 -1.87979111392693
Ni 9.045278135489738 2.4147180357097433 1.1432560223720858 0.11822446556224801 -0.11612618827232259 1.0435729779494738
Ni 7.334946450392928 0.7882455926642674 4.655351028871414 -0.7027061481285188 -0.20771273953206806 -0.1964759902759842
Ni 0.7942620404109885 7.33100884175579 2.2607939131351906 0.01770101682418887 -0.004405328156547252 0.36213190984731825
Ni 7.629093999993046 4.071478237015843 3.9621563986966453 0.143035868178973 -0.8729887678385869 -1.146714066816038
Ni 7.596556439476468 3.806385328514234 12.576230013282295 0.5213094207831602 0.700579074483187 -0.47232476335434137
Ni 8.300542663576621 7.529107840719773 8.92645147373512 0.7006392382971611 0.5241597457477618 0.01876185398853543
Ni 6.742259053336485 0.6416155945420198 0.13889209699213143 1.5471523284427227 0.6760209255278486 0.14067842369038996
Ni 2.0672354407128313 6.278667019358113 9.422290067129866 -0.7268035553973548 0.9623924525144006 -0.5720424283616535
Ni 0.0516381452312283 4.909215841797333 1.03769355451615 0.3550276947023692 0.2251594742536058 0.3712919790800315
Ni 6.078012666982963 2.5015273014143973 6.355581338277387 2.419541772134414 -2.591290177756731 0.5054187176948328
Ni 4.062011607474827 4.5254035781968085 0.5719681187219064 -2.5812572190007605 0.0984915059096949 0.017495328571286
Ni 5.916852620176146 5.766859740589664 4.709201691842632 1.1789243329999957 1.4719100228689552 2.1101735271423725
Ni 5.315226033072807 2.9260342501215977 9.22110100023309 -0.0888778940793308 -0.8132121620005865 -1.0916924591645196
P 0.3630238725046903 5.798042327233416 12.209787787228644 -0.1142127732996936 -1.3574200846484752 -0.9164625227515054
P 4.226409041521415 6.346797651943412 12.55934012755076 -0.706993205539647 -0.17731715795934624 -0.09187914279949982
P 2.6035504683890993 8.67126897145234 1.3272260085427179 -1.049347932760038 0.0550750865972729 0.8449801984408029
P 6.570150090134487 7.908773338642388 5.614033237789944 0.0015326345944425218 0.48205818859202143 -1.0720394608202828
P 4.930240671287084 0.9155349301641962 12.240945820654568 -0.7217968462113827 -0.14288802974719908 0.9385148745658546
P 4.135980449632972 6.304575211060665 8.305315990998407 0.5511928386061539 -1.177076224047663 0.0959294016094735
P 4.973072395723384 1.1469717426703174 3.5838158651583965 0.03356215222616155 0.9333024771269799 0.6660018507289497
P 0.1832688553948278 5.462327089226011 3.5724622753582436 1.0311499216947726 1.0448333327191361 -0.9494559469583908
Ni 0.9933413493312835 0.07480637969967018 4.349307899922013 -1.0650707428119335 0.21474676356071404 0.4154396201315232
Ni 1.8472567965272488 6.559046579404821 4.61885585339206 0.43197541300301734 0.7429683380826754 0.38504866654449166
Ni 6.531592444357435 6.025859813555749 9.062369903234542 -1.3839104176295198 -1.3302862045461605 -0.4435685171572555
Ni 8.668395335587824 2.607278919985465 10.253345559147919 0.4166740067592566 -0.8337010259825577 0.19643176730161008
Ni 2.46088717901401 5.283325037462926 7.129166841140432 -1.0237862822408497 -0.03277488043817581 0.22743978564735023
Ni 0.68538488814804 0.4174392594859921 9.064020425099763 -0.38913723479156853 -0.26701343417491435 -0.0037918629422644375
Ni 1.4281424619582064 1.106367995407456 11.507595766786938 0.04828583158958136 1.1506023461268506 -1.7781119543178732
Ni 4.213159397677744 7.024566495672047 1.608873242132191 -0.23864388189328575 -0.1477834101662874 -0.38496561991238215
Ni 5.778190595928863 7.9725025795871 7.612294142726885 -0.7171521483505198 0.9693339168292402 1.3447545733656647
Ni 5.346981528132586 3.248636251051054 4.395053272874107 0.14483204084744733 -0.29181455237899423 -0.5460097517433177
Ni 0.6879920761301817 7.6062413198426375 6.626060495268087 0.310521127649562 0.1543363807934568 0.5500088456003818
Ni 5.457207288619294 4.502969212127944 7.361500300786558 -0.4055426727327855 3.7215142173375453 1.0308002516648378
Ni 0.4657754516083413 7.735136619664319 11.09457063023967 2.273817301379684 -2.1236957299985235 -0.22371605693885985
Ni 4.599908953633455 0.4558977830132863 9.930453466496697 0.619306760665256 -0.8191730075697118 0.2684630221372473
Ni 8.463194091021984 7.354097960300114 4.462906545035774 -0.6520937252882898 0.04640635517868137 0.19964770313574648
Ni 7.5148033178878615 6.462325088724464 6.845537162555818 0.6037490154363151 -1.5313220462786852 -0.31805368858118127
Ni 2.403014335210907 5.212893677429138 2.6475871192559324 0.3164128105436486 0.5545249883031805 -1.907429444469489
Ni 2.5999129546365474 5.2706119268977565 11.485302354375985 -0.2824948176399651 -0.24625871812606623 0.23839037112158296
Ni 1.4758029859010189 3.5197492448131364 3.848492278335338 -1.0895617859747622 -0.4502161043807601 0.4067490343360608
Ni 1.9642847077312282 1.482241385243036 2.4872455130434394 -0.3830694313309338 0.6177088200505167 -0.7824358000496783
Ni 1.0956555174061902 3.3280795514067893 8.259769771924265 -0.05405255887002949 0.3742767727399683 -0.9238881257916153
Ni 3.953877417395837 3.0200185117031597 7.080453256966255 -3.322083828150085 -0.16537361244422485 -1.3068215457653172
Ni 3.956250895119377 6.820329192250632 6.2578349780972475 0.7155130700852 1.1748144245966798 -1.5242959926698394
Ni 0.804598035738865 8.945801228141821 -0.05946698420515835 -1.6474307510495112 0.17610231171563864 2.2627900970312447
P 0.45253399217061385 5.753237251586357 7.896774999529596 -0.6331783764410257 0.36544991847695774 0.34280004228792577
P 8.619752682931821 1.7524268129982177 7.847063827208781 1.72458364338243 3.3929115495959246 0.24446768766391444
P 1.9976770839796556 3.2629862428048715 10.289215082261833 -1.6449840892812315 0.25191180264678553 0.7802719596291401
P 3.9895523335239904 6.381763252889818 3.8557718527326332 -0.8264803398644025 1.6749711225616253 -1.1997896064847788
P 6.891688118291322 4.058483219134851 10.083381819681488 0.2593330348115211 0.921262258132994 1.562878738039044
P 6.39956888270856 7.850300305070115 10.095959432859374 0.32044044364580293 1.3951569370776167 0.042606264706300814
P 2.556390102587262 8.545947528892542 5.7430567599714015 -0.36431374798998545 -0.04942457317971488 0.2362527559532899
P 7.0156636807626755 4.015487806579687 1.5910385122034285 0.3850651216047239 -0.23819213906784786 -0.2905948210392802
Ni 5.642456770252386 2.915103521295179 0.245034748291599 -0.3977424599620763 -1.07490932616891 -0.12673687390863336
Ni 1.8195389417328025 1.1580934409687453 6.921588481337299 -0.6118341064372947 0.5474261724748701 -0.4288201552034873
Ni 6.985636004735358 1.0399379005014748 8.962413753449727 -1.3588766145893436 -0.6573030374033713 0.21002313283279958
Ni 2.9906728695044467 1.8926711557278606 8.964304351222616 -0.3291973639028266 -1.7191742994414008 0.16400784244494981
Ni 6.781807921611106 1.8788213221150187 2.4381854556843328 -0.5112273539568098 1.4433540656081336 -0.04380517011040842
Ni 4.22512681792364 7.055785457453324 10.306850658312644 0.32913025811031704 0.36131969835866806 1.127543407424858
Ni 8.171401831576643 7.144304354621677 13.27802190721122 0.26384866329368756 1.102691381378185 1.373055734303203
Ni 7.7209503160293655 3.8328118659265247 8.069960666802348 0.5796662634554985 -0.22479772003881282 -0.7406407183907631
Ni 2.9710575765938096 8.55878795243905 12.549051419901666 2.4625702119797976 -1.362206707403841 -2.289720859983818
Ni -0.09025490060675855 4.948764710071955 9.908026375455337 0.6644671592519783 1.1057299110941925 0.7389407049805209
Ni 8.961433443493414 2.4504293269754225 5.580745440061902 0.047045017203944786 -0.6094614924400601 0.7470273386433973
Ni 3.7107641857440234 2.50635610092091 11.384655076978186 0.16456448627936818 0.3198511468012363 -0.3355616155579576
Ni 1.1422247872232372 3.4495543231732637 12.30489876869506 -0.5775345618244763 0.25767647304470465 0.5457852944373375
Ni 2.911520570248915 8.233930692983012 8.043048521304094 0.4824209712480788 0.4416378757934459 -0.044230430573285115
Ni 5.664691073064859 8.026046782024665 3.5666595315444853 0.20520359995696916 0.18222128012918296 0.1127881250380251
Ni 3.167046817581312 8.795044470667303 3.5110783214054906 1.4023148882786365 -1.1421069070613297 0.14437772691884812
Ni 3.5160844497074404 4.2699591749238435 9.187694073929654 -0.06691501665499444 1.7465424070417082 0.24326903937012298
Ni 7.307401377501728 6.0344716273649155 11.379211537647492 0.14919648846373015 -0.5976089639768482 -0.7252557512942607
Ni 8.14996778178973 -0.01449094541172906 2.441819331923132 0.6890487052460843 -1.2714470229207653 -0.6294870436323674
Ni 4.825589400626162 0.3144085012018328 1.5439618092179004 -0.6210453406229176 0.5787892601671839 -0.17817796329774477
Ni 6.066927343822061 5.616557672334215 0.24262216729521888 1.1381209258303882 0.8007011740177694 0.551347104795831
Ni 7.988198451429361 0.0752328781871569 11.052565530803637 -1.5194995997224605 1.6219338923299873 0.6332534526533353
Ni 0.15401324166149014 4.848323861579613 5.723225944370927 0.18568275631522216 0.6261320111172055 1.0922694147139125
Ni 7.387426680057872 6.13578547915787 2.4649912039053263 1.197150626200035 0.4711916781911627 -0.18832944990944986
P 9.019469975415381 1.8014514045982375 3.3862070211725706 -0.5300863956448418 0.1208045675845984 0.4455282119867875
P 2.0080076230369035 3.521968128202193 1.0832543236453023 0.8774311198806566 -0.3166377820702611 0.8469208671069415
P 4.881397955374692 1.2696014250532273 7.650799044554524 0.5579404417426327 -1.9522494289976573 2.3529918521283215
P 8.447734657573639 1.820266444483313 12.521008007626365 0.2750021088073457 -1.399686449516854 -1.912579364101545
P 6.539558599475525 7.868933469267563 1.4068193563407467 -0.28615401165910714 -0.18949853051688653 -0.3525902889054701
P 2.0720005837286743 3.490794635342822 6.035936636028756 -1.3417240140694568 -1.4403942116488613 -0.2685519823066278
P 6.998340021516146 4.39052456825218 6.0126047134414495 1.225391109102967 0.1869197140461168 -0.9895525578689603
P 2.3340016055406143 8.686282809465999 10.120808198681496 1.0200245012055724 -0.6230495155371398 0.7604538964619484
