# total energy = -340872.94109979266 ev
CRYSTAL
PRIMVEC
9.24670633262193 0.00000000000000 0.00000000000000
0.00000000000000 9.24670633262193 0.00000000000000
0.00000000000000 0.00000000000000 13.53348938919181
PRIMCOORD
 96 1
Ni 2.174279822575572 6.162365859962497 4.483848208541208 -1.0449886273500777 -0.29327802429839817 -1.994336073755062
Ni 7.884907081221807 7.179327891963228 8.168841075599294 1.3147104615950906 -1.0585221430601384 -0.9619813331189111
Ni 6.148930395359547 8.401603795983165 9.182094253606742 -1.6798472197070038 -2.701005063186071 0.04260986425072662
Ni 4.352027160103729 7.04956885908422 8.278016015049104 -0.056535473192883275 0.3128220078685967 -0.430339162951175
Ni 3.2906716900033666 3.910108561133189 9.811631302290454 -0.4429445104200114 1.0185528017560523 0.11581662745170378
Ni 3.8380582237717387 7.030270982534765 5.666160771564938 1.681943183004084 0.4372127501425566 0.6874955018263516
Ni 0.5243798032256324 7.7256048209467725 12.784370707309227 0.3268221788024307 1.0843175068566875 0.2291817080391214
Ni 5.687982074329219 5.333870200664677 6.200124786119515 0.1013837398558254 0.37564408540114014 1.7645984932124708
Ni 5.444460810885795 3.3651539111848967 11.598823646337726 0.6602888595045725 -0.04878488271318695 0.9924183094525295
Ni 4.4955730324342165 1.3736444900834566 12.35672532455418 1.889592159177752 -1.8986236732524011 -0.46010919512475595
Ni 5.020970898049928 6.930258604595668 0.23504295821669008 0.030764277766050244 0.8226671367658993 -0.9772392877192461
Ni 8.329081876588162 1.1732406192371119 12.458254162365876 0.6232950558890428 -0.2115691371636808 0.09034856508758633
Ni 2.3668239928627237 1.1508081091705205 4.257013551720278 0.3264730229931281 2.7667684827351255 -0.24739823104714817
Ni 7.854494663411001 4.644935083178506 9.376705062805634 -0.19583244315471435 -0.2457342130811639 0.21166272531875158
Ni 6.100958481828848 7.970392883186209 6.762116492868175 -0.1474154853039074 0.6191432385041982 -0.9387143921711705
Ni 3.881175616368818 0.44115482101031717 6.015879534952217 2.0760431611175663 -0.15216174173964114 -0.32168717156871046
Ni 7.090402315165863 3.4800442399472202 2.2037934605106693 0.41204936350305166 -1.9778529884983747 -0.46186988656960465
Ni 2.469906277373177 7.972649079582023 9.902224060277021 -0.06053456704994735 -0.7630900485332149 -0.5617618723712519
Ni 8.559722477821051 8.955962346482869 6.490905042019387 -0.030784075260392143 0.5620590918966966 -1.2244040625993495
Ni 1.613661251748135 3.2940837247167107 8.330201652750185 -0.9261375839474243 -0.90903332016697 -1.5704760907703275
Ni 0.7856861820285298 6.910211744816455 6.512355551851406 -1.3100300254002857 -1.5445555142498237 1.030482720424419
Ni 5.951975546052707 1.926588294482505 0.4469543553523477 -0.6301480742551341 -0.36103996233472013 0.34378811723280794
Ni 8.41488206657493 8.97845958349524 2.0102238304682065 0.09128573218987505 -0.260928404323099 0.340901025493
Ni 6.3218623010748765 8.641768504952488 4.0885080444257555 -0.2169077757677748 -1.6208429732586536 0.42999232113471747
P 6.59426102904343 3.249468365660114 4.227794883723814 0.4981478950650324 1.603034227212007 1.7798819017341023
P 0.44634314805003866 9.081051792559062 10.983807625604785 0.796713393014615 0.2546258591438389 -0.6750050826688245
P 5.9664743819077835 8.714688032728718 12.59456356215798 -0.9972658673528179 -0.05461177380760917 0.7830559501321804
P 8.011374286572496 1.75425742469229 1.2528751053028568 0.7798050472950505 -0.9101214110248261 -0.5426783733772396
P 4.451678916487758 4.702088976303652 7.901026864733386 -0.7908132254800961 0.4884378668661201 -2.107584169148641
P 4.0099822384741834 9.098981156540564 3.859114823905144 0.8137598069739405 -1.156006033640925 0.24496442479467492
P 5.609218628019564 4.704936961918042 -0.2719447146774289 0.09334107205700698 0.21468042909915286 1.7455746438118
P 3.023136729674972 2.6502540417337683 5.904079455515638 -0.7279260990375722 0.645519671615198 -0.9659464884142461
Ni 0.4232716905615177 2.119363632433162 3.0814945439916546 0.1797306524968453 1.0421943524343922 -1.9091610824486154
Ni 1.3659512302419876 3.6956866831718593 1.1780553793326083 -1.7404262668416415 0.8728622695630515 0.2591574284656053
Ni 1.4943325038465025 4.494750075552137 5.814284688303491 0.24791579411351497 -1.1857338997226612 1.0802199397485461
Ni 5.328821498893713 5.081194697746428 9.63893056423863 2.368320512065592 0.5142591988045981 1.8360098550759218
Ni 0.642739496281849 4.264137214438869 10.21572717282885 1.681963237608742 0.7746098762473563 0.3621537642241892
Ni 7.468287471345329 3.2879161714543788 13.026768495908012 0.7720837673913928 1.1607268361553622 -0.3458673683593398
Ni 3.8576797350501004 7.75031202082226 2.240604599247314 -0.3905973642768628 -0.7466884672467399 -0.14755406776430072
Ni 1.874418376182543 8.389814245144375 5.152686534032849 -0.6014957006257641 0.31436595531694894 -1.1274809296180388
Ni 0.302020552370172 2.3885445065257174 5.442844486582563 0.5573169492260208 -0.9874583943440928 0.9103777500100062
Ni 3.997101576263647 0.37559382229879806 8.499708578363014 1.5532910943506086 -1.9290691342264517 -1.3706748927758523
Ni 7.529509915348174 7.108840248007076 0.09796700645239949 0.13291266370204205 -0.1272364392528712 1.1076608095683182
Ni 4.665028176490421 4.077446209391681 4.491412939161768 -0.6358690358993113 -0.003329321483549105 0.3120843583716238
Ni 2.629911287345269 3.626872693099489 3.326423156170501 -1.032432645061938 0.3226744751826443 0.5546288608708964
Ni 4.180593220847916 5.193227794187821 11.79067431363436 -1.7304987233152844 0.6977020100457081 0.23666618934162467
Ni 7.825469251581227 8.152663962507168 11.553188375549741 -0.07337105669298331 -2.015159438258317 -1.0738649440647956
Ni 2.369579511411711 1.1065256315493723 9.716423513069659 -1.0651465903551913 1.5953193750662527 0.8033841201665712
Ni 9.317536312325373 1.9274297447776656 10.071352795592357 -0.6063355452165687 -0.4196351462701095 0.10176169202053444
Ni 4.010731221703941 2.576446830129675 7.867802523463695 -0.600411723532966 0.48721247909945126 -1.9570154829277329
Ni 9.235887893575168 7.166290035741508 3.7549210852685553 -0.7648509970883796 0.5326096762873279 0.48112770635795205
Ni 3.408049382825011 5.176935097263941 1.3631476288189905 0.7143550452213568 0.776516863462082 0.05768989851230064
Ni 4.50666908028249 8.845852565001842 10.61581829476467 -0.15428367317865044 0.323603671865133 1.7509726748989198
Ni 1.5999391392424376 5.633139857839131 12.891731442935841 0.15683806416938798 -1.306309124905273 0.19909774416954742
Ni 3.2943611259129173 7.295836394370092 12.06510639237111 -0.06404360864447034 1.225672902009444 0.8395271457460316
Ni 3.443649203004886 0.42430454768206105 0.569820893176271 0.15068155764968888 -0.7228939359303034 1.9945736436871648
P 0.5771886689475241 4.721627267223151 3.74655743920292 0.15701444184625218 -0.27964397845473127 -0.18505592136450064
P 2.283696101066081 5.926611830012864 10.7272392592331 -0.18557142754833847 -1.0675539142451034 -0.5559866604503716
P 2.5032221610376153 8.156039010394352 7.187487185814325 1.012088019967315 -1.509671300778129 1.9645151337388875
P 2.2897619405564695 7.610899426315254 0.47619521544450827 0.9600800023311401 0.2607078036718607 0.8151829125737122
P 0.15284620976864813 0.30541224432912734 4.224140585299116 -0.25605333561898486 -0.7054687984753205 0.20482050558593756
P 7.357789328189614 2.803888070899644 10.692418011743912 0.7179867284366732 -0.05409601051345522 -0.14275098994870253
P 7.778921330857723 7.018749586185643 5.569613134566462 -0.15442996894852756 0.2550410923043866 1.0756127799938378
P 7.097845913930746 6.487664996047691 10.00613484969348 -0.7812664623319254 1.8854303144905786 0.12075314552137269
Ni 1.9167682921367837 0.9633496274804938 7.143774305316055 0.5576131403102009 0.9304770918630427 -0.3061317403326147
Ni 8.270134122394214 4.467463044551925 6.086172998071024 -0.7158997640006574 0.501224477107827 -0.4539873984977343
Ni 5.899833367872366 5.3642086448231625 1.7861502402201879 -0.8301400481041769 0.36308476067889084 0.572511397578272
Ni 5.4177933092237796 2.4333817865392793 9.614394428434137 0.5418818456178732 -1.2238777577822342 -0.8682157719299758
Ni 6.833177432629822 3.4116555983756998 7.763026242315072 -1.30117694588503 -0.12519266934996504 0.06684791086248487
Ni 7.610548051466726 0.5657699110409975 8.71489053560195 1.827752500163136 2.395115006550617 -1.7636104182675885
Ni 0.31100372777400276 6.7077643518247205 10.064355812753366 -0.8319809579676574 0.2663459757942445 0.15892245750224243
Ni 1.0260792846493954 1.1432997834598562 0.37731278504462623 -0.6579787233141572 0.46890365348793434 0.3850900613053884
Ni 7.4727351371911785 1.416752635973996 3.700759426379828 1.505128418602453 -0.9794162407659067 -0.9276175109270605
Ni 2.3726124311569055 5.789279744477408 8.27219706262334 -0.825795655092552 -0.28091358919577425 0.06379549718940626
Ni 2.4007409124522767 0.3565677989216265 12.031515881522425 -1.3573326671409915 -0.27498488241616514 -0.8866667795463116
Ni 7.229685455781305 2.0080055455692056 5.984509158343842 -0.15362007145272252 -0.5093779594528969 0.3187725690250768
Ni 6.89655435925654 5.589486156262719 4.265715627245285 -0.08125842986086006 -0.12791572470808293 -1.9831787715866618
Ni 3.253388969233171 3.1753837528598137 13.576525885233298 0.8309412038492335 -0.7194455723703868 -1.3670210980733488
Ni 1.5794946710819953 9.040625191565189 2.347627830085212 0.4371703269403954 -0.8339789622342927 0.06562406575771278
Ni 4.7177066636500955 3.19314667612359 2.0849427673371665 -0.7056261499887911 -0.22552971310883096 -0.42525712044257735
Ni 5.975369713599482 9.253918971328611 1.7475794532289377 -0.38680910087902415 -1.1017089628602574 -0.13723700210900883
Ni 0.8791694604795732 3.129288920756781 12.22315017588602 0.3776289770416529 -0.3374652603385736 0.7848544367935
Ni 0.5881534135629256 8.665615761119733 8.61889770099589 0.1628109939233712 0.6325978213472072 -0.1441118748519712
Ni 7.225431970772802 5.520810866788451 11.88488068453685 0.3829570741227856 -0.8162440068483748 0.0820269325957684
Ni 1.3423906219774886 6.2257520332957546 1.9355187636590565 0.14075735655744145 0.4572706972346963 -0.22650750364106798
Ni 6.672072064579443 0.6620836063640044 10.8405955593804 -1.3246878845227765 2.4043529802091173 0.3964304260188721
Ni 8.352013708807927 5.29411860924824 2.0929272984346525 1.1962309425992432 1.0793732754775345 0.26954082858245837
Ni 5.189871239713718 1.632348845665934 3.822507112712384 -1.2911650701749828 -0.1829463312206656 0.4344318449633099
P 8.86981078164757 4.8232023385675475 13.561503685788045 0.8213062518626306 0.9116293630289203 -0.6016957324517122
P 7.075774025419224 7.139539313720631 2.2379517191409226 0.009603841638351202 1.4045157525846972 1.0607137513948184
P 4.0117483594233665 5.901377567864583 3.467943075098025 0.4173378655955006 -0.6332102581202256 -0.4634328601813502
P 0.18763601845559907 5.014359502873666 7.8215588193853645 0.6730965527922022 0.285515863854476 0.11331597251703711
P 3.197807016219864 2.4984138736366974 11.320615212649948 -1.897040902146314 0.36584021193684096 0.4176168302885001
P 5.8203116916264115 0.9717548837255604 7.371326506564507 -0.006982601965420232 0.24378865931901883 0.3637717594435864
P 9.34333462357261 1.6445360048859536 7.728583185123379 -1.9922200558533236 0.399605481312744 0.4150051036972659
P 2.444089472712862 1.9039985904047299 1.9390103200486464 0.6936959742101086 0.24328086644466487 -0.05840646496335103
