# total energy = -340871.3856444369 ev
CRYSTAL
PRIMVEC
9.22612875345536 0.00000000000000 0.00000000000000

0.00000000000000 9.22612875345536 0.00000000000000

0.00000000000000 0.00000000000000 13.50337202206810

PRIMCOORD
 96 1
Ni 5.100868367776391 1.8151393845373962 12.40522418530259 -0.6784986976443799 0.8991181179357871 0.04305775042142262
Ni 8.564883066947663 6.930769558642272 13.223865988409807 -1.3083145853710758 -1.5743612847573467 -0.2027073158976767
Ni 5.218676808406657 8.174756204072668 1.5548186203861432 0.9164013304962669 0.9404578572248383 -0.3248897376664082
Ni 2.8965893161622156 0.42559394780497234 13.415397657683215 0.2712770945472747 0.4652835402368438 0.29744526830221035
Ni 6.182382882303897 9.195996418135179 8.043796839229513 0.6913192464478158 0.1290261841634423 0.9087294157733059
Ni 3.7301239366290835 6.372265842332992 12.697086316513339 0.1560281666735829 -0.16573768065186295 0.6994616730492921
Ni 3.267249046941522 7.6195738941872975 3.0152899234624604 -0.04965622957454674 0.1349266088082773 1.3084058595333015
Ni 5.599725160389634 1.2205522778839262 6.115839427213773 -1.0488792206537354 -0.20301841938019227 -1.2685401336866151
Ni 8.178280585333594 3.0849591910426413 2.739091913992026 0.2719399249422542 -0.8681646069770662 2.674451481067259
Ni 7.416709770718091 8.956532241100284 13.141603054805639 -0.34109051579598676 0.5735238980031865 -0.6979030703129206
Ni 1.309492161013049 2.459233899165023 0.124242742963695 -3.160762788508679 -3.638757348554288 0.36655446439504613
Ni 7.103012160108827 7.351028958685287 6.802877881676754 1.0586661248371703 -1.5862629212909392 0.36011462230697333
Ni 1.1939902526216082 3.452140671205798 2.6564101141332856 1.0839917480861525 0.3696644707789376 0.007632833954909436
Ni 0.3277296301373847 3.810225188219026 5.0384591410711375 -0.2605460812830158 0.6014190817515578 -0.29559021737134256
Ni 0.1410176906302273 4.491454871891748 9.395295565376056 -2.8714928569284095 0.5492148889441767 -1.464865200207032
Ni 6.230460240289982 6.109487237428047 13.021059066940122 -0.3209919452738988 0.1300584820826986 0.09779705094583158
Ni 3.6761326299826496 5.06725757999222 10.704595822906835 1.152399033015957 0.7867069166212064 -0.4132289856334496
Ni 1.733063741351019 6.0200675955932486 8.827438399531891 0.5924865551486184 0.14263940407150272 0.1988935985785413
Ni 0.9610950794028895 6.524238638484746 1.8130570472321843 0.23015229948250684 -0.16705331413949293 -0.9788356856720883
Ni 1.7714905684498568 0.06166560071145553 9.420384177844213 -0.12179598496359023 0.19786747130687213 0.0684741336119982
Ni 7.708642943121795 2.000907491052426 7.832333963573962 -0.38202967721250974 0.019667139411624193 0.7421129320609154
Ni 8.002550507121933 1.8281574524933288 0.8919166418831307 0.16697823792718341 0.0870431548634372 -1.5608542514098473
Ni 6.045550163767795 2.2483707218915683 3.4861518729866274 0.6389510172587447 -0.5460550031589564 0.12708345861477469
Ni 3.86009241522244 2.6879588620959445 10.395503895872059 0.4833907913605159 -1.5630402033175725 -1.8740159020060498
P 0.29042470031951173 1.331920880503391 2.566707230139559 -0.07100461334333578 -0.9837225814507444 -1.5901789685158936
P 4.06717287962422 -0.0029781944267718726 7.1896547371280795 1.0498991772778177 1.7037844472488914 -1.162686016764262
P 3.6738814545175553 5.837870000983921 7.741725996329721 -0.3676836929034829 -0.22513196344978 -0.145299210291853
P 5.6336773149451504 1.985536760212891 9.001118431889683 -0.5030458465872819 -1.2767530085147107 -0.4954690626812886
P 8.627657648359547 1.4819285111876657 12.15132019383975 -1.3399615228523956 -1.4195186537514328 0.9950030394605702
P 6.20498689824439 3.234533193666017 6.37446904192752 -0.3879977218704866 1.6748459098376705 -0.4305201686137295
P 7.243729078935112 7.058496087899489 1.3321884382430949 -0.1527456392675692 -0.12499649417875892 0.8333297586860681
P 6.673148359823341 0.20688763830661447 4.201102135378088 0.35633175822577334 -0.1202252980423607 1.3160320086199917
Ni 8.563775931473026 8.721856424993193 5.495157137423123 -0.8584473796893023 0.9689276825297571 -0.6754282862491722
Ni 5.719720193582308 5.787403075598411 2.277465319552117 0.32147891221264635 2.4496234220111424 -0.6882238953519437
Ni 1.4166997794736722 7.176212267240203 13.06321601797559 3.565969418058284 0.8046066797197626 0.24726890455813544
Ni 1.0175405363514345 0.08871476558261344 11.74265434744197 0.5482985477774944 -0.3367798042357748 1.0841640119979585
Ni 2.7596274318207397 6.468558950239492 5.701677575797317 1.5657072086267743 -0.9490448275629011 0.030398924006831522
Ni 3.2845203603458493 2.370312468293811 1.3096637670116178 1.3448746438832966 -0.18840863988681744 0.9748761868037082
Ni 6.188158439029917 3.5480001510513985 10.221891214255642 2.1216905266430364 0.38604625457107067 2.6248343322607637
Ni 2.6227947132846383 7.848280404860309 7.6097711321722885 -0.4571717097629868 -1.8020406972193288 0.5338294076270419
Ni 0.36112729434268676 8.3353000740239 3.318521413384828 1.3839561832657907 0.31617241239806837 0.20345113604223672
Ni 3.0332836427639878 5.379921864158491 2.5590513883324486 -1.6829248301910629 0.7138742489301964 -1.2542579127359883
Ni 0.18613991951192863 3.218230623801996 11.520429192360059 1.3356662379111515 1.2734745948737554 -0.33851838419343633
Ni 8.469604833226247 6.7449276430956 9.008531626505269 0.40696757810477 0.4570349270748064 -0.21104540344972683
Ni 8.186574875264412 5.344539659614903 2.6523865992958773 0.7410423247045561 1.6381038172216302 -0.2644742126928284
Ni 4.676632506153639 4.000062017603344 2.8442421056956166 0.7492446580096903 -2.270463811526419 1.2087388452582666
Ni 0.6024486911362839 1.577188292651171 4.6232307491474485 1.4076568693168403 -1.0562829693169744 0.4456565100345357
Ni 2.6474377037242527 4.233695281138488 4.601138783363975 -0.23140596938394983 0.039505514293790026 -0.1289793900859069
Ni 5.607954867417765 6.426303279624203 8.924878315267534 0.1763805050776898 0.6608701859293392 -0.7317133339941463
Ni 4.281818769769349 4.37679254123524 0.6036997542226229 0.8693763678969803 0.584082133135007 -0.9976947273601204
Ni 2.7089483054692596 2.203402569363421 8.127166908308318 -0.013491606728531603 -0.9261129013570759 -0.0556921513559815
Ni 9.107231831456208 4.367372663571875 0.3406176096750478 0.0602525170331543 0.8598614864280095 0.340925193862716
Ni 8.368006701170449 4.655873716004206 6.870002582891062 -0.93812535243692 -0.39762598898887 1.7394651884799526
Ni 7.8559565441511205 5.383824516706584 11.250874918350338 0.6303871868491338 0.37863299282613505 -0.9337652756960112
Ni 4.920608260247676 8.534676720748001 12.511751838059208 0.2917703294046201 0.14230567488116783 0.12039704773353459
Ni 6.6807322378246 4.611219251860539 4.462594617906664 0.4378562972638266 -0.43213919227439124 0.3778935435569492
P 6.707248132442141 3.9751976000688023 1.6052403377397706 -0.7341905918900452 -0.5669619285149526 -0.5675447976016161
P 5.254612580687564 4.243410394928421 12.171453452446013 -0.4899661305851885 -0.4105568381179252 -0.6361971086626914
P 0.6459840258376731 2.534897382727465 7.085975190379964 -0.48760611499344414 -0.5875199551719623 -0.830384302904499
P 1.870182469884735 3.9878281706086125 10.26261719269014 2.1139826164758175 -2.0604694750490253 -0.8014928166811294
P 8.589830519642804 5.975339322417938 5.210249662218883 -1.9218445914535545 0.10345502056255733 -0.7631949495421954
P 2.053634818031984 8.261094318836395 4.823363938445886 -1.029893423579852 1.6596190655855871 -0.06281256445084667
P 4.662405815304561 7.203669227011185 10.773719826265758 0.960447670083204 -0.5400730745439085 0.3791718960487405
P 3.235308188498262 7.72446575428014 0.9070373446279771 -1.3205764334575643 -0.5824646521362421 -1.094054017418161
Ni 8.514517628980663 0.13164209838584817 10.265452382118104 -0.6270529802695782 0.33772339909596677 -1.377470318431131
Ni 0.47838124462273957 2.1918883604272024 9.283379853309542 0.4570693798571676 -0.5721977229925952 0.09077665376394044
Ni 6.958051221963102 7.540948823230204 10.625411648535051 -1.0096938087035257 -0.08765610585708775 1.4939454054024401
Ni 1.0888031564021965 5.960494480928856 4.083730090647407 0.44804763597453157 0.38592027051616756 -0.557513124397227
Ni 0.42753973840164583 7.030725439744026 6.733402362804634 0.8489337837719122 -0.607713913621334 0.840027739531534
Ni 4.146471457995051 8.604047984362927 9.200874272513847 -0.6411462251378507 0.12879864153366852 1.5294268861385014
Ni 5.231021368948853 7.962656725519203 5.75281431814498 -1.4054799162701794 0.010294182837156465 -1.483397968903897
Ni 1.216197545017023 0.2074578130760522 6.944743453557974 -1.1650046375951097 1.3521917463700002 -0.4608959526921095
Ni 4.858147367220274 4.181401582219829 8.62315898788094 -1.3605519454092376 -0.650316578783209 -2.4710378831311766
Ni 7.354175068659046 3.4746155213409167 12.382092434785854 -1.6949293108511068 -1.0734188576663126 1.8037756776325644
Ni 5.4300658750305635 5.4231185999272205 6.369054226843652 -0.648737150111231 -0.0984061452847402 0.5303028825310222
Ni 3.797852949289964 3.3340923512226937 6.305318282794626 2.8581403468809037 -0.418074486651209 0.29280416998577313
Ni 1.4063388366568668 5.336439118392146 11.826523550097257 -1.210729136215418 -0.24741571454864483 0.36896333094685485
Ni 2.45503601049036 7.245140676665273 10.787965891985642 -0.37387465220554317 1.1476052111717396 -0.15556279700139014
Ni 2.9906312486036213 1.1954387548675907 5.636253250149471 0.0014117927458620848 -0.5088190016256333 -0.7180381504998988
Ni 2.722916664707588 3.278246592656244 12.207008185601065 1.156143330549738 0.6444516353619998 0.6546275474537372
Ni 4.576990313436364 0.3881497034398743 3.597177263608956 1.030820820490128 -0.5838407065481621 0.9973509708674564
Ni 1.9096426234265669 4.267195355375193 7.054444894675216 -0.8226475963818736 1.6399508977326982 0.042931766366519616
Ni 7.770181223253667 2.0251722102048735 5.5016790879816275 0.1074091201142989 0.08370689140135261 -1.1437480422091786
Ni 2.516804943846115 0.7778383251894931 2.9249384426031764 -2.3551682909543503 0.1601164778103436 -0.22134498560352203
Ni 7.0855009673516625 7.201325790256538 3.9859930935594026 -0.011103309002013137 0.0441718094212078 0.14026987539806166
Ni 0.7421682654224999 9.005975066171754 0.6767983739354901 -1.2885731410780903 1.5085646979775118 1.6966172400764907
Ni 5.925149180901088 0.39571236134453636 10.468408766876866 -0.14471222744013143 0.6876212287709383 0.616225550636771
Ni 7.633237791170102 8.987937984064137 2.218847109234598 -0.7418586499582642 0.7269837897289608 -0.2736278541676384
P 7.171387001796579 4.8403593905944495 8.801795296713522 0.46436437085668414 0.9373054276387859 0.2542270810435235
P 3.6597654772159416 2.4941455711318903 3.8573190408584757 0.1086483918380387 -1.76596863408712 0.2661055776486643
P 5.931367591816963 1.0491215757654373 0.6995094129718646 -0.4016978450653985 -0.9691860783974664 0.6999884920870397
P 4.797061167407212 6.1291204398449315 4.314611199915183 0.14647883242225096 -0.0673058243355099 0.1355621855097472
P 3.051053167131902 0.6052432855968453 11.261785738452879 1.309596280296977 0.6305962175361461 -1.090580971267896
P 2.122341800362127 4.201459186568658 0.7487105134647055 -0.05676301582265709 2.342878932064036 0.4794228078517033
P 0.026896933743395416 7.328554108550169 11.149046133070657 0.09853804287691416 -0.4550292094986873 -0.8483668555248486
P 8.41296562756964 8.808268348788562 7.8269459042640666 0.30304461676685873 0.06476737418437233 0.4536392711296962
