# total energy = -381172.16085512924 ev
CRYSTAL
PRIMVEC
9.17767386184033 0.00000000000000 0.00000000000000
0.00000000000000 9.17767386184033 0.00000000000000
0.00000000000000 0.00000000000000 13.43245339029174
PRIMCOORD
 96 1
Ni 8.666183670432012 2.6471072723835127 5.899519759407403 -0.4785195793111437 -2.7449549864044593 0.24945177114206712
Ni 7.9580343611146 1.6659038125890189 0.9402728702442893 -0.031699130875493794 -0.004468834404631013 1.130784025849343
Ni 3.527475630292698 7.695672200598052 13.352033164118453 0.7624102488573707 -0.01658155850776499 -0.4837111508144121
Ni 1.9205934378205831 7.296067106287666 1.6880293485519844 0.3359236268830666 1.5855332422137662 -1.1671458523078286
Ni 7.161981292276165 5.206365851288717 13.03465084925564 0.130167239746421 0.2559080682903722 -0.32514530532064
Ni 2.5479333294534463 7.341294682704412 4.130022953960423 0.8411780510858933 -0.9893615249040768 -0.9625192079002519
Ni 8.616835318485412 7.39628730402932 8.93914971524075 -0.3557252349900261 0.1948968187143224 -1.05401062834303
Ni 1.4618749466554344 6.546398000762997 6.151768123411927 0.08848194419249276 -0.6141303586706391 1.3327781177300788
Ni 4.637735538864039 1.630716611294009 7.404828047254447 1.8375982826089643 1.0016531977872363 1.6180700384992066
Ni 2.2258336902646967 6.109265398342203 12.417254967169763 -1.2377758559205652 -0.4948707669756574 0.5385489245898983
Ni 0.4854750813204623 3.067233645279096 3.9255131779204593 0.3198328919687911 1.74033139313499 -1.4419289031258327
Ni 3.6816605498952453 1.8112047439668475 12.61855439291943 1.6662928780613369 0.4438922190452614 -1.2373374828315657
Ni 5.504603538634216 7.4975262235612075 12.145798649698799 0.7593632345009309 -0.8798896087234781 0.5883380801978835
Ni -0.07197774220041041 8.198122307352852 2.8137095846183366 1.4585832238530623 2.1784954514472226 -1.4021495663453658
Ni 1.2749532646587034 2.265242621501205 10.985368987377024 -2.315554276107154 0.28506103570524455 -2.209335833866847
Ni 2.4579003496141016 4.908715535065515 4.5589745779684945 0.5704689132269465 0.3091805544612675 -1.0167993094000554
Ni 0.4358192773020349 0.9910327484191563 9.100460180770643 0.39882232328981637 0.5187164632450034 -0.07833534267679412
Ni 6.3290064417971905 8.136457517185619 7.110616605398809 0.0877736052715585 0.3038241752453606 0.16148327625088318
Ni 1.092262490277257 5.550996679621767 2.7402744278207307 -0.2106186003249534 -1.7799940018319342 0.8444032428914102
Ni 0.32433990935987916 5.389983570722536 8.131685126816969 0.5053984059798586 -1.2062826704082903 -0.5451911124967643
Ni 3.744371594874067 5.055824468179159 2.4135428166722543 -2.121296633638727 -0.5600160933247388 -0.9757537043126551
Ni 8.37039642198734 3.1025401563333217 8.05008275811732 0.783159051368948 -0.17574055750084572 1.5999100797607286
Ni 6.560751882564091 3.8022276504201655 6.451621081343737 -2.3356109376477128 -1.4869841435932585 0.23155252226414316
Ni 7.348141227348668 2.332322239202099 3.206890307278617 -0.3448785220835092 0.7506605645206105 -0.2579045298951107
P 1.5873888133509362 3.2658843943741624 8.896542364689868 -1.3264061527654643 0.8568316984627502 -0.8970612354067583
Ni 3.7507959665241732 6.996232503703427 10.708969574804993 -0.03692027006511706 0.4606442416926195 -0.3334358274642064
P 9.166541267563634 8.816587388434781 10.772532307911144 0.772625755937792 0.3752584199269473 -1.2537981994907503
Ni 1.4096998711827864 1.6984019554647698 13.019593039875168 -0.01329877399143516 0.656772875931514 3.442231735987291
P 6.01097251209558 7.066781282095378 1.153354593600252 -0.6210054885239177 -0.2946718193221312 -0.2929571506238697
P 8.189513649341709 6.944644799353074 6.547045026764899 0.5944099974235763 -0.5027653392323858 1.1324043350615853
P 4.1387821258216535 9.28367591809264 11.466681075868216 0.9787079018449725 -1.7331904112148346 -0.15712962726787777
Ni 3.3036688773505727 0.5119444102862781 1.046302535492398 -1.9857146506346384 1.010912254491659 0.743071953540075
Ni 2.2253197405326883 1.811168033271704 7.242013360991051 -0.5851314003351278 -1.2403227907121348 0.5356062970218065
Ni 6.178575190773063 3.1810459778976186 8.934153389631724 -0.4276695865388119 0.08759285671932011 -0.08860972801960867
Ni 6.744791774992059 5.842938482750161 5.158827336612689 -0.8208678787736314 0.289812691457617 0.734342029866245
Ni 4.380751495186008 0.9284318355257652 5.283548252293092 -2.746677368412205 -1.2299702438332172 -0.5636806866605195
Ni 8.276325265682214 4.515700010533379 10.163800149879123 -0.07218089303962408 0.5727975613601233 0.4139784622049644
Ni 6.153042902300784 4.888469586693895 1.867984258377864 0.3460895116724749 -0.5750989557997901 -0.419188031430362
Ni 4.114553067026968 4.043288430079719 8.130086376043472 -0.5178260902202502 0.2236126985917762 0.011062942682380948
Ni 0.44752907128542124 8.004097105845862 12.78264477583906 -0.12613549287920858 -1.8314662015692973 1.4191882669952076
Ni 7.537100352925861 8.338439761864954 0.2748511390043545 0.9368436575110188 -1.162683959881733 0.6190123693532887
Ni 3.1037057209041263 2.1144350858518566 9.78088098427882 1.848012535963753 -0.22637689160047467 -0.5154293078532994
Ni 3.754347726279303 3.146198350532686 5.987341837631733 0.3848311512170469 0.13294943047724847 -0.605104758133261
Ni 7.658420022701223 2.229100942132465 10.48955066769989 0.4957043186205463 -0.44589793662138044 -0.3442737986199748
Ni 4.161129761490237 7.878849391690149 2.1924985435396747 1.4250712081385457 -0.21560602623721575 1.1814676682471394
Ni 2.462103724208028 6.295590531542853 8.4643932391348 1.0533472837274183 1.0746195628426332 -1.9118072618222104
Ni 5.641929071492126 0.2419069611826103 0.5006962532943209 -1.6937694862150507 1.3664063473074854 -0.04333620089378988
Ni 5.206558582438221 1.0630132439217026 9.907118969436025 0.5112358385972422 1.0267214536097737 0.5157206138414732
Ni 2.4750993102888144 3.75617408336269 12.206943065762372 -0.15436877669328897 0.8776787171150885 1.8898644390025325
Ni 5.270710522201423 3.5003556042554647 4.20815891527115 0.7823509536453558 0.6100914127145751 -0.663714854466986
Ni 4.775455711694741 5.230549021714474 13.183012534841055 -1.1160014682235297 0.019442424995327806 0.031113947795985124
Ni 1.0083510188530853 6.255474919424834 10.242326162325748 -0.5564188628917837 0.4450841824708334 1.753458160324935
Ni 7.960723419533859 4.719031373259239 3.424644384358964 0.23858860317531816 -1.500685295229435 0.38404876452506764
Ni 4.374510677011619 5.330484711568768 5.920998269368464 0.6031216662649613 0.5518893504525464 0.26803750456405456
Ni 8.904665523757737 9.139494662916688 7.066840936974986 -1.325818398582794 -0.16016018656408545 -0.03132400692426218
Ni 4.829347012165346 1.2354250236629793 2.910222002150502 0.40310423849462185 -0.10098547597614221 -0.5712181326881453
P 1.4580570343605141 1.6978054066686885 5.129759808198094 1.2986955742240731 0.8455129310158213 0.303359062683484
Ni 1.338150726348176 2.385295772294117 1.8898390529641464 0.7698849599678612 -0.06401146985495428 -0.3854862683025425
P 5.999674795665179 2.72736602964091 1.3901780412728713 1.3029574348242208 -0.9109781025981666 0.23047600137051272
Ni 3.101475546174161 2.5831847744649568 3.8355701392842163 -1.2900589815949977 0.08150114199928545 -0.7515205985280605
P 4.506806844634876 3.853319760386081 11.40830372845108 -0.2979535753971965 -1.4363051291811522 0.33073128404884977
P 1.99730043532285 4.734266311743776 0.9720891119577506 0.5034006588235395 -0.43142519692650216 -0.6974387290819923
P 6.940551556844579 1.3648669347388316 7.331459887475479 0.1662580719317072 0.6052690516252673 0.4965476404574481
Ni 8.70739142573055 0.80669917043004 4.510376041970199 -0.2181989837753726 0.15882809801622325 -1.481544460634926
Ni 2.8616353971281283 4.907403127714137 10.163571625801854 0.8986231805772393 -2.171169092989138 0.06944215395222235
Ni 1.2934646326847952 8.806317571468398 5.372336739567073 1.104997403803542 -0.7821730333065948 0.6790784814072498
Ni 8.980831038506638 6.304153301185066 0.9276214469304732 -0.391211600822094 -0.004461121095147156 -0.43364791560943383
Ni 7.5272343536060555 6.803739973718676 2.884418054534162 -3.1109407227802293 -1.3666524018800206 -1.9637571725269405
Ni 4.273235046784589 8.858125539989611 8.369936620530668 -0.5615106755923942 -1.4319203698498952 0.42278526186331705
Ni 4.879613131490534 6.379896642939817 8.190424992348646 -0.14887638612015006 -0.19579233394539827 0.8282513157218963
Ni 6.48109885177656 1.3777248557128299 5.181058415824192 1.4626126567274296 0.05764079044192008 0.3724178651543586
Ni 2.230734568066349 8.500517480923346 9.66017713641449 -0.669531204038447 0.25784385186050435 -0.8662139110085986
Ni 8.53376819304954 0.9564604512677997 12.38423828572511 0.8473268442961085 0.37551527313275973 -1.0280615125774357
Ni 8.907840998887647 3.928448197997179 1.173833654886033 -0.08403059328935852 0.40769802851289144 0.8115813112653829
Ni 1.82622859595431 0.35368368575542813 3.1889718169790924 1.2240099124847243 0.573199167673916 -0.32055074397142214
Ni 1.6523759214286526 4.002796533336479 6.373685193321543 -1.3138098041576922 -0.22870142596859322 1.826636898501454
Ni 3.7069542188490914 7.5817405582203135 6.452426881102136 0.06762669801003839 0.5919697634131998 -0.9496976306555515
Ni 6.699692686008314 0.13608012252516932 11.633700054492918 -1.435956744702798 0.6609079811458101 -0.9871272362569192
Ni 6.4993899556317904 2.583037931684383 12.503559058149907 -1.0725169146773335 0.40596433365123635 0.7033867191353113
Ni 7.420626494909437 8.101857687012904 4.866295409059864 -0.5931275311667269 1.4204599346187794 0.24412444539188277
Ni 5.1847248965016455 6.074757344907348 3.607500356868556 -0.13128104163589002 2.0419685880313607 1.3187969729596383
Ni 8.825893549653651 3.367426177140983 12.358555483402743 0.06135500606871369 0.5165657354505878 -0.12223204405974435
Ni 5.766653658242044 5.34852801823178 10.764445859538416 0.9331438400619285 0.6719896928812685 -0.9919632241929819
Ni 3.955586579381985 2.984478560751943 1.207052245153975 -1.2825287346562235 0.23928228680823305 0.2961152366368771
Ni -0.020078914708717397 6.6814658258695845 4.414535430159159 1.1504825327195347 -1.2953500547906076 1.8147023518473975
Ni 8.498590169428315 4.758871655163682 5.929742756951638 2.409452506219212 2.1031500446366875 -0.025709746061278307
Ni 7.280364106440048 0.13769447534410312 9.277701252458042 -0.1857110384499963 0.16312055474399004 -0.6894767939224384
Ni 6.860457997715327 9.040568517178839 2.6342521047116505 -0.3220962340816711 0.6153215507652628 0.4878033186059147
P 0.7551876407721105 0.29602403242834713 1.1520385151793588 0.21419217660882464 -0.41329454876406246 0.2163966404593112
Ni 2.0392515821980433 9.074544265534115 11.865907132251246 1.973581100595898 0.6659275458475886 -0.7197926712971603
P 6.28787210788894 7.3382660503550765 9.596158272921182 -0.26814703355872527 -0.4591735706843641 -0.42023472752732144
Ni 7.918827338701382 7.09335064770546 11.231022274999022 -1.3108808034363553 -0.5058498916949804 0.07739200492691833
P 1.8769627766425767 8.455730432848322 7.505476842361903 0.48322058433123877 -0.10616290641202362 0.338617628775462
P 9.165917185746196 5.544902704227952 12.156907306049211 0.5447152013016103 -0.2962461057877866 -0.1206490158433406
P 5.325409457965184 8.35445480262129 4.441266322827872 -0.8168613287173997 -0.17317768186967594 -0.6900331806465407
Ni 7.136990486557251 5.420572757450827 8.112301879781219 -0.2729148872610138 0.7790928517193744 0.2559021547531012
