# total energy = -340860.55304857914 ev
CRYSTAL
PRIMVEC
9.36898672289004 0.00000000000000 0.00000000000000
0.00000000000000 9.36898672289004 0.00000000000000
0.00000000000000 0.00000000000000 13.71245910064301
PRIMCOORD
 96 1
Ni 6.159537242344003 0.9754988944569117 0.9068654455399549 -2.7948426152635224 -0.4345786549538193 0.0990383795521004
Ni 8.578337905817259 2.9457405820377973 3.886769100654468 -0.43441641834434214 0.19386374946411775 0.5731091790632711
Ni 4.316095420663808 5.176252719945354 7.050576595562438 1.5031003324288308 0.7275334915848438 -0.16844968026638732
Ni 1.895954992093478 6.14546502433138 11.949379891181158 3.447415594181076 -0.22837592430837445 -1.076093062064366
Ni 8.52580599743059 6.947534606117413 1.299039985717567 -1.3513998465963242 1.1619167426984054 0.07263880651264909
Ni 8.087843345487805 3.9378694278744724 7.44410963881051 -0.1025978147685846 0.7184366714898981 0.527233242466763
Ni 1.343803130338545 1.3708232879606514 9.284349140839097 0.8438447992847791 -0.6911032737822678 0.5012866978043302
Ni 5.707989559696621 7.226945896257525 1.455508621778425 0.09341820515184555 0.6022433774250661 -0.9960805887954651
Ni 3.7249966812268016 -0.06754102506857354 5.654456106632491 2.4391258649139282 1.130190615239718 0.6258738723598124
Ni -0.07947242962188585 0.5494891957368323 7.210271910640305 1.0850099049380217 -0.9845072821355688 -0.042188460442591856
Ni 2.2264834736296417 1.8274021164620795 5.441954371857855 1.7040767816783295 0.9495454213484034 2.2537557547431186
Ni 2.413844469512751 2.0699745509260046 3.026119929571548 0.7496064122244832 -0.26926057833787825 0.223732254888776
Ni 6.9105458466541405 1.8940062428613704 10.435387243770114 1.447109675995824 -1.291361245346189 0.25265510857071327
Ni 9.150530030108143 8.459398619751848 4.043955401095997 1.8666301510649401 -5.356957199897562 0.16373633395111803
Ni 5.522952072513333 0.17931209941530338 7.343200030736771 0.18464377352774652 0.46246792516491964 0.2920359243611809
Ni 0.5434958549494323 1.0470404768433212 4.309579290418948 0.024741468610738036 1.3862359804389028 0.22028389132885934
Ni 1.750445259767217 7.801667646955473 0.09744214609872369 0.3852708098576268 0.9027166339203226 -0.3705916105788972
Ni 7.823431803042904 3.5578071136933445 12.000622626998894 1.2325817133141352 0.8742020714203975 0.5425888989872268
Ni 0.7370591200231914 5.674073827868597 0.3900496539956795 0.7539700885098176 -2.373519282657712 -0.8527829823146733
Ni 7.934407450419413 2.0029956650590006 -0.08999567547526659 2.766379731937139 -1.4010205949472452 0.6635988977144119
Ni 5.998353195280646 8.969699217949932 11.540268096860256 -0.8066314234592753 0.6183138006243674 -1.7111817681542272
Ni 8.338107718026539 7.296135862984035 8.478728713096483 0.8214888001870819 -0.37418498435711045 -1.2850445590995416
Ni 4.241471441655459 2.8495398266758727 1.3063805867913951 0.5469435764114967 -0.04705838694038348 1.2354492646699176
Ni 0.3561348590663232 5.760914965524388 5.008461663466217 -1.6171238725358539 -0.3014646738742486 2.456620422154266
P 1.7507356983546947 3.7317985655657924 4.526893873657687 -0.3422773370152363 0.7306676663384514 -1.3065348677628337
P 4.153908892024318 3.04528606564906 6.56047928026876 0.2260326208871785 0.3188584438706638 -0.6048036819530745
P 1.3633749435398559 6.886842310321295 1.9968496097885076 -0.08380819286590728 1.1207220136276506 0.2058317204592713
P 7.007252527297478 8.990620165235011 9.475981457755466 -1.0001663288290648 -0.1843792070124502 -0.5163394783723946
P 9.297576276252027 7.774478847572896 6.234136861986951 -1.6103374457416397 -0.0057685270526610325 -0.7431403448841652
P 2.355784858977316 9.335708052091825 7.519912236344816 -0.1787027254529632 1.6532041631981786 0.18670914069720748
P 6.509946713642341 5.170575114009502 8.635640502227913 1.2343804570857708 1.2705345384088247 -0.6863418478378825
P 9.388380495278884 -0.0865197814122286 13.464606434139649 0.2839505762498852 1.4387124530710642 1.5657997683405809
Ni 1.3010992889926498 0.20099099772383053 2.0754769568107005 -2.0321109785109908 -1.3937711124736833 -0.42674424651106513
Ni 0.6420810174246806 1.8787160565786807 11.988378298290039 -0.5804159971373294 -0.8045873964460529 -0.9409538230246505
Ni 5.918145300203373 6.90742597408543 3.8189198359237007 -0.9629750644907479 -1.9583059196043822 0.6908826731310295
Ni 7.798781999054083 3.9605985895912657 1.1709631269306449 0.44932855956948425 0.7545367596465651 0.41798269826835116
Ni 7.712577952493403 0.5378023217362027 3.882477167850485 -3.873015956895685 4.13782107056537 0.1877085284959993
Ni 1.4379052326812767 7.375013361950927 7.714080737958931 -1.677384617099124 0.27038697863283756 -0.8245093321809608
Ni 4.558480475393876 4.379101856173054 9.24518677646309 -2.995611833598222 1.7884441894818168 1.7521492117055242
Ni 5.706752853453168 6.452496087241939 12.259199164531502 -0.47579523840144505 1.581476041425257 -0.12318669466352977
Ni 2.117166136897763 8.08998884344046 9.898352242044052 1.216865588130459 0.2990370382693624 -1.6893199350841295
Ni 6.727981771957758 8.642993282984442 5.464579537822358 -0.7660848694954807 -0.2286471756918901 0.8615195908567228
Ni 4.781462358683105 2.358792303705713 10.286277946756469 -1.2515045183605673 0.18421851306486983 0.07354589170795076
Ni 7.17691550731784 1.5635714511921348 6.576714797308757 0.6030134228218712 0.6090735129730219 -0.5144085798982689
Ni 2.3686953226400287 5.663852263386724 8.878885629936383 0.42833781625043005 -0.8852040789578561 0.7831263983587997
Ni 2.337281110258987 6.129884399461212 4.242497345698323 0.9016550254250277 -3.621430941460699 1.4637660536055823
Ni 0.3945973601363766 5.245583221472257 2.747785136002442 -2.0784409719257817 -1.4953497419491344 0.36452097890478513
Ni 2.2082233185653264 1.0510785101079287 13.667249184217424 -0.5767164367985552 0.11825917545492536 -1.3973899401731933
Ni 5.057425861720257 9.365276574094379 3.579911363997726 0.5526570818565063 -0.6023487926546788 -0.343722296991879
Ni 8.836312954404187 4.696663660126348 10.005172743822293 0.4671871850174599 0.5385044445052081 0.031759294689467886
Ni 2.000035065264068 8.10162512491295 5.181307288266133 -2.558299581763323 -0.1322899425163786 1.0377013496600451
Ni 3.2234279786264293 4.810656121217947 0.03473364436630915 -1.2018850555612268 0.3820325054259872 -0.3297807472101224
Ni 3.474001527726027 9.538471662097937 1.553237458869949 3.2510617313052523 -0.44693229142316576 -0.467901180365349
Ni 6.145952211639408 7.227367500658702 7.611470658800445 -1.4274888164411028 -0.5298717085308745 1.2876537145876148
Ni 6.0839388887196 3.891661585505461 3.1875981628170598 0.6701148444560588 2.2004860967857 -1.1807364465080699
Ni 0.9837248647732117 4.067311348022539 12.370585173525155 -0.471326146886498 0.29838192118386675 -0.7618757165101395
P 7.564285631119372 5.5033802593120225 13.2860429167611 0.780925791163055 0.5722656001160532 -0.12886137645080387
P 3.817224986230969 4.977695784964318 11.433407308439236 0.21719034000520013 0.2723816404653631 -0.06857646351781739
P 7.36188741159428 8.001648667913816 2.846130452418354 0.17989057511347728 0.4061918762810101 -0.37666867001091253
P 4.6070399334227865 5.385190492182038 1.911489708928851 -0.5900656044119515 -1.0088085778850948 0.575010509851042
P 0.5607347904642298 6.649685150165822 9.931331075202795 -0.32626476363706386 0.1391550450673281 -0.25657938332578395
P 1.575057828877538 3.092112261139798 0.4252180193445357 2.0734836279205062 1.2013826620035117 -1.1616470339767866
P 3.338216803586918 1.1211678995569507 11.191875768396883 -1.55448511465871 -1.288490094445981 0.04405893799242734
P 2.320463779145367 5.360625009073451 6.690651981378867 -2.246634827427621 0.48940717275792484 -0.20604537913197415
Ni 8.180980442201175 0.3176086488867586 1.6874688050153877 1.7222711931991694 -0.6002003788531082 -1.435480576397328
Ni 0.9563767926168564 8.875147404245945 11.63525463154679 1.049399869043896 -0.2848381210611611 1.6256941307033679
Ni 3.225311144951687 7.321872469429225 2.813070109075383 3.0120067300164775 1.3105920685513428 -2.365791060775519
Ni 5.569684578137143 4.762349625829743 0.0069396084433752826 0.4094085834460949 -1.982273486163573 0.9574230243242672
Ni 6.354280999741057 4.5287526806175435 10.676685496043813 -0.9591988852777673 -0.046839843171674174 0.4120730176521355
Ni 3.7491218219608253 7.733302151057931 7.513481363878861 0.5127023958404395 -0.9886141052150909 0.3496278638430366
Ni 3.625038962201055 1.701529780243979 8.136163894356049 -0.6935864452154377 0.8951969285045099 -0.43422332849692963
Ni 5.317021745005046 2.030446796068977 5.070126460081051 0.22221556113393343 -0.8781294314992618 0.428879547686513
Ni 0.3800791783571754 2.4089070135256323 1.8652781189651622 -1.4785185293244085 -0.2077471923144293 0.8394217305164189
Ni 7.115023981225041 6.766741269905975 10.41004600856336 0.17752927397015233 0.8332911921386488 -0.387260586594146
Ni 9.164602248120765 9.084647315684201 9.779835497278489 -1.3105280480826267 0.07854720157728408 -0.8365881177223656
Ni 3.9054808408773773 3.90260456196268 4.160168312033794 0.6513406491723492 -0.20969403162815498 1.3048330545803786
Ni 1.4174621037175332 3.0481904515238356 7.674931490164295 -0.3931059896313294 1.1165413998873999 -0.9232124398808295
Ni 7.894757898735379 8.094401636172782 12.549354808610943 -2.0556594552548924 1.7136024617805778 1.3170321677497319
Ni 4.436917873054475 -0.020697028503119125 9.426328638979502 0.09368534277030317 -0.28629593655361013 1.6256298531243356
Ni 3.585989025665361 7.774169671012032 11.617209026277742 0.7309944535502508 1.5526483185602873 2.2872734268845902
Ni 4.560466700572754 7.014054411636469 9.74148167645407 0.563273938140404 -1.607213298290361 -0.3609998531254041
Ni 7.4966883921306415 6.462333523269405 5.998693289497595 1.359623262947381 -1.0426427528257205 -1.1141399895347588
Ni 2.4955982473943394 4.330420601317137 2.433947504259545 -0.06801339192549578 0.7992405303118428 -1.9197504279286874
Ni 6.094413415842178 4.487472925248957 5.467513904454551 0.15938139941653195 -0.17908170605893672 0.5489888889762997
Ni 9.216028616077681 6.603458569823425 12.055253188404754 -1.324930853771518 -2.335274637354217 -0.9684229749791966
Ni 5.904363520778228 3.1173991562237315 8.078489349173688 0.38785271165219015 -1.9332309789136255 -1.5794944922188539
Ni 2.12083877968135 3.5049847667191987 9.978446772382341 0.5540197665319878 0.3739607841614463 1.2272932112216863
Ni 3.8929919816158423 2.67311243826329 12.740451219488483 0.36197944342985394 0.1002290574260919 -1.2742772932807087
P 6.103192156373355 2.2041009644204834 12.697284550199962 -1.287888713416556 0.2544883051247101 -1.105311078389219
P 5.207310910832068 8.54822598258652 13.427953084399979 -0.9177843268867226 -0.6019078484625182 0.755032725446377
P 7.883074772329427 4.966078241465217 4.074767187632689 -0.9800366479587251 0.8549902743786372 0.5726548651346719
P 8.93562421334813 2.558136233568945 9.854760220759678 0.8061004906564698 -0.31563865138178543 0.3974745510126703
P 5.884510637976132 1.9102145898399574 2.9653470604898713 0.03633868653003419 -1.6913629336560871 -1.1337785897012924
P 9.120539903704412 2.534310900409092 6.193944845973401 0.42174087975920266 -0.6564175494746244 -0.6326885812888007
P 4.895183119160611 7.02852012709019 5.702353177302219 0.4950450877699926 0.4138900162562162 0.7451681739474715
P 2.8065549157291927 -0.07010250603039182 3.6248337813924816 0.2797198259979892 1.3859539304221098 0.4020354309104754
