# total energy = -340894.66328003723 ev
CRYSTAL
PRIMVEC
9.02644003822089 0.00000000000000 0.00000000000000

0.00000000000000 9.02644003822089 0.00000000000000

0.00000000000000 0.00000000000000 13.21110740248396

PRIMCOORD
 96 1
Ni 6.2811206466045375 1.9499096716870474 11.46372712761277 0.1739649536576617 0.2016631909038785 -0.03439313276788915
Ni 4.787244788292855 0.2744254464938677 6.02108154055162 -1.0369744987963496 -0.7656007307702105 -0.2551673334696057
Ni 2.8559927685642985 1.6840449011087255 4.710896448882838 -0.4177176175324226 -0.042517304536920326 0.21776241045858627
Ni 3.621480032395853 4.278352140921882 5.064451281022045 -0.3601953549462377 0.46840871612938684 -1.001570922486075
Ni 5.022203027518553 4.593898438534327 2.634849496112896 1.3266465509110443 -0.35434815213684134 -0.24105274844509456
Ni 7.242608033622678 6.2177369832990115 2.7383854735001623 0.31724353397506005 -1.7262702870562332 -1.3903934542507022
Ni 4.822258349950807 4.404442484515573 11.516545342627337 0.5667899217134627 1.3934049873835164 0.6189740599161856
Ni 5.499096944268893 7.786884326701093 12.448060434856812 0.3781753364634261 0.7826196339257102 0.2637802719495973
Ni 1.8828522472073044 6.324510744797313 0.46591325220873103 -0.008714239944546282 1.0878679432121072 -0.22703020891375741
Ni 2.6359371821607906 1.390721699346209 0.4367894428018268 -0.12805610694068914 0.8458957682765368 0.28576371819922397
Ni 0.8065981858658781 0.05212678969283467 4.697671811299681 0.7871393761729347 0.3304834297041018 0.5591779136941596
Ni 8.617587621205168 2.4803123261296625 1.3440586139254955 0.6675529972661535 -1.2517384887482443 -0.12964504869436383
Ni 6.869030751761979 0.67708050291629 4.646438639189765 -1.3767416677952224 -0.74151823589971 1.2939416044788554
Ni 0.8374677088135525 7.3458253776697715 2.4411484072532716 -0.32058802496726074 0.593893462798474 -0.13959804614201765
Ni 7.663989342949351 3.9470817844261794 3.835184615452484 0.1359851319797787 -0.3095240538436153 0.10535660846064436
Ni 7.590974467916824 3.9727259011238436 12.614678592445873 0.18355928221431614 -0.9310920997392221 -0.8115504580274475
Ni 8.319092269190007 9.009687158420885 6.6542502170297535 -0.8250086404148824 -0.47274616716247614 -0.2876460228236014
Ni 6.8493170062964035 0.7911124250047329 0.4561719179109064 0.025634412738652624 -0.7378392443862261 -0.6279274124547315
Ni 1.7077663860370824 6.301457216446086 9.314966782914032 0.545886338791576 0.48008538113636673 -0.7953008289378045
Ni 0.09142700781672129 4.834164224616143 1.3209680771693197 0.12306713836652997 0.40783224009791047 0.8020947119311863
Ni 6.407915052536286 1.901067603594452 6.9579466039063 0.6135929981099304 0.6981784354614944 0.13057681648001382
Ni 3.250565550403444 4.263386303018071 0.47391519147394734 0.7069695513905631 0.5615037336138587 -0.21504038354173285
Ni 6.014678183851401 5.526185291403596 4.8252515175315684 0.0764268128001716 0.5238805239444462 -0.455500492708151
Ni 5.290703518644471 2.896692987568089 9.219384904658757 0.14173360442778168 -0.8477981275055722 -0.3209461796376279
P 0.14035934031163147 5.528162081814292 12.384396049260088 1.067293204384549 -0.7084268526623798 0.15874967936980403
P 4.069967741737692 6.1649413343850235 12.77486360608195 -0.7902902630970906 -1.0676976389118193 -2.2847198072248007
P 2.4855747407846214 8.290731193982664 1.4082384092594395 -0.462366623700365 0.671184937591786 0.11253667114885134
P 6.670990653083076 7.735126718413727 5.8064273759826355 -1.0254001636951888 0.2690152950962915 -0.47122330276004654
P 4.7247366896897836 0.9904803130416874 12.690867163863793 0.09317523590310405 0.6847192246327949 -0.4399268066396101
P 3.9322784224465352 6.210443619591967 8.243084226576718 -0.4448311859197629 -0.35649990837252155 -0.15388643774023175
P 4.710556152086112 0.9658832634108758 3.6567291841438467 0.8830456378539567 0.27437887340105005 -0.18065393564206306
P 0.2174947853098338 5.582086035757217 3.550881535413296 -0.06927606068800328 -1.273552756409858 -0.008817855401946104
Ni 1.2196706569594635 0.9006943120590511 2.5023025398216197 0.7969620186903112 0.6274072782852033 -0.16519080700945743
Ni 1.715059749744127 6.557031845160509 4.704726876984615 1.5490521165685969 0.09101473791667551 1.0958262788272355
Ni 5.766044887674994 5.679309823490601 9.359660299076234 0.9291866551863933 0.5993148909243613 -0.16180440703572777
Ni 8.260438460565782 2.411666248169177 10.118294689484042 0.9504190822026084 -0.8004011262788473 0.23242772578024484
Ni 2.282380544733538 5.220829844812503 6.935091657240165 -0.4374238377120983 -0.19117823221215463 0.6855658889038064
Ni 0.7078236557007236 8.986696815151278 9.034217412393982 0.03617130771423448 -0.6895886369099543 0.2067552607148052
Ni 1.4743877738518947 1.0347550023771486 11.297069253686692 -0.7030373062156925 0.6264701111829147 0.20608908788571603
Ni 4.108321086281295 6.575590206276454 1.580246254310723 0.4290443553991514 1.6132795590890991 1.263845042203791
Ni 5.653358807825065 7.802454936100414 7.818002979399157 -0.3434849841700923 0.07185744826193431 0.817218197836186
Ni 5.1613365772467485 2.512599902837704 5.0865272458962005 0.6815554821928327 1.1715504091334275 -0.8129378252932774
Ni 0.8549546314740192 7.297705424795696 6.940560777376425 -0.07016360549927916 0.1678344152798916 0.36830127188282374
Ni 5.076415827548885 4.602500636074938 7.112992865118589 0.03808369424559893 -0.9673495394093599 0.31851802981210947
Ni 8.041601443593525 7.218029036872329 9.017439967935712 -0.1388151452294061 -0.04695914235835783 -0.5306134717929055
Ni 4.470380630406612 0.5014404183158546 10.446393154882399 0.22198364762878545 -1.2117940871448227 0.03420544223711528
Ni 8.372844720768533 7.3901813049673155 4.4084538345544475 -1.2059787660146262 -0.13227734411088832 1.7776941500541643
Ni 7.007460239152118 5.981253275674191 6.975055318721067 0.7588107044315706 0.3227842612876312 1.0742722068055433
Ni 2.3507468030468477 5.303439825811104 2.7180795935554007 -0.2097228279835614 -1.1188587351666668 -0.24632325281541453
Ni 2.2399562756455325 5.241491366502385 11.609459005150184 0.05065690292491921 -0.6325597690204202 -1.2942781618826678
Ni 1.0069535664641576 3.242125828787 3.6296724295499536 0.35230926732994167 0.21366227224728365 0.5047841694346274
Ni 3.8152957570464174 2.6795709942398163 2.443672199941996 -0.5585999297035025 -1.019032312495632 0.5541568063304843
Ni 1.0022146853426253 3.1994939515736704 8.068657295543394 -0.28502375470940594 1.3039254551644446 0.8999244158871664
Ni 3.5714013419915434 2.790262230798584 7.082356224328887 0.3549865570517886 -0.8359867366929409 0.7629892612892925
Ni 4.176001335137011 6.607760439261485 6.049801868080176 -0.25668865521013856 1.4141458194752934 -0.4430044171236693
Ni 0.7812609681360843 7.381037521012817 11.405003815398764 0.16666687733435165 0.3083686000829335 0.011551195172709137
P 0.12358550642945261 5.472884161836644 7.9975948395329395 0.006302545179260113 0.1960813259407268 0.4056861402891852
P 8.620918377650588 1.5149977284533707 8.041205182867362 -0.6297436397278638 1.3693877985333125 0.2956789204304069
P 1.7861700458878091 3.3569782542924855 10.399850121116764 -0.5710242715097843 0.16117911474690305 0.03589697100692527
P 4.093355248377484 6.108219183970337 3.845092938894591 -0.5958300176995545 0.655339228808781 0.3010134452694429
P 6.656737903957553 3.9886034094910356 10.505340322814149 1.0817230066566337 0.3831239387179531 0.029211588566949692
P 6.202581590150339 7.908037207488159 10.369834499414988 -0.11430430457223541 -0.7218971192346729 -1.6594771406910842
P 2.5372781904305994 8.348753151790685 5.892074754119133 0.048042348120207586 0.6363840278625169 0.2662652431549802
P 7.044938018993267 3.9641868886648535 1.6512960733048545 -1.4661360964996555 0.8750572203318413 -0.5618364343629292
Ni 5.1840109951082525 3.0117439947586675 0.39204086535421245 1.3002382361208447 -0.5966751393086692 0.20300993473976003
Ni 1.5796811991522317 1.167732519867467 6.970510506064511 0.6161569021823646 -0.9245386148914205 -0.4627090946414482
Ni 6.780752166298002 0.663492099791804 8.874495455141782 -0.01447608212898797 -0.663708940929715 1.9357599159830663
Ni 2.763760602278928 1.7958012576148095 9.328336746184917 0.0626636975778082 -0.6077730489940436 -1.0980263718023475
Ni 6.553583744992079 2.0446602147970037 2.529610229453948 -1.1988069308565354 -0.27198594768884127 0.7882351803402747
Ni 3.872938604364716 6.752752148699918 10.499779132987527 0.7707413944308855 0.4460771425117221 0.45573960530215063
Ni 8.343969138467994 7.17697678669951 0.3063564788127655 -0.3964749061035624 -0.7659442301525583 0.12505357266893946
Ni 7.465669424623271 3.962634340945037 8.36529951937903 0.011486660483360863 -0.2738525685839348 -0.9037517600530564
Ni 3.060676327253578 8.431525608713454 12.391385221931332 0.08482429283524746 -0.9029354347993481 0.09167782542197114
Ni -0.07076277819477 4.758351153111853 10.19935844127099 0.9919241434249305 -0.541669729607067 0.08870177351278272
Ni 8.767462634808835 2.462178207704598 5.836429458024064 -0.3580238012162157 0.3362054197895436 0.29990170026250285
Ni 3.494234304452531 2.581209875037264 11.61751781098886 -0.2911936309655437 -0.3475334432078531 0.16797248351965266
Ni 1.1366815654711397 3.227620339334995 12.726946748113084 -0.5094635771881677 -0.09243424397202145 -1.0245175039799195
Ni 3.1427266689578266 8.316438495761949 8.145123881320444 -0.11051501273313225 0.19338912382054435 -0.2785833984007009
Ni 5.713474899766792 7.873456914961319 3.4118481791716704 -0.8832307572815692 0.17366850546316542 0.3784591862524321
Ni 3.125323692191513 8.442844764763741 3.7248454100627435 0.5250814862310829 -0.7570816375556058 -0.4855993689760605
Ni 3.559098303956022 4.365520474237385 9.35880188461022 -1.3833031230628239 0.2302489729613712 -0.03955642213638348
Ni 7.488091102158294 6.231520357532497 11.203494855738898 -1.5634150701584881 0.45741030813635414 0.7662270515002997
Ni 0.5307673226279672 -0.013340176018119857 0.228723676957808 0.6659170043246273 1.1476142100328044 0.12638720387869848
Ni 4.496458016235388 0.26495580804701097 1.4924722468556861 0.6292885544683162 -0.8538546181122972 0.8250322945639663
Ni 6.158938751631082 5.674264043401198 0.3806242237494233 -0.20129552315181462 -0.3913494119515389 0.11693531443717925
Ni 7.993734231045931 8.89102557513771 10.997176608723695 0.3336651698661931 0.41422194567433823 0.36464824851126876
Ni -0.14081156496722913 5.110671168227393 5.813415646009856 0.6910279404596422 -0.8311813448844976 -0.5534070726486533
Ni 7.991847705037549 8.91391662756477 2.577645333789848 -0.23145636300591105 -0.21123463664239747 -0.9972730664416696
P 8.504594642387369 1.5974903657289625 3.8539975221829565 1.0669062533587754 1.1396746434707534 -1.9195025735839393
P 1.8667761571550197 3.213737674258963 1.6247420914318556 -1.1312931042752776 -0.9851539145806324 0.5266418887396672
P 4.6206798867011605 0.9897220920622422 8.228868485856143 0.6432025934462471 0.5095677068661999 -0.9287464823251812
P 8.471621056221734 1.5897276271298808 12.284097855983857 0.017122004392267284 0.5668243744958238 0.7802773589457788
P 6.544521198999663 7.673268523507322 1.2632963452422803 -1.158560681741979 1.159234824990868 0.8772585988585344
P 1.823629772848495 3.29577898952298 5.935658018132863 -0.3421284701421979 -0.1821983973110475 -0.5718213134897829
P 6.931222924956949 3.887696834143203 6.01928437630153 -0.5444316086229204 -0.33920204052402225 -0.046363931976520154
P 2.4103483878953793 8.340295377293778 10.25543971442924 -0.5058792022710191 0.6380398182983851 0.04280552520130047
