# total energy = -381167.0990841165 ev
CRYSTAL
PRIMVEC
9.22429780429379 0.00000000000000 0.00000000000000
0.00000000000000 9.22429780429379 0.00000000000000
0.00000000000000 0.00000000000000 13.50069224290030
PRIMCOORD
 96 1
Ni 8.50959939295476 1.9842479675431333 2.4142745936761374 -1.3034616281541487 -1.2536732438771117 -0.22009748634966614
Ni 7.219110878154252 7.946603588690786 8.4948386712917 1.0587872237960667 -0.5425084234582785 0.9709634820128633
Ni 4.50085784568506 5.097688375020964 5.848297176350916 -2.7800657140646634 -0.7819303211681694 -1.1116766155959306
Ni 3.106577529764222 7.215089084225309 5.972962641420339 0.2812966835668058 -0.47050545075741546 0.43490647060688326
Ni 0.8225094369674069 7.718200745859246 10.951316273187329 0.5514826019324309 -0.7505217249499009 -1.4139113348669843
Ni 3.529493144567359 6.650220747466897 12.808215427372211 -0.5981429821034473 2.12346947292033 1.7838866520181214
Ni 7.012311341243776 1.961380932795773 12.461652094422373 0.7797677662992119 -1.099451277174332 -0.2526419959445907
Ni 6.477366627204378 6.017147951280497 5.059951771894117 0.7416257080118518 0.2597598379362946 -1.0120713077967667
Ni 8.465710183060471 9.134831535839322 11.847005755925093 -0.8778124144794753 1.6346744798251074 0.19748591959773729
Ni 5.883773826467232 3.962334104020822 7.382435376150738 -1.7132630761632883 -0.8262867357963577 -0.1324604066559719
Ni 1.2143419347926576 6.409918560212568 4.578745973155717 -0.030843724853733975 -0.5721010495137309 0.7024508375846031
Ni 8.463422557155935 6.900918718569664 12.675503607155502 -0.21337996512017443 -1.2491355039077583 0.6676627833711405
Ni 7.959692867555855 7.547006999237115 6.366481340920385 0.4895868928688987 -1.4970677530815057 -0.7248510596566742
Ni 7.902105575128356 7.17097849117897 3.6151748814200437 2.575477121983874 -1.080209912446217 0.8396593004485217
Ni 5.468560500495901 7.161911006242844 9.639251202929964 0.298980216889498 -1.8950686089112911 0.7130553525733269
Ni 4.888877941146016 2.8156616193720274 12.834771258890635 -0.5337988114994227 0.7833991924042122 -2.3631662215581626
Ni 2.280283363326528 1.5230146188390143 5.6032463204850735 -0.7060966618673065 0.16750942784030506 -0.6769166978692407
Ni 4.928385609489276 8.89891089013602 2.618918412143508 -0.9597069352624374 -0.04382959559044065 -0.303554980744374
Ni 6.201910640263808 6.895476382748389 2.1755552959589783 -1.9448230546265988 -0.9882451519114462 0.7733788320537326
Ni 8.064462444264414 3.677386314436027 7.606073869064162 1.7004772372525294 -0.4284064647048364 0.17642704204490905
Ni 6.148806356665359 1.6253582051730049 8.437689533019304 0.7594503948980985 0.20970457315111626 -0.14616772893973537
Ni 1.056763252021719 2.564124237151064 3.8577287198167016 0.6467134348129829 -0.1070789904683898 -0.19826496385560693
Ni 1.5602900070657522 5.260174384329052 11.858833150823463 1.9325717480630717 1.819928633243343 -0.753756944057747
Ni 1.3097949705190328 7.797354447015801 0.10600471021104886 1.181974689790545 -0.16223275282239802 -3.325812441954582
P 0.8868341566556853 3.801250188009062 10.354355681249595 2.8565706884009385 -1.527960071784988 -0.825629561828333
Ni 4.7825863552670995 0.6125487331315894 13.306512005449019 -0.9745910514631215 -0.3137329497186403 2.0853585249812214
P 5.356282345213582 5.122769241288843 3.1833688882024225 0.15050800818630208 0.29952400520810996 0.4537284884093927
Ni 6.93443059321152 3.8235453162802884 2.5030962815687583 0.7989253130642692 0.5062764377094378 0.9462351260282477
P 5.725733928796186 6.549629777753318 13.319378056302433 -0.06303933574967206 -1.5021441391631485 0.07399094966516934
P 0.6505915829521071 8.293787716896171 3.838436100545179 0.9055906130340081 0.14747719177977828 -1.1336677751550412
P 0.6577394914739826 5.234143415366951 0.23132233314922493 -0.4654807438493145 -0.45686446293521316 1.488962864586184
Ni 2.2561802726468776 4.425707489861443 3.580937054525418 0.7299891522141879 1.1578338308782834 -0.47545559567383927
Ni 4.248896145755996 0.38870915052171845 5.445612291926121 0.728391725820081 1.4889356108926743 -1.427629455784025
Ni 6.656345681340333 4.537930299355749 12.394311029287385 0.9012256511970931 0.460457065382478 0.17061917711388036
Ni 0.5523804821230851 3.0374506405360178 12.357656436316194 -0.014900828371232402 -0.20429497209977074 -0.3563955215841733
Ni 8.717321359665453 8.07331777034649 1.2275557416807548 -0.7080774397427612 0.6524235978238828 2.6855825579834134
Ni 3.743653671283561 2.2235908278052383 8.751297216496818 -0.7700392261575383 0.07601980716974004 0.40703314123538287
Ni 4.304850737437112 3.2921796298657298 2.93055486313796 0.6660406743866852 1.22114184690831 -2.0001472811202006
Ni 1.3679080479326553 0.4173173883456246 1.943019967622469 -2.7008405125837482 -0.49429483986752937 0.9738706283573293
Ni 3.13907473162584 8.59112373869787 1.1757188766278037 1.5836779341725824 -0.5143810690944431 -0.2217334792911923
Ni 5.296564239947583 4.371274907350683 0.8834479168590915 0.13184128501473424 2.2925344181732132 0.4362421586991712
Ni 1.160665744718075 8.626139173914078 6.215435305994578 -1.2884163037852518 -0.43983476114643605 0.0002175153274447867
Ni 4.574965855834431 5.097282505908868 11.744887242462353 0.2784111344888947 -1.204187221331842 -1.188741061980101
Ni 5.5599917422933345 8.900128497472304 7.0140012326377725 -0.20888053458792413 0.4527018469170913 1.81841528192261
Ni 0.6708149338920476 5.771827745912991 7.071230622302788 -0.012245650136572458 0.9571093497385904 0.25387612546200794
Ni 4.192747843816834 1.1230490574652572 11.189427689666147 -2.7157117732686262 0.5581523006431226 0.5333033599202428
Ni 8.068382770915333 3.412870344926021 0.45560560449299986 0.02861406419226685 0.6965444994024972 0.6421669530928811
Ni 1.534655682917743 6.7930128805403704 2.098331317944476 -0.9447081478607601 -0.5475117902101408 1.1851777701088748
Ni 2.9778247782500404 1.4535925520747408 3.0369811237677076 1.1920102196496762 0.06268092396898882 0.24906559144724202
Ni 5.531857633386739 8.322853479900985 11.7595889286182 0.38012834642473886 -1.0992054797121134 -0.657748609581222
Ni 3.04509758357981 3.249212849771657 11.149479099878382 -0.8047069527430528 0.17167615762348498 -0.5059686766610318
Ni 1.6610101169513622 1.1796585743045271 13.173138803065553 0.7086713645730183 -1.3904140230759925 -0.6364398208011168
Ni 7.761213647443329 0.5771292736628866 6.954045140483318 0.3326583258682335 -0.20384734303939087 0.5795114830451891
Ni 6.804709290407112 4.880502278560053 9.850281002904234 0.6493138485503075 3.1814763669069466 -1.2024540406908195
Ni 1.8019204932323933 3.948276273865527 5.9192836840563565 0.4633847805522342 0.3623782215301695 -0.8729507155117998
Ni 1.0119423880292122 2.808522012718354 1.2698251648458634 1.8044058550173956 1.381089146130641 0.1657045134210824
P 2.6850455596614093 8.541137267824153 11.83266842954033 0.2032683306074693 0.5353021355178265 0.12995229552213747
Ni 3.626791039894167 7.083384557350437 8.240957394948387 -1.6632844302523162 0.24388147614314126 0.03461913273576618
P 1.4917626972076885 1.3910149144280717 8.393150932545662 0.007738763405154414 0.02942139058491062 -1.3483055239417165
Ni 0.25319037642295106 2.0332382142326173 6.651763972522659 1.280948020432665 -0.20846812964085387 0.5890433337950242
P 3.681306641086946 2.4658762391300333 1.0005088706555323 -1.1407622201079772 -0.8403013049078947 0.7046923253206121
P 3.5275837148809113 3.980718129939132 7.488280506006349 -0.1252813724090294 0.32621539845636716 -1.3059805379212606
P 7.2208081489866505 5.611758502681469 7.816266102779833 0.5096227284738513 1.6914192408153192 -0.6046257616143136
Ni 1.4221007986953589 5.623916127448319 9.326386075441624 0.3135267472451052 1.3027401766070918 0.6866213267515143
Ni 4.508689274688895 -0.002525612792992036 9.27581293921497 0.3005493611488308 -1.0017475572732555 -0.7188570468567683
Ni 1.4811178573131931 3.63755579566269 8.187143762833571 -0.22272695355271319 -1.0886639567508412 0.4739031635850548
Ni 7.141193232929988 9.194014631821195 3.0318773196831112 1.2900569247124687 0.35513233860103355 -4.299780515121724
Ni 3.1864691747609495 6.785365937496577 10.46568281140789 0.27151543581032594 0.4577849178669536 0.6546062072974985
Ni 5.434199990437847 6.656244214062309 6.962132082541814 1.712323337957838 0.6540577909931962 1.6449840892812315
Ni 8.274472036879644 2.4538385302372117 4.737284905348681 -1.70557702037294 1.2703594462835412 0.26830155685871854
Ni 3.0397843879305646 0.20077053573626322 7.333089993988171 -0.11033503551184225 -0.5479013123390758 1.8525333066522418
Ni 4.316906894925938 6.8093029908121885 3.9383140320231917 0.6411220567681346 0.13130521000560613 1.37400961357604
Ni 2.914149449141114 8.546275201811357 4.089143295945948 -2.5485592145471077 0.05192985610007185 -1.445830037952452
Ni 8.591990822710073 4.85318913217565 5.4618405994013255 -0.5172121107853351 -0.1907177476359683 -0.6717953174822753
Ni 5.791890594067694 1.5215202825626641 3.7101519433695076 -0.5123128737115048 1.431826267474192 2.066382498099351
Ni 6.274422846858806 3.737860812138203 4.793083606393561 0.16890399419498653 -0.3733969412381763 0.6110509484143669
Ni 1.5262615717357755 0.9224159637692262 10.400757589919671 0.4835825956563478 0.11202013652374902 1.9306462489055845
Ni 4.017329368709714 2.98200338524502 5.021231858600241 -0.8829348233077052 -1.215765670198061 1.8989643444212714
Ni 8.424625159758842 0.2088805385397643 4.780055207895306 0.9402711951353291 -0.3433790547198473 0.5642908094406927
Ni 6.460965825356533 8.373937642236958 0.5816039806237355 0.667855616108237 1.9369338816865094 -1.027812115570791
Ni 4.457789598312963 4.5135412554380325 9.34253320909441 -1.1497759935708134 1.6026932989328204 -0.03938827198963539
Ni 3.7179271041555304 6.116807266895859 1.8877479739935126 0.2881021365244135 -0.4816807506479446 -1.5297066221624493
Ni 8.612717820320931 0.5530141913958336 9.195118780292054 0.43359006578830483 -0.10382757341062764 0.29883546378151765
Ni 5.8960052456181 2.0769521624648646 1.4354880223858968 0.4945725190089482 -1.4906201976839488 -0.6598790256606636
Ni 2.9306332696709783 4.288975720575391 -0.0173010933328556 -0.4621956453401395 -0.344010260545943 0.9755086781813845
Ni 9.074486178309177 4.80246471746176 3.121846510247201 0.4369039606528862 -0.718244352973434 0.09471429825544979
Ni 8.322733564026956 2.9067054406533694 9.927734665938988 -0.8649496995841943 -1.5029362960471406 -0.1763213697049802
Ni 6.1397111988352275 8.499074468934293 4.82306810947939 -0.17690012502658567 -1.2553634870953414 0.538128292112712
P 1.0011407350686803 7.603302889944312 8.353971649211278 0.19715553284151208 8.176108052889145e-05 -0.2535315976383956
Ni 8.667390234579747 4.943033794716711 11.15697199714554 -2.304747672409953 2.292226914235123 0.6776821152803556
P 6.407391102559975 1.8570448980933152 6.036146315445751 -1.189832495272067 0.6891075835084777 -0.3150622100530251
Ni 5.905580066944344 3.1082471277026134 10.416810635732835 -1.8189328449889772 -2.762950651650932 1.5957086400848712
P 8.510226645218907 0.7614814813851012 0.4670741741990882 0.10836891292440691 1.9612742582040867 -0.6216652335951035
P 7.618855056375958 7.29861510263489 10.82721810244504 -0.9817070936826126 -0.05580502278476195 -1.9809575955656267
P 6.144766114140412 0.9183766436740793 10.59622138701529 2.3404304705235432 0.051931141651652496 -0.5899892426480613
Ni 8.033717859023207 5.9283179615196735 1.2998428754044997 0.3321019391441313 -2.0798157407861213 -0.34431776448403284
