# total energy = -340871.62632109976 ev
CRYSTAL
PRIMVEC
9.20455885593559 0.00000000000000 0.00000000000000
0.00000000000000 9.20455885593559 0.00000000000000
0.00000000000000 0.00000000000000 13.47180229672739
PRIMCOORD
 96 1
Ni 3.9692910242709805 6.808483157701799 1.393941120890902 0.06079142025575982 0.5592982413221077 -0.30495546063632645
Ni 8.545079621490657 7.4010082106441795 0.8929461990043837 -1.0074512925262522 0.027686410171674898 -0.0897358712042519
Ni 7.688227258257528 2.4375880356735444 9.658864352608031 0.032933774613543285 0.7875965183150113 0.4873130092330574
Ni 6.322887462409857 7.04496667812489 10.712641804623184 -2.13605862243925 -0.8580807403785028 -0.5411372541423648
Ni 8.189120929999074 1.1249351334465238 12.734504108683268 1.785669454950157 0.9419696658836746 -1.3305924229326698
Ni 0.1558037230849128 1.1215386513106012 10.344929812211925 0.015367997815638051 -1.8956180536568579 1.1805361575718056
Ni 3.86008814063796 2.190132681358801 0.7386409780650757 -1.527658738494485 -0.6518774955124257 1.1251746500823654
Ni 2.8653514890684653 4.60250022637536 5.355539895511502 0.9905226350917135 1.2666411168916896 0.247925821415844
Ni 5.912014374108208 2.1295206627543304 3.079667670933448 -0.09411857365297983 0.45353385590008344 -0.8926710767588626
Ni 3.257373641287812 2.9144762184977835 3.3516494921841775 1.8917225752571933 -0.6938733803282372 -0.676393735486235
Ni 0.7478344912286513 6.702824029142845 11.030509271119948 1.7293574106219893 1.4315763562469153 0.36540286728910615
Ni 5.4801917103557205 8.554044861600111 6.570332691710102 1.10034267864035 0.05896593701124684 -0.5760132400839435
Ni 0.6395925635170141 0.2777236249265793 0.7181359827962558 0.1385202396968066 1.0624073370471574 0.3808634248185505
Ni 1.30058572585793 3.2336166754536224 4.301061056128444 -2.53683524124196 1.36523186738341 0.7689938156121595
Ni 4.062026952507888 4.610480578710982 9.204500645216896 -0.4890155937464611 -2.0080922469988898 0.7305316549812193
Ni 5.6344048857086895 6.088428944886231 8.348879851928988 0.830124364374893 1.6094936096841055 0.15596260354297012
Ni 2.112529047516084 4.645927334010271 11.379281043230154 1.6193795013392498 0.7611365243512699 -0.026547411471225246
Ni 6.604528547491039 7.4649154612396 2.374539570398671 -1.6847161177635308 -0.34658933412702886 -0.1705926947513191
Ni 5.1630210289475436 3.547630193250359 4.742127858116993 0.06453366090701144 1.7296690283251372 0.19188914223625017
Ni 2.857895796574977 8.140935065550416 3.633102804269228 0.761122897504515 0.6383542642150103 -0.7982329149829349
Ni 8.17408068119122 6.120654104663641 12.33682943700682 -1.41074373577228 -0.8655847620650318 -1.246517349558621
Ni 8.996443563222991 4.424861449299024 8.373115454812142 -0.5579957204606003 -1.1137034162179722 -0.6802195369902285
Ni 6.730667819010502 5.289924278833624 3.452862818922941 1.3803090734315069 -1.2347591805814282 0.46669481876207364
Ni 1.541119252079953 0.8852346197808718 4.949728394002656 2.1130508486901673 -0.4401183538251259 -0.09729260050558729
P 4.646764948845959 5.0422664242289335 11.298005710948361 -0.053071168793366666 0.9896050083734503 0.5216902011613467
P 2.2635758546989786 3.320093503819454 13.26953656794222 -0.7498987466539214 0.39409355035557936 -0.41610707851219303
P 9.094103930329055 4.772443992433725 10.589375275853373 -0.16641259523170052 -0.7474304876190869 -0.03317957207576221
P 2.9054557510365258 9.042484765509942 10.05104206186829 0.37076438871133566 0.21126394721843614 0.29478623341280846
P 3.679908905378657 5.5004233302331125 7.244286793063464 -0.36062447206385634 0.15942639372185446 -0.15286519556456898
P 2.1884298380115226 6.867235855462214 -0.1593401145120711 1.7486026320048467 0.669919183505485 -0.8190804478559055
P 7.95251775031374 0.3257364436729178 6.296908516121435 0.39431749344092737 -0.3813858729809238 -1.0746776697740783
P 8.23756452208948 3.7648485724526215 4.289852665079899 0.18387707056505104 -0.20527173419074324 0.28951110105679817
Ni 1.300705385120171 0.23487272266215234 8.612886843579275 0.6528619709128821 -0.8279183578625096 -1.8380184008655185
Ni 2.4191881229643055 2.343020400268483 9.75629276483652 -1.6412094527301477 0.12401176166798641 0.3675345689201283
Ni 0.5717614095759473 7.005884122165197 7.457625450801522 0.606474127676962 0.838494333606143 -1.3213624196939695
Ni 6.61126628441108 1.334826683976173 7.580785206691179 -1.018994260168845 0.2894563365594628 0.8056798581792834
Ni 4.780902981818313 0.46833254557399545 12.528870586977677 -0.4111888152749692 -0.8763420005815359 0.20379566386584902
Ni 2.479376731871615 0.9778554910348557 12.004291744959287 -1.5186305668539457 -0.1263445235662211 -0.8832107026769112
Ni 2.79041717722959 4.5951181703509425 1.6218699245196129 -2.006872772769492 0.3151840803428701 1.4770835966500948
Ni 9.068156279539988 4.774763541209477 2.2849930217284213 0.3299890065661865 0.3907140923603852 1.2490336882225714
Ni 0.7292698169198651 5.443888931103476 0.29918221246987503 0.7955628243499395 -1.0083234107185601 -0.9300685435707142
Ni 6.333445091162981 3.968784773546114 12.409914553016138 0.7013560618585276 -0.055382076314730425 -1.2510034103544325
Ni 3.761203567233583 7.254453228074646 5.54052114901013 -0.5329364634991273 -0.6340070429899081 0.60455891293212
Ni 8.34300274124122 6.4976452126337705 9.136225831549675 -0.7508125167174424 -1.9877455650217382 1.3413553178761288
Ni 7.898625059512044 8.5426772316872 8.448288164719637 -0.3209708622279762 1.8762584181833235 -1.0689482234894687
Ni 1.2239485706717765 7.031712113692022 5.038171316092696 -0.12126453794015245 -0.37871321124476715 -0.550527179997697
Ni 7.016828342380947 2.0370884849523425 5.163539245598635 0.40092728544796113 0.6764410437844027 0.5784560451974812
Ni 5.745135726074943 5.83450278585183 6.017772911900408 -1.8202258527687878 0.21795447186473432 -1.7120556861187481
Ni 3.428955818783019 0.8720813054929768 7.277494079247115 -0.3052459952935517 -0.6403085597279037 -0.2589450553444831
Ni 0.7391573538044395 2.8948981222834007 11.634746204468149 -0.27037566577892785 -0.37357100492219536 -1.5789262784202098
Ni 6.996596722503555 8.448799938179683 12.564179273897457 -0.35999120935523166 -0.785048555082177 0.2533513633067894
Ni 6.5800352169661345 4.772342742288752 10.126200964937835 0.6635716440209024 -0.837386702364261 -0.05247287308773544
Ni 6.3959624534046755 0.29763860798696384 10.381518853237687 0.782039335942208 -0.07041017429244648 -0.48093564495180396
Ni 4.4702031051297935 1.5435676646765804 9.490560838898233 1.2041049460306812 -0.6246590261161048 -0.6422042340887197
Ni 4.303711048559154 7.13950669985405 12.34460268677318 -0.9697694617047621 -0.10047254089546567 0.15757519944572862
Ni 1.7880039237593923 5.605972004088461 8.980666949724425 -0.30737358315951585 -0.8085155278558657 -1.1510574313863982
P 1.8529144712459111 8.613497105816705 6.3620049956923586 0.7166219868786625 -1.1632447174812095 1.9074155605124181
P 8.1528917872159 8.012531472607005 10.619376614264823 1.1286937189792172 1.4875834677401543 0.5997933732226766
P 7.5852006334678785 5.817934580310745 7.161111639879626 1.237229496498792 -0.4269242237323551 1.59914954744562
P 2.9524450228627708 2.3376265289089964 5.684520946102882 0.4922089038727781 0.7692678952091526 -0.7793695024195287
P 2.911254622975906 0.8848029259809402 2.596864638731041 -0.5536176459975627 -0.5286319225865025 -0.35757025861856484
P 5.5515362443273615 8.46268041259966 8.69331351555502 0.11187204098165894 0.14769702110006822 0.6132680106703439
P 5.9304234913760805 3.140365291933214 8.780193503589018 -0.7221753125967241 0.5733156386471223 -0.06799616553431514
P 5.099555597166553 3.9731845525731355 2.23697928252622 -0.30677760144672966 -0.17519111275527893 -0.12357030325519362
Ni 8.463214277000429 6.938561980316587 3.416247084677143 2.3989819457051906 0.05538130498378204 -0.003529096199181019
Ni 4.368888528246057 4.512903052632624 13.60827168931798 0.8768605920891673 0.3034631923615161 -1.1278462833772576
Ni -0.003980051153314052 2.4977214172290503 6.269318772072074 -0.03410954008919932 -0.6373880436469991 0.9277944028245569
Ni 3.237740317721626 6.773064016078412 10.1838334679125 0.769250668817972 0.6427711623357834 1.4616657194331277
Ni 1.5333321954756431 7.4450980465007355 1.8306965076153154 -0.5367668929888111 -1.1031207556061196 1.021481802477389
Ni 6.09523111371671 2.4094773136055028 0.6025865559851366 0.49357518809268547 0.12542483996542914 -0.11104645975657004
Ni 2.932839312972486 9.0393276018985 0.5030024361245798 1.0013631773506433 -0.9336596033560823 1.013177910597384
Ni 4.866477763438019 1.274297506399408 5.065693866864029 -1.4906348529719684 -1.2352628596907242 0.4543869479289981
Ni 6.107104994354488 6.273965233270484 13.56354489800396 0.9074634045766887 -0.5889235203877083 0.6259098678040705
Ni 8.840757658488593 1.2296922152593526 4.017627843481233 -0.46482768364634786 1.5749680651034101 -0.0014187347243975565
Ni 7.9325714717540015 2.733928800893123 2.075371164766747 0.2826678528827196 2.0816602501940276 1.3872212271703077
Ni 3.65847148832022 7.6145171527169655 8.041803809974649 -1.1318163237685992 0.4653300772040631 -0.5174291118921476
Ni -0.04677664652180084 3.055710966176902 0.13314854291920541 0.010028844990911761 0.613882247215575 2.2646970842459706
Ni 2.3819740924073014 3.3565619651271095 7.5389145899212675 -1.5839988078471108 0.5964331985011921 0.07719454420413158
Ni 1.0908874710595933 1.993504899820654 2.362523019102067 0.5451520317287127 0.2556507008639275 -1.2460118706771122
Ni 6.944986762243074 0.06465926303581226 3.966166076614759 -0.595340993878278 -1.2303011448100747 0.17864281874930524
Ni 4.663397586297482 3.053096871524864 7.064154501053194 0.5417946852207056 0.42269707302488496 -0.03077456217869539
Ni 3.920967091442815 2.69480022214026 11.747883116461315 1.1406460062450872 1.7295654128677374 -0.37412867719787823
Ni 7.695756587220087 7.155771154960215 5.615599051963694 0.6707223961330707 2.200802342474539 -0.5378956072766156
Ni 6.912733988789761 3.9210407279118864 6.457560280238842 0.884438147326109 -0.8085916325094397 0.6929902063923356
Ni 4.905302591755961 0.19704935032358134 2.4062658430981227 0.001336459423236408 -0.6135356625094337 0.13377732569518253
Ni 0.4922533525518691 4.97217371023151 5.984619012156834 -0.975655488171894 -0.30295334260463314 -0.024171197929564823
Ni 7.518743720130859 0.7357719171388777 1.4333053363447938 -0.9805177013602016 -3.14787204858894 0.49434883303391636
Ni 4.541832980419086 5.67649733234168 3.4461545365905284 -2.2180981534405086 1.0037514750771614 0.7600129522697878
P 1.869547108697434 5.56102614427895 3.425744348275638 -0.010349975775756368 0.1240590699661541 0.5591642868474048
P 5.72551160706739 7.611682148657714 4.439511424820796 -1.0589186071676084 -1.4792312391207167 0.0693490800177838
P 6.3460553364914745 1.6662644312669508 11.963984062245418 -0.23269666317091536 2.662077532882938 -0.20173903844713645
P 5.583273562497173 8.293215283590259 0.7225330004556872 -1.025012184228151 0.20471406191506034 -1.3456783707315148
P 0.7902546201490102 8.738623875886436 12.241623925688428 -0.07395135467648555 0.14947519604641352 -1.1861419337943573
P 9.067944574691408 8.904462408794066 2.653782867955713 -0.19321711701905434 -1.0607014100996441 -0.30330558373772926
P 7.627679671563495 4.756161128210293 0.5174250590480947 0.8806072036157933 -0.33540992047144175 1.1095510846124954
P 0.4447440231628069 2.3725486243661504 8.508937922014507 0.8792326918657697 -0.6878778248664347 -0.21052089840482452
