# total energy = -381168.2422029235 ev
CRYSTAL
PRIMVEC
9.25288993096797 0.00000000000000 0.00000000000000

0.00000000000000 9.25288993096797 0.00000000000000

0.00000000000000 0.00000000000000 13.54253971042404

PRIMCOORD
 96 1
Ni 1.4054214584404907 1.5207309733202417 8.625757777298803 1.8338753252314222 -1.5439736736044247 -0.44095756189696955
Ni 6.394024560050907 3.3277186038251134 8.933851254826575 1.8294165181291204 0.24458647262996583 0.42547412154938985
Ni 5.988766484886139 2.9404573996634844 6.689364779324885 2.1307634354785816 0.4657126573544624 -0.5851113457304697
Ni 5.475878793521623 8.037125003302517 9.763602312838026 0.3071604387074452 2.467294871148977 -0.17167924294727852
Ni 9.169465919884068 8.025595902392537 12.00879293326688 -0.6594643067207482 0.6829896435361978 -0.8959559181577215
Ni 0.6625319050778651 0.4368761255014393 5.695979137956513 -0.2081238589275577 -0.08479163982509914 -0.9101383803056906
Ni 1.652908506626071 7.495914215721749 6.131574663485288 0.22152470571449592 -1.5832945826912346 -1.6859368775445094
Ni 5.825055102542419 6.16432156639902 0.3364397059689608 -0.6066217089984197 -0.057880674366868064 0.19477906218953553
Ni 7.912849438036113 2.0884790493519096 5.259272340341634 0.1553319119375067 0.38887241116595606 -0.021011312144344457
Ni 4.576053749144633 4.424935550058123 7.632602532890834 2.3760747020897144 2.0502521681963914 -0.7615543286149787
Ni 3.7194026893952263 8.777781834313956 4.656033879518378 -1.4646379146875743 -0.3373688439700255 1.4389255975231348
Ni 4.723702114490179 6.93366235633577 11.788645399093113 -0.30341151318797427 -1.546449645948743 -0.1647038400707099
Ni 1.5560955188081576 3.681475093383984 12.213813842908037 -1.395241526371623 0.056829093173902126 0.4298593951012791
Ni 6.94589467688392 0.6542163328565176 10.175281893646073 0.6297809207237024 -0.7257113507744405 -1.4015029339003024
Ni 4.919141656561284 2.9471842506759685 2.220205041626915 -0.20724608430829466 -0.7863024820939362 -0.4939099457242849
Ni 5.749977153277911 5.4155499508787095 5.799146085320882 0.8333649827993777 0.6812526062404332 -0.31606699716845565
Ni 7.58861892039036 7.075990309945169 2.1901127928472706 0.9103579525156644 -0.7887200903964934 0.9554247629473159
Ni -0.1927765603360384 5.568259647041077 12.478421513416038 1.5662826215142702 -0.031212163936746244 -0.4872713573618447
Ni 1.1130949054316657 3.1089340203447966 5.184070402351448 -0.5916797429766067 -1.8139428479735538 2.0865047227705227
Ni 7.9882419855598 8.953725537205825 3.5525332957027294 1.29739742423794 -0.062147420063022 0.9942607619779069
Ni 4.796022702541867 1.2853189465532198 13.554863871075142 1.329979471939019 -0.17263646465422527 -0.16881760512876734
Ni 1.4571821249657138 4.195954281824356 1.0261131132131533 0.36126287697880366 0.8339339679289701 0.6676324443538373
Ni 5.782371521083561 7.419707413880181 7.399575901159601 -0.3738648820135303 0.29790189622365465 -0.5133865663916578
Ni 8.162168558436923 7.3837691892137585 6.493553271076749 0.45264091177216886 -0.16393405178422088 0.015404764590844435
P 0.40602143858778034 5.637647068970401 5.50811678748668 1.8603317196507383 -0.2735242387102386 0.29229843399394817
Ni 4.7728904776021 7.993220040366839 2.7472394764755954 0.40259284607584217 -0.9332235442599283 -0.9358237008869367
P 0.5793724817083998 2.112379264159677 3.3239619304948955 -2.1966109301010106 3.6704657354011627 0.620666360016944
Ni 4.139446882741494 2.58646033496524 5.516012278503121 -1.9465559781573054 -0.2561898611968491 -0.7725141700605921
P 2.169330801961384 1.6615136943036644 6.530984912185282 0.6866434382387013 0.29493201496205335 0.511119624734352
P 9.074216670472083 -0.09700082148442422 9.582390014393875 -0.5274345598442917 0.6369224168644901 1.548723272474268
P 7.3056377862572015 2.0119113848012806 0.6691912099935251 -1.0183517414888397 -0.45579899778517624 -0.3637445057500768
Ni 2.2174643356160515 -0.042453184498458196 0.5689518770175336 -0.648388765632877 1.5193440479812026 -1.1464613273752835
Ni 0.19984391769963603 2.1323284949477324 0.893260118939083 0.9079794249811587 -0.5402448242350825 0.722109492355795
Ni 2.8717824502623035 3.2705264908840332 7.938447558154459 -2.2974894481856434 -2.3517577226109045 -0.7457808678308059
Ni 6.157594715386535 3.5244442976028694 3.938197451054517 0.13145741931275426 0.9134345345584591 2.5352840947047564
Ni 7.57765424576891 4.355548128128798 1.9191400593248436 -1.5680415131869059 -0.09294152262574316 -0.9821189844090505
Ni 5.935562367524675 5.907757433147074 3.0094228898099087 -1.41339891400694 -1.9912857169645126 0.7785084399708141
Ni 0.8001251548865925 7.387729426123447 0.9685527352510321 -0.16249911910990725 0.2588393830045542 -0.36793283279981154
Ni 3.9291194406991545 3.5253233221505798 12.133411780751393 0.9254138184075225 -0.38991910726291557 0.4802550739450116
Ni 1.6560729949978312 0.16068476203260068 10.969904354863994 -1.2376182472967783 -0.7335730129107044 -0.5076242099865839
Ni 8.02256095448044 6.298368183479981 4.4622940933358475 -2.071278906959704 0.034310600356411876 -1.130464694836711
Ni 5.00771957230064 5.971361798841459 9.547612102130431 -0.11467582897904122 -2.658490586862628 -0.23301830817639224
Ni 2.711827741248802 5.549522544839865 8.25570787378136 0.8838316240903618 1.522056047595727 0.9592418227005608
Ni 8.159587002133645 0.6110469746739242 7.54522564227035 -1.2264200645881136 0.016025171783662726 0.4441788970477447
Ni 7.810225635313329 4.527540847000954 6.059825904034111 1.0786947613532714 -0.7906700150340124 1.160142938627434
Ni 0.8722810414967094 8.537974684808379 7.875176296499207 0.7378780680439615 -0.6323021444836594 0.6513311360906525
Ni 1.6721082533260778 4.465315161912981 3.545206857419806 0.23615608247442557 2.039355318778229 -1.312377956807172
Ni 2.6054935296456807 2.2566780833339446 10.751408461550925 -0.36244095644730484 -0.7778075572490475 -0.5375158553396936
Ni 2.51477819632189 5.524817328604194 10.867170442750497 0.9397430905460009 -0.4241003811303148 -0.7459603308314637
Ni 9.141827537526035 2.36239235130868 9.92985083761314 -2.813743308822767 -1.4752336879255497 1.860179767453906
Ni 8.111647779168472 -0.11186096278573063 1.4246619178563915 -0.14953433141912312 1.8024777847567475 -2.823759812518505
Ni 7.85507439302655 7.174385541948963 13.585604747442098 -0.5505647181038518 0.14248385233024494 -1.221154188203484
Ni 5.68318054054184 0.720425387079119 6.031156749732761 -0.5412946056558355 -0.9816998945937611 0.2521614567637464
Ni 9.071681378618685 2.718693385610925 7.41830560104883 -0.14144281266024028 1.7753043096657488 -0.019785410157043343
Ni 7.103804497212745 6.6149095495557555 11.205192392905339 0.14966057258434223 -0.9428929490288923 -0.34400408989835596
Ni 0.5562559866815917 5.589578305545566 7.810361652795975 -1.8659367245423413 -0.029875961623825963 -0.6665109291548843
P 8.47957969617043 4.304981084410467 9.21985623340386 -0.05736722506555926 -0.10357457685955711 -0.6467049501725507
Ni 5.75578796818278 3.7198930925639493 0.19447909209160524 -1.7751634132125107 -0.00879677235602356 0.08191046162256214
P 7.60014802130034 9.244506857588673 5.518653053302245 0.015281351639102716 -0.7763404857852179 1.4038434091080212
Ni 3.099311014769853 7.513152349746864 9.561980914974018 -0.11142029815622101 0.4440230881961708 0.4580034616356628
P 2.48376250912265 7.656877489742625 2.3053196006482892 0.9307611987623648 0.4137874292400809 0.4243783173820498
P 5.760923322119409 8.69542186063841 0.9835562963469651 0.6781819377349094 -0.5054246312321038 -1.2350918813304985
P 9.156336069008256 5.496966129776714 1.1785572514332114 -1.29910155141324 0.6704933108414001 -0.1594330785900738
Ni 3.333640453409694 6.280075219997614 3.838646533092733 -0.8699075578101018 1.4610895352146835 -0.3540391055368548
Ni 7.824595373445913 3.682067278342442 13.029575456564915 2.306434316083757 0.8203120062701614 -0.5009979629193179
Ni 4.283801219255616 3.483907386618421 9.755964052162913 0.2899798131631006 0.6371566443624833 0.8590485036084108
Ni 2.6219174093529154 4.874857325136593 5.8927242628032195 -1.4159731024920192 -1.1365358407314556 0.15772458053939933
Ni 3.6147432508777437 0.5340388725604419 9.406810875367057 -0.37604672015619756 0.4119390631774325 1.4301352529250144
Ni 7.359980009085702 1.9443930466470885 2.8112953832008034 0.7443528771350277 -0.23546394150340738 -0.4314416519867344
Ni 3.651606764541757 8.649573790807791 7.434041991030855 -0.28829342659961316 0.17173760698903973 -0.810435627696714
Ni 0.7611936203129646 7.049832389983281 9.862259401628137 0.06519289175756514 -0.26143131210144654 0.5366794754813274
Ni 7.806922353591931 7.54668482301955 8.745555869105868 0.0052100834460297365 1.34414984990213 1.7807355079836493
Ni 3.856576783288045 6.654178814613504 6.101983921342337 1.3346804769591143 1.8451084749430804 0.996144095043549
Ni 2.734700885269244 2.442855482539166 3.142045487123579 -0.5154938425426477 1.1828671196978273 0.9822359696028891
Ni 3.685379812953817 0.7265295185962247 2.2148688999778097 0.711154278895872 -0.907411725403147 -0.5380519303488217
Ni 3.9231975911145747 5.318042996312604 1.6966774520791033 -0.15414097695319906 -0.8089523582829682 0.15290813298736247
Ni 3.0316353774860705 2.6576335646599154 0.7113316468107977 -0.25706352205105404 -0.5811958127261475 -0.4556750706128023
Ni 1.1607010243577065 0.3370800059552936 2.907623519583979 0.6484065062446898 -3.3812192008596607 -0.7695787415813521
Ni 6.529301811498665 8.660344154739747 12.148023944601345 -0.7223020679825753 0.4392014984378113 1.106696902993152
Ni 5.308253438718094 1.4472352682416136 8.322473026691512 0.3888276739709497 -0.792608626817622 -0.2522211063570882
Ni 3.8587049479825035 9.013295642870712 11.892597916816436 -0.32173088032245234 0.9057183968611241 -0.49060839215487756
Ni 2.0946692327457916 7.299623407772861 12.251217725346642 -0.30894812673548727 1.027735239586269 -0.5432193334823742
Ni 3.0631322149640576 5.467708491672896 13.087374559088415 0.372508625095952 -0.8625400617014372 1.0245097906704357
Ni 1.3208222853907745 4.003882791704482 9.67990992300595 0.4826215172946592 1.1190682800743115 -0.8670978562754487
Ni 3.807009051687112 7.605894065975378 0.3809479573310679 0.9186849843241209 -0.42546717957085434 1.1301155390274085
Ni 6.969397017422723 2.617688838633926 11.236597626772564 -1.9011574954178485 1.8027901737908438 -0.31855788191110945
Ni 7.06599718877119 5.529536302491906 8.166111214855656 -0.48479769901037156 -0.8744051885701393 -0.37703942308677
Ni 6.214499988738362 7.6933338762476975 4.542967265168786 -0.8354804864804837 0.7314533954645402 1.5579774440826846
P 5.007099628672254 1.009786388850666 3.946743420236265 0.6572572717671004 1.448327864673641 -0.7298176596333302
Ni 8.53799319058833 4.119849261772522 3.8700378876249943 1.0925674055703056 -1.2512260678882 0.1110001798996669
P 1.5796626295767926 1.4878554552358447 12.71889579628888 -0.5028931230595016 0.738269132834793 -0.14691412018745664
Ni 0.6058940402463416 7.1770596271519995 3.502994248060722 1.6480010217306842 0.0158675631598759 -0.14431242089855145
P 4.296311126503042 4.575489322856104 4.480495453207453 0.3238034465807649 -0.9770958201628461 -0.7044028191046514
P 5.531312857367281 4.837929041242749 11.51191736800567 0.6193049608930432 0.44201737062005164 -0.03426817715425066
P 4.889624937538141 1.586056376550144 11.194141666407113 0.3012870106458037 -0.1123762343115871 -0.5208301671538965
Ni 8.372690311168755 1.1750800153802656 12.280781634108664 1.1511988420602688 -0.4367262974244414 0.6867817635887784
