# total energy = -340859.9898840916 ev
CRYSTAL
PRIMVEC
9.36143649487116 0.00000000000000 0.00000000000000
0.00000000000000 9.36143649487116 0.00000000000000
0.00000000000000 0.00000000000000 13.70140857874862
PRIMCOORD
 96 1
Ni 1.5167960929175863 7.824513211254668 6.048459626598235 -0.9817801130123929 -1.6781891152782906 0.1763725346578898
Ni 3.0978397237963238 9.117215239810601 7.787880974507504 -1.2233103153145384 -0.796931679673008 -0.3454523923091083
Ni 1.521036823603351 8.938552226261342 9.849901165073986 1.746817772190282 -1.7377057825866846 1.8078943277866284
Ni 7.8413263510154465 -0.07288252688951512 8.276911177923644 -2.852121137270017 1.4515713113116033 -1.6958513084447437
Ni 3.402151936604589 9.062198078132372 2.4517030864117433 -0.7671691036985949 -1.2453523827162423 0.19929777599549547
Ni 6.481184534688549 8.973751227096827 3.4849529053518684 0.8413068633542737 -1.1291670590712104 -0.22179210044326964
Ni 5.325655633590686 9.25876015806393 8.154557204274766 0.1966811643082548 -0.7653433633437658 -0.21737880186692243
Ni 4.463589040522279 1.1964477395691127 6.3332981794229966 -1.2716791935362295 -0.9465909667057697 1.0945309570545796
Ni 2.196717218098757 6.705699863687861 1.7745520102590886 0.9085898048716481 -0.3585195099057116 0.563487853923423
Ni 3.71272695035938 4.739732691225764 5.161553398206191 -0.8967395904012814 0.3484600687871805 1.0716147145780384
Ni 5.351755318252741 7.752093139322938 1.6287822757618622 -3.4290905706196426 -0.5414226465932676 3.1532464255269756
Ni 6.650074208644125 4.4596946829830335 4.171119980894059 2.5654601040675042 1.4695430652986756 1.3218085060924525
Ni 8.847905437673578 7.306994284609129 7.2004049698450805 1.24505567741143 1.4712073403749757 1.8238122845684654
Ni 8.921317821862905 5.16397426565727 1.2031617617497534 -0.07753727225553098 -1.1874359700154324 2.3613497371747134
Ni 6.412846049023912 2.129633164910704 7.520291804379408 -1.3307901407657725 -1.5138431727676316 -1.88196215343632
Ni 0.9537618625321216 4.777899267397644 12.988030638815989 0.3504156498516546 1.0711465166923682 -1.0798715552701919
Ni 9.283277759975666 3.975371409785002 6.153097081874464 0.2865152516532678 3.5510665328045232 1.653964952623603
Ni 2.627390099331852 1.8641428288217878 1.9086742455968713 -0.5525982035941128 0.38639695304227 -0.24597743944022157
Ni 6.280475338435151 4.5881429517233725 9.534960913529408 0.3541704889083965 0.12018930259810269 0.8506075719299093
Ni 8.604461284288803 7.9054989974854575 9.860711751819945 -0.2544389399440134 -2.0856981677088275 0.6702814519409102
Ni 6.308278804520626 6.973015679873297 8.989686264123996 -0.6404967644793098 -1.1139723536086428 -1.0668262920504594
Ni 9.645836830017545 0.38949379483013646 4.473208852559125 -1.9563156286472305 1.6523366729915607 2.6944965726435917
Ni 0.6510429661978456 5.988379800118988 4.267715026165564 0.3096708638341247 0.2613431232630144 0.6447257149589929
Ni 4.725578199400432 1.0287750523445507 4.058562750429846 -0.45291884802390386 0.311830847599921 -0.8867935349321631
P 5.05683262614607 5.774873520317157 11.067833401163693 -0.035285819785487615 -0.6884452673341305 -0.4883507064689525
P 1.325691730402807 1.5163280210979657 6.715114660267713 0.2817175731543084 0.851114850583631 -1.1064084252184556
P 3.967835453489107 5.388826606366709 1.2768353300144275 -0.098221797188076 -0.46156701061720506 0.2411530214683847
P 7.591385360774333 5.8485105789799015 6.772564859264331 -1.6651536222505707 -2.242246211441622 -0.24253087565251782
P 4.063228490327826 6.8847186118200305 7.658498434415202 1.7739843053027449 0.974521888788083 -0.588025176943155
P 7.985455025713082 9.290120969978524 6.050747561652542 1.4021670498468626 0.22457454828441326 0.2326023036848962
P 6.622074152394408 1.3055833650318978 2.232644538685571 -0.4632099455372668 -1.8065627534593987 0.37443335292249064
P 0.3810376093368671 9.133504139133404 12.049675828298504 1.8698512291053988 1.0293226386780467 -1.3857266449026522
Ni 8.51967475488269 2.651523882351501 7.862978417247465 2.277397562531774 -0.8103739212208431 0.8106459439353071
Ni 4.712977706016239 1.1357201016915104 0.9516461779074356 0.5288316973021344 -0.8505520361016254 0.9536144492114544
Ni 0.614594213603974 3.1633416942340578 0.733753129012119 0.07397912259062743 -2.0402770592615505 1.2344892147494935
Ni 3.8258224634161575 5.044606590217574 9.026487942869862 0.2170435300146907 0.16852115693427105 -0.15099703200757866
Ni 3.039583505126319 6.495301580768312 11.001971015424848 -1.1576631096283738 0.464292122857852 -1.0065979433870211
Ni 4.543994417696739 3.405887149725163 10.778733522493102 -2.407966151481672 -0.3096068433654087 -1.6298084099820576
Ni 6.277245642879767 4.021935194400879 11.940010345535908 1.5939973138207193 1.7625806914514934 0.1581290150666696
Ni 8.053662451268226 2.3459010684482973 3.852178651435365 0.9166301586776214 -0.7355069967086236 0.04613201847137217
Ni 7.0853529165822895 1.5148676370207486 13.795536908302116 -1.0089669578398301 1.4619284861762114 -0.9009150619352096
Ni 5.730125854361409 4.271351944204016 7.351983475623802 -0.39539170034171256 1.5816395635863147 -0.6312932436031709
Ni 7.968361042860531 7.387343493165234 5.003727069779172 -0.38389964054171305 -0.6278734192883445 -1.0873233835625469
Ni 1.554035886886617 3.999430301313511 8.637875059204253 -0.9395289176526658 0.08669451327476681 -1.2899311977678818
Ni 2.440460937448091 0.14571918274070741 5.093279506452663 1.7713103580150076 3.381323330537693 -0.9957967390064592
Ni 0.5730032239997485 6.978454674417291 11.835084558018792 -0.06832706651117265 0.5769180112864 2.5456579817399128
Ni 4.728040257171637 3.994141089751796 3.284954242120655 -1.7712995593817302 -0.389064215461788 -2.4579157439269217
Ni 6.718197381271736 3.3021811573699784 2.1295142746685203 1.8337241443655388 -0.2680321052474158 -0.629444106209574
Ni 5.577777838511233 6.408876799993528 5.96631957526026 1.2393622265710784 -1.4246127804448883 0.09658091915054334
Ni 8.007931834491274 7.273368005087571 2.1309933816185223 -0.7230664569524257 -1.3099451789959635 0.24915686560946768
Ni 5.117307505241077 9.133017344440999 12.45500542893005 1.218416991777979 0.6794039830674686 0.30815314163801766
Ni 2.242307413329822 4.162890342161486 2.7016712248183947 -0.35538867758621373 0.9417228399801909 -0.35181664396423923
Ni 0.6330072228442171 -0.0020155172552871535 7.874432134673587 0.5702426561487535 -0.38937711871651653 -0.6049623190181259
Ni 2.0903244934989496 1.4647558680121462 12.215545502873885 -1.1537293217916065 0.489529300158086 -1.1955164330307217
Ni 3.5018980413657803 5.026520295107427 12.811186552357777 0.45924376180066717 -0.7443976143300342 0.4253162558152868
Ni 7.690672755152296 6.118588018901102 13.137143342248946 0.17822655714749305 0.8217690504316622 -0.41530695120840083
P 2.7026279636176995 0.15535397307578191 0.050379506089425666 4.252076781287858 -1.026909915471496 0.8558845040581324
P 4.257543825525203 2.7813201979323474 8.580740340614058 0.6192561099329786 0.5370736255959524 -0.4565782991533621
P 6.315318604687723 1.8862545415806742 11.757013923080601 -0.18902673308679058 -0.7458315185630833 -0.3854901249572845
P 6.427496696978043 8.8077635984229 9.966061612405639 -0.09136723616008781 0.5459398177373308 1.6582867199274087
P 9.151459374134058 4.228345505417258 3.484021442430823 -0.020146650151204013 -0.2439712076434701 -1.1322482690996951
P 2.261404743570351 7.537837944609714 3.996303581558444 -0.5150824660368419 0.7320696888923005 -0.19919158943493437
P 1.0056991116372453 2.521090989095969 10.445611489187177 -0.7881678174374491 -0.43957405128588173 -0.3999381820618145
P 0.38991786789871286 7.078809272543991 0.740069290146082 -0.26117600155753085 0.5112998590659581 -1.1811048855910822
Ni 8.45798288905667 5.028776401277999 11.051117620341394 0.44577915165532905 0.6110550621794251 0.7308625559580768
Ni 8.513777049955468 4.9958896752314415 8.709574300533767 0.1925280613718297 0.8534334714144786 -1.0609317809428953
Ni 8.191790445238322 9.224263264957877 1.0947750511983616 -1.6786395725521475 -0.34452859494325827 1.136366662143443
Ni 8.984872613531017 0.7729681860599494 10.120764965652148 -0.24157391105588716 1.6105482762008652 1.181144737690082
Ni 4.259182076893876 2.175448034615188 12.686052232100351 -0.7334678547914079 -1.1146053592069514 -1.3847920489035246
Ni 3.5504838962424197 7.522391574562228 13.023065814514606 -0.4937168558768723 0.20843984750607972 1.0699347557724541
Ni 8.904476597792948 2.5057007876668376 12.322800415765435 0.03292631841437555 0.24078921037106274 0.40525933716441176
Ni 8.089732065688203 2.971488416807885 10.11513312551847 -0.33708036619532916 0.13648649709622945 -0.10066228830876858
Ni 5.282976845077662 3.503508208425276 0.3271119911419943 -0.49741924442912394 1.2578975663711045 1.0949294780445789
Ni 2.944452588506588 2.951904291874951 6.794788909259926 0.06495223650166879 0.3217105686074782 -0.09241418936736343
Ni 1.9965697080289038 6.7685619090629325 8.103300531595371 -0.8682206570259821 -0.6148338124955669 1.2570233912962674
Ni 5.28312662805994 3.0281625527275713 5.408671915374992 0.6048892996883454 0.08180170395883976 -0.43364020229994993
Ni 6.1725473382669875 5.355087989608442 1.6459502139619138 -0.2486341603367782 2.4554857943291903 -0.7504592471430818
Ni 7.809478744408447 8.622790976745152 12.347818854524169 -1.7055885903371657 0.3030047646678588 -1.1167671427449606
Ni 3.277607386839887 1.1860097379915688 9.747346629395068 -0.47523165258849126 1.9640024557685276 0.2180974252005018
Ni 2.072266282697979 4.286770229942326 10.818646006552168 0.4406207473828412 0.6180924286421807 1.5044367918520671
Ni 4.0613187573037735 7.936794279345304 5.520064583151988 -2.1554434547237653 0.5088166876327882 0.7326127058799642
Ni 5.980712783713599 1.7213528395282673 9.5920001454684 0.06954834051278345 -0.7693149463970042 2.2828904673255455
Ni 1.2328824500083957 3.0391716019250525 4.773145529997575 1.1556723044505903 -1.5636402987954168 -1.0005885039681477
Ni 0.7304176492255011 0.4611761855741438 0.41187230852620677 0.45090438869703636 1.6549638262017627 -0.19463430908155513
Ni 4.059231156988264 6.584385009478542 3.6559189458992822 1.6142745760125166 -0.9920059045054593 -1.6952327010241386
Ni 4.048849324029075 8.575356578544781 10.354359951808464 1.0339711931936515 -1.1869346048989817 -0.21875665605105551
Ni 5.954070135740783 8.941341934306282 5.801560167041019 1.2549611094506001 0.19314666879243508 0.1808082018317402
Ni 0.5237414734155773 8.36727057041416 2.8941891642284285 1.1751134438943374 -1.290973522989467 -2.0571244698361926
P 2.0457359719618724 5.0318188681055345 6.555014438940976 -0.7178504599691251 0.5112643778423324 0.11506843643176956
P 0.7303998624963556 6.255723700613602 9.956142234404235 0.6602124977406822 -1.7045398373576772 -1.9688960364154027
P 7.530049229531223 3.026711530086747 5.889508989660487 -2.5971371234558114 -0.7619392227582232 -0.40045574512818133
P 6.532962639375001 7.888170978723096 0.17770627474995346 2.2552014860507095 0.13908665372323786 -3.332136841510713
P 6.490330658043939 6.599438199197547 3.4371768147231734 -1.1354078977745994 0.12295195294490438 1.4508262056154626
P 7.51488370257551 4.0243598064265145 -0.0798792644492068 1.0344607312355603 -0.8111704489802095 1.5331585852667917
P 3.161750250047347 2.578495317054264 4.0174173651978995 1.277341276918013 -0.010852112223155505 -0.191894798663205
P 0.5899895503337872 1.3396496320638995 2.581208261320786 -0.581036661440464 0.10992777277109454 -0.61663538448068
