# total energy = -340889.64177425345 ev
CRYSTAL
PRIMVEC
9.08863516727695 0.00000000000000 0.00000000000000

0.00000000000000 9.08863516727695 0.00000000000000

0.00000000000000 0.00000000000000 13.30213626063676

PRIMCOORD
 96 1
Ni 6.571601126801683 2.1021649112375957 11.397030993897818 1.144058888581378 0.28623294452615866 -0.6365470358029425
Ni 5.074193985667114 0.2555660529735202 5.7896349700152365 -0.8146877181048486 -0.35962097050000646 0.9035234460923344
Ni 2.7692616285173077 2.0141414816696996 4.459208774645889 0.11408473236226158 -0.23485716115734392 1.2592527948474184
Ni 3.4352949755069377 4.663178646963039 4.754688476900811 -0.02716704733309515 0.10428702954554943 0.06796094142100555
Ni 3.9120938540367676 3.139269046291042 2.573604221732713 0.2500760349896273 0.009787675514383145 -0.008973921363836158
Ni 5.351733631378507 5.163062658286101 2.474050949857142 0.2534336386079506 -1.1694053377659668 -0.3358300387279958
Ni 5.551383675500137 3.124172823625862 0.07857942898307418 0.4976928098054848 -0.45125611560950024 0.8973939361558287
Ni 5.716269690907548 8.19883941831079 12.274146978922703 0.05246695955046448 -0.09136646482913942 0.8852547296901334
Ni 2.280465751842964 6.334833097511724 0.30946620259173474 -0.16837897492945195 2.134896226700033 -1.2893987223031795
Ni 0.8436470867921757 0.16025172044234406 0.33336113275972196 -0.4571542262614901 -0.04056095214149789 -1.2006519544850742
Ni 7.90734871793892 9.263500294556788 6.941813038861973 -0.8098036505396699 -0.8651497314101423 -1.1165845944205093
Ni 8.816839329547573 2.753329251435994 1.063737470934269 0.6212533428686655 -0.8187793716757188 0.8780042187753072
Ni 6.972291776193511 1.1526843058138945 4.64643647250697 0.16049545841631715 -0.4449348013771628 -0.3055892375655834
Ni 1.0238438166497752 7.998171447073869 2.7209382653093006 1.1807798981514954 -1.736776843014512 -0.15235020360136345
Ni 7.950756038498163 3.913229933406513 3.735877946290757 -0.621674232456168 0.27949202625789926 -0.18180681829958367
Ni 7.8463912432758445 4.270776832652877 12.625788992036876 -0.1690513184061282 -0.5374857734327066 -0.27651648856934313
Ni 8.21581698841227 7.38627909852884 8.82242884004672 0.22133264430834784 0.3110204358834837 0.8068021447091848
Ni 7.131279267513201 0.8879396403963249 0.19782959053954835 -0.25880441600156073 1.0175333593526024 -0.4457737523386903
Ni 1.9585553902667823 6.573655158302183 9.215666808773015 0.29408483647040967 0.5655748183594388 -0.013964175489575952
Ni 0.5044755897038263 5.28006974473495 1.316320633914585 -0.9935387962102179 -1.53629404557198 -0.297234694953301
Ni 6.481278272589422 2.301942196248636 6.774338580218533 -0.20470094928893778 -0.8350912214618651 0.4740623148707384
Ni 3.659038990902133 4.451586136506643 0.10448385634026755 0.15070444046782433 -0.5149713943802744 0.5118878703589442
Ni 6.394281858771776 5.954964510808596 4.632801702343031 1.001874826879739 -0.9061984218213361 0.04617649855606241
Ni 5.4835461041738816 3.082728648217539 9.17595947150516 0.0036725637555807718 0.27690498225701343 0.11220705572357449
P 0.421818090215113 5.854498739983245 12.312656434103099 0.5920610375754256 -1.073231681356171 -0.39414317264659215
P 4.194950351198571 6.434744461604639 12.456931243152836 -0.17434496270489974 0.6224435065220248 1.2252353002513932
P 2.6404484052580623 8.788719092987627 1.408124026761499 0.8388982539127812 -1.093742142604697 -0.07583931572781778
P 6.869208478500265 7.913901623743613 5.369487370905397 0.08692231301485676 1.2249383378362646 1.4146021902864219
P 4.737941758127263 1.3533522770508155 12.255098108914304 0.5599158203014486 0.8551879922117401 1.6651484800442486
P 4.3693612560419295 6.193114012612167 8.150152509704464 0.12613317888636344 -0.1731226602620244 0.5083343486797309
P 4.761399524953773 1.5421868455724652 4.021660983909025 1.4843271655863854 -0.327310688403075 -1.3244410586192932
P 0.5993245841251548 5.801530175448222 3.442300495332538 0.1455357517826913 0.11926344834972362 -0.4190689893539944
Ni 0.9640133327214879 0.4225179151068764 4.685810256871869 -0.36848304887632666 -0.9974273326313466 0.5487610892362098
Ni 2.1307486681803973 6.769942407489365 4.84399976604225 0.9158164045270744 0.8037132213712158 -0.4009655948850643
Ni 6.26408716299892 5.6599383314380765 9.292553025063421 -1.2413460897703266 0.5761587645228723 -2.250406121544595
Ni 8.880250735649298 2.6852099324260426 9.88647986888704 0.045069895755444955 -0.2423709530358858 2.5324070302672776
Ni 2.583435398166744 5.64745963564079 6.991975032921975 -0.9040998874210947 -0.7858293991122596 -0.3519428851294584
Ni 0.8406950981578285 0.2022194012242457 9.200116154359938 -0.9550318983842713 -0.505227170509317 0.017148486754828534
Ni 1.8784299844773582 1.4145733221276713 11.1234321803042 -1.6191208483612243 0.7127041398814951 1.1618426949273601
Ni 4.228396527843884 7.087690174254798 1.5140893305999148 0.4203419425291471 1.1310946151112262 -0.09201489704641572
Ni 5.878356406747905 7.9336239616023985 8.016704991480152 -0.08775175089468758 0.41057406450910583 -0.004498144980669673
Ni 5.466068659149714 3.588638424517732 4.598734771930088 0.6012457893984872 -1.362566918956737 -0.9182232141963541
Ni 0.7784370398322689 7.94500293256977 7.10049424318358 1.0281862110807582 -0.43316197711195076 -0.5423307602298337
Ni 5.331884052630311 4.55278808676359 6.729164429023462 -0.9134149941744334 1.767012759080918 1.7578755726663404
Ni 1.2180497684315825 7.606405837210765 11.410572151121691 -0.08119029562708599 0.298034565146777 -0.057792228418119825
Ni 4.717883140775034 0.36326183290793274 10.29215563455331 0.4989400519490247 1.1412504725983055 -0.6003065654136694
Ni 8.910706751393441 7.255266425609766 4.768057858923978 -1.6347804092753524 0.9242318822842792 0.28366441246803403
Ni 7.58855575815332 6.217698770173464 6.775190185314095 -0.05069392681044172 0.405387892322476 -0.010157400148976054
Ni 2.656907923166938 5.345089839224236 2.4438821349776707 0.40623147126969394 0.21490437218450087 0.3989341662773323
Ni 2.6168088657323936 5.272189898226394 11.27431806242236 0.08937591676167188 1.3399697503825116 -0.400587128499723
Ni 1.2269202761505569 3.66727329417405 3.6314568015316993 0.4594764466367635 -0.3027756793761882 -0.6079543117669142
Ni 1.5427412523049013 1.3683848792712905 2.4425515588198246 -0.7281392434896428 0.7741720173789893 0.14103709258138936
Ni 1.2578216350076397 3.228428555228684 8.004001806399403 -0.895197442725142 2.008034140067445 -0.04857302381269699
Ni 3.928017142483123 2.7379149265472846 6.794026381264477 -0.4872672435967866 -0.8548141538120893 0.07467717709891655
Ni 4.375741477782421 6.820684256459686 5.991508094247584 0.40849429916194163 1.2975470624419267 0.27778789908259904
Ni 8.235730187605173 7.277788063035605 -0.08446704670884427 1.3982643723583468 1.1952570087217478 -0.21849208953575922
P 0.5118910069660305 5.849527256661238 7.675704861038261 -0.6970384083197801 -0.02319777827270198 1.2670792328703726
P 8.749265328635099 1.661720572539628 8.088417047888989 0.4076540626488334 0.874362508257662 -1.7205205290566497
P 1.8971616611257252 3.5397233911739616 10.195927894208857 -0.6457302449641072 -0.7583144815214424 -0.01488488753163243
P 4.4825147612686 6.54458970370661 3.882387650676657 -2.149330142737176 -0.21565127765285444 -1.6857813258032515
P 7.134069478445296 4.058929840417658 10.429366756513716 0.03943275207432564 -0.5994123357341741 -0.30690101439847145
P 6.56339408943464 7.9597265212016755 10.233519397258501 -0.33588686010786023 0.4274991223992186 -1.1395823408672632
P 2.6240252418890186 8.689053122038576 5.948276184343029 0.3821708307760644 -0.6293579742536709 -1.1990786964606832
P 7.292411676682972 4.237666935501009 1.5887670085955343 -1.283549976831886 0.6557650034922899 -0.6808106336070081
Ni 3.166907585198216 1.7073818745684468 0.7687412840591111 0.8902334138516476 0.012974043662164751 -2.5758172789321128
Ni 1.834931777568535 1.284633108133638 6.985137652843098 -0.24870075190865557 -0.7923355756618934 -0.9528030090537528
Ni 7.015226487734939 1.074240297491694 9.258606064631923 -0.5346228500626148 -0.9942417358145135 -0.34918717676119215
Ni 2.909262961409809 1.8167726849225199 9.030022351121612 1.3439845279688596 -0.6495997552218425 -0.0570923741376178
Ni 6.395527001761017 2.2527363265862106 2.4464487654898006 0.99166780443975 0.8127233952896261 0.09726508970176152
Ni 4.394227761286923 7.12798009302346 10.364412100196128 -0.34542231040212124 -1.0258627051539042 -0.7410826910241882
Ni 7.452471626927703 6.224751550900845 11.131081175484823 0.5379493433326864 1.1534416153478586 2.21822028084067
Ni 7.622565430166028 4.026846959016041 8.034476908276957 1.254859293765413 -0.2843367559447103 0.5103421231383791
Ni 3.222720892475082 8.98227066305246 12.287675412057634 -0.13997188454166862 -1.6815222934165814 1.0977965151797286
Ni -0.05227146623374716 5.173623652107257 9.873683070866225 1.5576234031773755 -0.6201716797687126 -0.5253121141846502
Ni 8.99384958398891 2.4641288870735307 5.7243476696581865 -0.38644606111265056 0.4936088695440982 0.7485175500356787
Ni 3.8707678308828983 3.079474916902587 11.143571686507554 0.28642783414578415 -0.6809821261878659 0.35994570082927685
Ni 1.1650357607217696 3.746199000149023 12.315915618599025 -0.29341609253815915 -1.033073878190363 0.7576236261020048
Ni 3.36304941622607 8.313029027922669 7.958920359280904 0.48325220890012255 0.30594944911847954 0.27927373959950613
Ni 6.095374832274206 7.964507143189564 3.3316127367699626 -0.6164142696088094 1.0289241176880473 -0.5251843303575342
Ni 3.3441359668785435 8.670294179485337 3.5300539924421823 0.7481848492866081 -0.09329787752389737 0.8478721752766173
Ni 3.366639427034466 4.291308059022922 8.870928522772912 1.0246627713085321 0.8163501934089361 -0.26399161662945503
Ni 5.378663256758959 4.945726130536272 11.499377203295973 -0.22645402469531323 -0.9925689760977808 -0.3229686093842954
Ni 8.243510059129191 -0.054377302953507775 2.1535756837408235 -0.01837721695560706 1.8966516371276945 1.255107148110161
Ni 4.944508253451904 0.5829086916640773 1.797331185883936 0.1694225857026179 -0.7891180971658603 -0.15937934253400296
Ni 6.288326552431814 5.92224542495992 0.23017786008193925 -1.3380375663568054 0.10014318258050495 0.1853217734313776
Ni 8.211754368586059 -0.22780390863091865 11.25690605556989 0.4158954767220192 1.031550756677617 0.22791209729807846
Ni 0.45640307282065934 5.017390017179829 5.595290870982068 -0.5898722574542228 -0.533377664801604 0.4827600997550524
Ni 7.660092403907468 6.4410337969955505 2.1567821541539938 0.49683123313613786 -0.6977284924082693 1.8126817218729425
P 8.762225722085157 1.8039395323618725 3.5828907717703147 -0.31602020309092027 0.23023020390829382 -0.9219942512030121
P 2.038998898279735 3.4203623482710004 1.2285171493126716 -0.8612167149043232 1.1296002899538868 1.0993682305422228
P 4.927885140113785 1.178359699570147 8.237574271638143 0.4973796494404402 0.009632123773125348 -1.7053715892303531
P 8.867762951217053 1.7689755536785792 12.377358426368856 -0.02403467235170054 -0.15364912491844507 -0.8910451111196654
P 6.722708771612818 8.122322200599678 1.1195753175255219 -2.9179856011733096 -0.8298163462161708 0.3143548995733554
P 2.023402800691866 3.5004059563458028 5.941159783170942 -0.038263671466888936 -0.5717259255624992 0.062092398455370484
P 7.202679583742978 4.190933174547149 5.8916358112849885 1.3107599615877747 -0.11822446556224801 -1.10442507623984
P 2.665842051330618 8.652462277697808 10.080012352818462 -0.21702398963066494 -0.32511856584776266 0.3486565010687027
