# total energy = -381176.1239246129 ev
CRYSTAL
PRIMVEC
9.16034041429657 0.00000000000000 0.00000000000000

0.00000000000000 9.16034041429657 0.00000000000000

0.00000000000000 0.00000000000000 13.40708413772995

PRIMCOORD
 96 1
Ni 4.698613496985368 3.95395109003523 11.283590281975739 0.44604243261904464 -0.2333569224627336 -1.7300279543264527
Ni 0.8477766967950794 5.269430960286688 10.09887335756117 0.5594399091062946 0.7568255556807417 0.18951138603269296
Ni 5.444750718769918 8.02130719653017 4.921673286468713 -1.2664706527520964 -1.8783803496223326 0.8631386145173846
Ni 4.4108230767822425 8.93560079045938 2.0925781271840034 -0.8871180081511172 0.5193384130997185 -0.1695349429107661
Ni 4.863701155033582 2.1649823752130173 1.5723294080558803 0.07613602103263017 1.053135167716612 0.37902020096222466
Ni 1.7566143918710255 1.6840003720425831 12.157571049052292 -0.6116050211456241 0.22205872384109498 0.7561807230078913
Ni 0.6221144545511368 3.0594713127944164 6.431311155619347 -0.35640760576903135 0.1649622359384191 -1.316496864071552
Ni 3.1390929931714604 3.5941237514606055 2.6416516900353715 -0.12352556606018723 0.4842600813393466 0.7870781839176961
Ni 3.5482396054632965 3.9706961926271807 5.8540420644430196 -0.5660751550346251 -0.013911724985085718 -0.33604138340785356
Ni 6.643207238030038 8.215854509904265 2.555470289764403 0.2560618202594171 0.6443217946523548 0.4544792505324883
Ni 3.435210162967629 5.683130261849969 10.239365501134884 -1.3930414333965104 -0.523436494428492 -0.6473361559986465
Ni 7.131132779364967 7.204901002107297 6.757975313169005 0.9106682846672316 0.7047992832121216 0.5837969977944204
Ni 1.259968206297837 1.0029382097838633 4.474493856096177 0.8719963220183305 -0.3160132611123848 0.6488219965155535
Ni 8.204239198040703 3.8737065064983107 3.922001654137962 0.5916416906498198 1.984775683760137 0.9760031013192996
Ni 8.57952919152518 5.869076015413429 11.97227201553423 0.9720898823078227 -0.7288923196055834 0.9912777680901832
Ni 5.5080028705190545 5.794510843040083 8.519303616305795 2.039432451873068 0.9410296705679083 1.5207846370824711
Ni 4.033078112020608 1.1076042613241415 8.82514631970255 -1.5864421271812807 -1.3487189573300513 -0.9039286519505528
Ni 0.8538096971052866 7.56888713530815 4.861448627283385 -0.25328091508017025 0.9976021676463144 -1.264436653041203
Ni 8.622665235346568 5.054529370129599 8.19323030072396 -0.666647968953381 -0.4836964955263928 -0.9315921793040924
Ni 6.516629651807076 8.168165776811435 8.950368175518724 1.046168763701108 -0.6837108379729386 0.6116106775725789
Ni 6.593823841928721 1.1802457621743432 8.351715185277492 -2.502954272223799 0.11863198541331182 0.37526716167769564
Ni 6.0934493977368644 0.3919379964662133 0.537378556024703 1.402065748382308 -0.6326268748129298 -0.9847739055333943
Ni 0.7984409344648125 4.596384096041075 2.3631599315615066 -0.04820124229557505 0.7827039661094004 0.9428695519901246
Ni 2.7015035233588325 2.8684598908866734 10.464886674133796 0.4441452155963319 -0.022728809056083436 -2.1117616975650986
P 4.3495678792809445 5.296573049444211 4.371647964230418 0.963049112261793 0.05347328932779177 -0.5935926437286034
Ni 3.559442702000471 1.4330803226997426 3.665389369154729 0.8144005258817328 0.6894765368121223 1.674765434308722
P 8.7741955893269 8.01179876300148 8.653240620155875 -0.5051369247883558 0.4967705551015315 -0.2330473616421148
Ni 3.9174104914360552 3.909871531133443 8.233960839107356 0.8059246272002379 -1.0305786225723348 1.0074425507755036
P 8.845985178502566 0.6993782632612392 12.214765467571636 -0.6143651003892645 0.43284701697469324 -0.10562014653467616
P 8.284712790092282 5.452161434304322 5.945157224153827 -0.28386058763924016 -0.6480018146071035 -0.3886764931050661
P 1.6158932397826526 7.8665249216416635 1.9131636964586503 0.2509898050531484 -0.6768423929878795 1.9251564294356072
Ni 1.9933359133049364 6.8941089666917055 11.80755260317759 0.07818801846565245 -0.9122376860368806 -1.3281904983593964
Ni 7.064692829091762 3.979187828350779 10.86684425113342 -0.4913825513167408 0.5068965877919399 -1.3410372724150774
Ni 3.1726015190365344 6.414207883710467 5.89518848228904 -0.007294219668568083 0.615022017246973 -0.09083476069538549
Ni 1.2286306811517411 5.018675797074403 4.988923926883815 -1.435990683264527 -0.3487665442840058 0.9521250091501214
Ni 8.279821168219142 1.778379361104327 4.408759252048125 -1.8403354790344693 -2.0659037586907196 1.6635546531945673
Ni 1.3825885253874715 6.113391459193471 0.4815847535810196 -0.24569924607817037 0.863771620115693 0.010900191852271549
Ni 6.622917083631147 4.999649769676438 12.966205610521657 -0.8205637172696513 -0.2714023072712294 0.7534216722055153
Ni 4.218501726170643 7.896176944119859 9.700294114169813 -0.5318797400998388 0.022823425652418756 0.06539626601762286
Ni 3.971520623279957 0.800402163384362 13.077498252442142 -0.8618414929725158 -0.018488288612174608 -0.6876109443582932
Ni 6.794270414640462 5.728254099578606 4.17518064346941 0.07070610826631049 1.3401664397743498 -0.6845562166923694
Ni 8.48465554407177 1.519920351458874 0.888645556321331 -0.7619867881667071 -1.921557399230439 -0.7713096082295297
Ni 3.2249620258284324 7.696307472865061 0.18295948253229247 0.045641451988198814 0.7023076271385195 0.260522427133932
Ni 3.7773305631887304 5.324374683123954 12.80440926284614 0.1178136032770745 0.6299339013617989 0.590312687425751
Ni 1.1379066679839733 3.0870347776189133 0.6046914867557921 0.5783102636482362 -0.28071252892856174 0.00939095429659673
Ni 2.4450964300047344 8.654158486282633 7.12811811127798 0.3649112723646683 -0.7308052203575801 -0.3929679213915684
Ni 0.8827353045749817 6.650196577897465 6.867309474272115 -1.596719854958205 1.5048329988492213 0.46612171986742307
Ni 5.757347341281032 2.4362292203170934 12.583433450846202 0.5298614241182295 -0.04386456259343413 0.5363393185330892
Ni 7.469717288119716 3.577589336702142 1.7175684401214688 -0.10711447169201552 -0.32979874493225136 -0.45255786514005936
Ni 6.616367440111867 3.7477609837758115 8.576149941882855 -1.796703087056499 -0.2146665451420819 -0.15951381122933816
Ni 4.917765485174552 2.267385822628453 6.631398642980101 1.62113942145315 -0.6613844065615964 -0.037915544098850826
Ni 8.857289038786192 6.856496608243921 2.8203140567985807 1.0626695895696088 -1.0560235450080007 0.8323871922671406
Ni 2.3684060586153413 9.029430159085939 10.883736835208811 0.5336571437152358 0.017883822258956295 -0.0823182385839421
Ni 5.972450458931024 5.274386704543935 6.302428827704845 -1.5553220087377084 -0.8515012873887723 -0.0002753651485737193
Ni 5.3852817876829695 7.054268361504432 0.39498380971119335 0.8533640516291238 0.013831506566453598 -0.12492476040055904
Ni 5.8077750162092 0.5966642802999244 10.688878070254779 0.47703271035297196 -0.23773396848450667 0.612512620561558
P 3.514181459163038 3.077453061365532 12.900109173020443 -0.1651406704978124 -0.8493302478793824 0.5654143815221746
Ni 7.194027677831232 3.2526903767834843 6.242526612508158 0.5827703563021189 -0.5335373303079198 -0.6093401363708474
P 1.9559342426906396 3.0848546165593485 4.564052673941354 0.17218934981447764 -1.4345662921131745 -0.7194028920579094
Ni 1.5553983505500255 7.290421941821986 9.151219635284386 1.2000333470644688 0.20402192094404217 0.1264864484607241
P 4.82766437516666 8.166874168788752 11.775803778739165 -0.6986378915964162 -0.02025335093239738 1.3737743576367822
P 5.230087297468074 2.3978382329194647 9.786702690887324 0.7859409849894593 2.8340406256192225 0.5022989411189285
P 6.7557969841775565 1.3844938762294436 2.363990774452694 0.5742427784470819 0.03803895705059255 0.5905952516631765
Ni 8.958831414186506 9.063497465726783 2.790764630134951 1.0077384847493678 1.6401010501573174 -0.41254532930286375
Ni 5.5740580864876295 6.1997459899015235 11.157335139741418 0.45815849915628837 0.22971521194508823 0.09334132916732313
Ni 5.933894585402841 0.9946939032560977 4.541797626486679 -0.5277796018885362 1.9550722431584329 -0.8641678271128471
Ni 8.379027656769921 2.3963908991068124 8.194946032515794 2.1245735046177865 0.8981079315037177 -0.6516149858796585
Ni 3.0536453361814626 8.270065405494618 4.20208822790792 -0.1875421781214641 0.6305615076434689 -0.2883376495739873
Ni 4.77961838879096 8.104968587105818 7.374553257869717 0.09862674593597853 -0.19713522112653792 -1.0079439158919543
Ni 3.367716773526988 5.719643379427383 1.6257433540152153 0.24521253624973902 -0.3097688228645697 -0.9487470938168241
Ni 5.635056794452509 3.524633407772127 3.9810730264434615 -0.15270475872730477 -0.3798128720668491 0.061095581759739934
Ni 0.1687920997813565 9.056535606881114 6.54252318654267 -1.1045724004509814 0.7804527081813785 0.7833734813725992
Ni 2.549909046994395 1.4324299385181078 1.696880726941129 -1.1634552908301188 -0.754576868855881 -1.3177327933611822
Ni 1.8296589477070293 4.865340855998549 7.6826210079949115 1.0808871410188998 0.12354382089263238 -0.11917474529065927
Ni 0.19929694996814803 3.202647436159947 10.664437365536186 -0.014621092347284495 -1.344999085276303 -1.1376118474044536
Ni 8.221378195277868 8.001694907334674 0.6018682697870618 0.1337107341233052 -0.004496602318772901 0.40454431337525815
Ni 1.2091283160432822 8.957860418084346 0.22780118177086842 0.08263525560372866 0.9317937537919371 -1.296340186618019
Ni 0.029879198924739975 8.00557889174331 11.134771388808984 1.33472392860254 0.46615591553946817 -1.3296776244278843
Ni 7.663229483007549 6.352540470882779 9.945281010914837 0.23347133655341082 -0.18258971921219522 -0.6401460660081105
Ni 8.405858294347505 0.9850572249591983 9.906320250332733 -0.9066457937713999 -1.4998226901188234 2.3268982403650638
Ni 2.644526204911385 1.8434635809707436 6.820117231639068 -0.7669924689114145 0.21341596056443246 0.21727647196110322
Ni 4.738726628413242 6.8931013292272 2.9938420526631093 0.5342366703677895 -1.4607051552920713 -0.1843082445651987
Ni 8.133054191343739 3.125361642632437 12.612191424083166 0.8211977513092243 -0.4575524901411733 0.9384146015425645
Ni 2.1660541350616267 6.231404126968143 3.4153074909755445 0.7322167559931261 1.0729905118796426 -0.3631266696604198
Ni 7.1539878291280505 7.965859654960653 12.003416257493953 -2.0204232577604175 0.3253504793529106 -0.12789232766931521
Ni 7.613543795666881 8.499055599473602 4.7162499007163765 2.1817782359635522 -0.46919444525547577 0.4018919633540756
Ni 7.1464122274630935 6.106255553876661 1.6851903002847572 0.27891892736324864 -0.900079967628424 -0.7854897563846536
Ni 1.2337146701771966 0.7290843317488961 8.85973668179088 1.0200844079092302 0.3733375487551506 -0.4008578656626064
P 3.9987909572056886 0.4160919825244493 5.689685401573602 -0.15649765011083372 -0.07988340389020437 0.3622283262158665
Ni 0.3840335385742033 2.3708060678489797 2.6417323010325315 1.4172681671543592 -0.35951915481481955 1.0891910328989047
P 7.164430617396554 0.826366232742472 6.378058431654331 0.9324486137671166 0.41006215786969374 -1.105729139763244
Ni 1.7568800417480315 4.220223870200887 12.173766531209058 -0.13953145457014032 1.4933486523587054 -0.8403254732776108
P 8.915301475719902 4.835230816491031 0.4992971881388948 -1.8765998606831424 -0.5057087381314258 -0.24855291347688158
P 1.2675071666004492 3.0917798340426716 8.550341598314715 0.1504563290127602 -1.5737439628883219 1.6752130633691023
P 3.6191589622832536 6.194506275086099 8.017221684628632 -1.8793599399267824 0.8638572378509639 0.21668846066811717
Ni 5.430204097918705 4.676225624592192 1.7876203126878938 -1.4885982821579138 -0.26543169151009127 0.10103072739178084
