# total energy = -340858.39974279294 ev
CRYSTAL
PRIMVEC
9.34415603723880 0.00000000000000 0.00000000000000
0.00000000000000 9.34415603723880 0.00000000000000
0.00000000000000 0.00000000000000 13.67611688226112
PRIMCOORD
 96 1
Ni 4.484307238294525 8.002419390588921 9.139283619119347 -0.49412206173509093 1.3358405587054865 0.5292376744913014
Ni 3.372305940343389 0.41038038573116403 10.443369930990839 0.3008152132157077 0.31959300804384316 -0.3105668932858329
Ni 7.20786710818582 3.394825356570121 5.110943166557535 0.6783901970909736 0.9709984490158567 -0.08102805901760883
Ni 5.538458865764459 4.495062361977914 3.5868486990601474 0.48960489059102774 2.1025520060413725 0.07292085652944216
Ni 6.674568086481142 7.93314181718436 9.422010684975715 1.7966609209646542 0.5111044552257004 -1.5876993966271495
Ni 6.978626926322576 5.329738450720262 9.831281919376543 0.9705783307593026 -0.13515466565868334 1.4481831115656607
Ni 2.9841123188814165 6.061068172878522 4.220025536600632 -0.8120741917414015 0.6698590196915108 -1.8228879729819831
Ni 0.5779192359643834 8.84567341464087 8.065859669671141 -1.3657280902935383 -1.3019341357660288 -3.485955659237803
Ni 9.147947520665166 3.958277970043954 2.1629329292253305 -0.45059739897957884 0.5185683677029134 -0.1504229046716635
Ni 3.3488801409739213 7.7284207009555335 5.969720637156153 -0.0682663884765663 -1.3035261628434969 0.13940727028745023
Ni 1.4315060278435203 6.445542820208445 11.993667281053787 -0.626178805194741 -0.43412639790774915 -0.8095244287363541
Ni 1.2931003875321703 1.8822774627786976 7.74810790346512 -0.4161723845324897 1.2825300202078043 1.6517005820694586
Ni 0.9478711958670917 1.4902807697796796 5.443627828644029 -1.3922744733234989 -0.4501834513706118 2.11151255766877
Ni 1.613287240820634 7.357280164395548 0.4465899250756491 0.6900504070377212 1.6467031288548672 -1.2592774774377666
Ni 2.280506707903537 4.0914415387772145 2.4430333527989894 0.7583265657063004 -1.1332846807840096 -0.8854352211320557
Ni 6.584312882608111 2.995306617902008 10.802463981492942 -0.16024040498271758 1.6646088054906947 -0.08620780344633541
Ni 7.142439327098859 1.18325983245116 1.636730794086712 0.5262811629661388 1.9811411723313426 0.8986830872808974
Ni 8.442435701840708 3.132506862075081 9.41127424960455 1.7764695336184437 -0.2928432507538247 -1.301735132381345
Ni 4.619423735654917 3.5444907049948373 7.526623371173739 -1.9580765772023954 -0.14022230998957785 -1.454310307509321
Ni 8.764977282469061 8.435558402943249 1.1952324996757708 1.3030854757616526 -0.44166744347980064 -0.18433395559681157
Ni 7.779355695914835 9.468526828510278 5.770664882777231 3.537693968152359 -1.5705002591400439 2.6657056165538284
Ni 2.0640773640680323 2.0974453455392603 13.63108113295219 0.9611125573607123 1.1926270272980686 0.6580093194417764
Ni 5.52978748889375 1.533656342445443 9.352699472609158 -0.4904433273319231 0.02390586008332012 0.40673720726151885
Ni 7.031318622630685 7.412765763380749 11.548236031335863 0.30465027069108175 0.3968271472366585 1.5724553259838856
P 7.448348309850207 5.8171763542337365 3.2001566834851616 -0.4243312661941982 -0.3387148164749586 0.05096723507648642
P 4.874220184480862 3.949485119143807 9.60986559942477 1.1609471796962845 -1.4632729160192477 2.1016814305109612
P 4.22951078946858 1.534086173626534 12.261254010764027 -0.06240992969578929 2.824358879555084 -0.9355352231122405
P 6.274012146484743 8.65950979244785 1.2479718511800437 0.8659547438099409 -2.8777992587624115 0.08309933972434076
P 8.757109503023871 2.477930038209924 6.901515212434824 -1.0767790323877973 1.413638540821572 -1.5651734476104915
P 6.268200081383903 4.92663155610565 6.537115550093081 1.0504064559315394 0.21935777997016415 0.1966963338169064
P 1.9851566215572531 9.606540014264981 1.6922556385275775 -0.302493372249079 0.06441616149254069 -0.16185737176085027
P 8.582495257783648 6.077962407126626 11.052832234738036 1.0996561940962868 0.08915531611043355 0.7328003964107379
Ni 5.453165408786197 7.247794687246743 7.113044480805891 1.5734832530277674 1.2461206283408348 -1.8004386428395316
Ni 5.41235013489476 9.317543954073956 11.520883817568688 1.8511325696499732 -0.13820399400796843 -0.8313746918422263
Ni 8.74548537282219 2.0904932933929166 3.656350532211364 -0.2754595080597385 -0.373598258615705 -0.1969112780411899
Ni 9.043124777415589 1.5317314462866436 11.795582384494764 0.3334628240473999 -0.4004264345521426 0.7537554013958503
Ni 6.9984178489649915 5.210357512250252 12.595567359260613 -0.22870271152017385 -0.801448336596439 -0.5579599821266584
Ni 9.170336118706349 3.953353599773627 11.258439176966155 -0.18203590359125424 1.5553464342177405 2.9813208708968464
Ni 9.560192999956021 6.557027946764934 9.184839183405732 1.117551843429785 0.4271065149464902 0.5351594392923751
Ni 9.04701194635763 5.3030889174926115 13.428962364200187 2.1348160082814003 -0.2042170676739838 0.7485535454799366
Ni 0.45605462080015396 9.102562954435607 3.6124638342063466 0.16007636860102756 0.19391491441702732 -0.9978024565825782
Ni 4.008988705256599 3.978022171905815 0.5101245801345874 -0.20590936777474214 -2.7898564749028405 0.47220212173354803
Ni 8.210822104325354 1.064476919972232 8.414874178976655 -0.7472029449893131 -1.413545209776817 -1.9889614397067101
Ni 9.072474771759227 4.989302811139962 5.894187151235494 0.5990094438688006 -0.9593567510118702 -1.5078812987572419
Ni 3.4372945460931486 5.942528208458471 1.5639734569465353 -0.7566314373920647 0.8007960477244208 -0.21961514739660887
Ni 6.780343933654008 7.04353143466734 4.919956090980182 0.20732784538882357 -1.6917408858207963 1.4929781563931641
Ni 2.230020232437548 8.045411852854146 9.378957485695771 -2.401833299111057 -0.7663679479535381 -0.6768382792228214
Ni 6.630015150145432 3.4519555270308007 8.348038233563814 0.5152529301764351 0.3473483237802405 -1.9773056006353364
Ni 5.3061724890091355 8.803278978366727 5.173852697572669 0.5298796789506744 0.7862006664087492 -0.34184436324287576
Ni 3.1017739326270637 4.985359577261256 9.752110753481997 -2.2762763044431376 0.818327628850281 -0.46888437021422474
Ni 1.932941477210789 1.8316041041904951 3.603684065124755 1.042409553768992 0.44685361566643045 -3.4435949348834045
Ni 4.534971252726616 7.525680545822172 12.789056799844404 -0.416640839528476 -0.014683827264419873 0.14391312857760374
Ni 6.8709448713031325 3.9493356126460357 0.8964493703744242 0.7596959352500013 1.919269888747843 0.7801871132248176
Ni 5.102105463708056 5.892350090144135 8.750691002191449 -0.6661468609472463 -1.2081336075741 -0.38584776540701937
Ni 3.932955306984019 8.2694099631393 1.3721388664099439 -1.7777288599468417 -0.9399683191829296 0.30868253177892646
Ni 3.0210497679869235 8.770537055354914 3.598610188356657 -0.5210998758755155 -1.6909127334925458 -0.9675297737409658
P 7.4824077588736255 1.0705319331319507 10.33446752918334 -0.7134654435275519 -1.007255374465362 1.6800035427792097
P 2.64939530284085 6.56745602498445 7.925760868272536 0.3456385401779854 -1.282355699413469 -0.883562172479059
P 3.132731121821737 7.1404583660033945 10.854406276480972 3.010809367274266 -1.3565690495020895 3.5422864726190477
P 6.972721419660629 0.9247733763771088 4.273103146556111 -2.8790475293472158 2.1129027531480777 -4.927164910588792
P 5.1342119841043425 9.848179891287092 7.635280021675526 -0.5156414238641055 -2.3774726108785056 -1.270589045795844
P 5.658877005562755 2.976618305680654 2.1292210828092295 -1.7503424975140889 -1.9972661029176633 1.2542471141027107
P 1.0319499125509648 5.089883307515291 3.74193646127589 -1.1779252023115196 -0.5336795123127389 2.654189645494429
P 1.1862219299382448 3.461981806537558 9.773513543053504 1.9057865095494275 0.49229066495330703 -2.0436660303384415
Ni 9.24981751058377 7.323033832249916 5.19286244876423 -0.7669521025917824 -0.7503731151871788 0.25039382334036236
Ni 2.4624467715345317 2.496160486781855 11.212624779555503 -1.5587703722976254 -1.8358648448576254 -0.4183570508886344
Ni 3.4615800078247987 4.21502734749703 11.942108096466294 0.44764063034410007 1.5482797571789464 1.2423791590205313
Ni 4.73522586233454 2.539872449067603 4.276494140808675 0.4254149861766802 -0.6289422268724911 -0.027754544405448976
Ni 6.201408053504783 1.7508425629259126 6.23922198445347 -1.0195550177683217 0.056735762129147445 1.1776529224867398
Ni 7.383322327476005 6.473052015798277 1.1257203879528324 -1.1331777228925 0.07758869431875672 0.306386279545582
Ni 2.9380082526313354 0.043434440849260667 12.824615051507976 -1.6237938283568616 -1.7063542648585968 0.7124146336655344
Ni 9.193500281704717 8.790701744241757 10.298485052832346 -1.4047746626730386 -0.4851034031762484 1.8691058662989424
Ni 5.217916934543789 5.792657288599321 11.411967399527024 -2.197949446406776 -0.1230077458835043 -1.2938827262164618
Ni 1.4733771913754647 4.623806144870824 7.662250059457774 0.11864201271564084 -0.10727645119117653 0.5868586674388796
Ni 4.9174369064927435 0.641388481930547 0.39040818646020264 0.8358455831293863 1.515007368279062 -1.5779937393036114
Ni 2.9743102991213166 0.07739764506473897 7.647123739545809 0.6777906158337618 1.1343478319412013 -0.5239234613672397
Ni 5.113645496504742 0.4894001762967165 2.7450019049184653 1.7431164120792948 -1.1090283793398061 2.8404285314234374
Ni 2.6585338875170925 3.6506496625682403 5.125767670227124 -0.5727525670548006 0.4309652265709481 -0.18181093206464172
Ni 5.163319030389102 6.756432238166784 2.8695230636649605 0.9587412289150584 0.9405465602839027 0.4734185106391524
Ni 4.312926071068595 5.2754115270927855 5.7848063286351294 0.7883200267445972 0.24327983800340036 0.6867557954468495
Ni 0.049501601411923356 1.3692739481464105 0.8436371344524879 0.12336512922292302 0.6003937258108369 0.05275595154579301
Ni 1.038659016638431 6.706487723755215 2.4288788251225353 -0.7258599605371628 0.37085874819735487 1.498976540068444
Ni 8.157364187216169 5.503735981657183 7.877170322081404 -1.4662199144627135 0.20280296093527653 -1.5119343857806928
Ni 7.549414702343292 8.177257895575801 3.0818036021873243 -0.9003887571180945 0.5639323976600095 0.2927257513393539
Ni 6.381544695006417 2.4152774714878333 12.874901562033196 -1.4842495182709148 -1.3299938701167222 1.1785389246361186
Ni 3.784056179360378 2.019496395263992 1.9586528571649284 -2.3355973108009582 0.965376474843389 -0.3359285119790731
Ni 3.4450408515089 0.8813538861776251 5.194873311159248 -0.3991897339315641 -0.16002443231716953 1.1993062390904572
Ni 7.473054258606838 0.08055316658331464 13.142652748890983 -0.7324697525441966 -0.16824759155791022 -1.1394224182506312
P 8.013380085706745 7.9276007326107285 7.159884866557492 -0.5469178653798838 -2.471371869431828 1.6167474630330412
P 1.7398444911836455 4.382624131498136 13.781286573600104 0.8625233495308886 0.06739144207078071 0.10244869078523001
P 3.12974099186632 2.228441070054844 6.739617429245621 -0.3591039216542719 0.8640477565952152 0.27712763979078076
P 8.340219978146012 3.113538225170406 13.301459485238775 1.8574741955972847 -0.4847408776305071 -0.20219412370668405
P 5.106375743050636 5.624004614957708 0.13423534343915494 1.5371671922055528 1.770905152156789 -1.012881719513204
P 0.12121986839259273 8.469393592220012 12.774259394227535 0.4185989916961113 0.4353373874967148 -0.5582880548900384
P 1.5018675233569194 8.656061798843009 5.499467571145825 0.5789090735744997 0.801618029405084 0.005792181201744863
P 1.4077064622296256 0.683820294829132 9.595902626948584 1.0894340021476463 2.226938634550274 1.3166040790733777
