# total energy = -340867.18217258103 ev
CRYSTAL
PRIMVEC
9.28601240042863 0.00000000000000 0.00000000000000

0.00000000000000 9.28601240042863 0.00000000000000

0.00000000000000 0.00000000000000 13.59101779254157

PRIMCOORD
 96 1
Ni 0.3484436801274939 3.100042324776808 5.84152850210141 0.35942505243911643 0.13864031021443865 0.8703433597959398
Ni 9.15814384724608 2.6901484586793565 1.2987491000992817 0.5493701835751184 -1.0966361763230403 2.061828560180081
Ni 3.554926920156381 4.541983590753525 9.59789502848508 0.4551451662512613 0.8942939570742663 0.6919975034617631
Ni 3.054206568381234 6.40523123186541 0.7334324614087114 -0.28903750385448934 -1.2873899194032667 0.43825173293003233
Ni 4.260459557802835 3.6554758606448883 4.285206780411062 -1.7590330833095513 -0.821250716034347 -0.43334606809829884
Ni 0.7325930059026013 0.9067178071384848 5.319076095890979 -0.7144918279095372 -0.7289884788638155 0.920046383448022
Ni 7.811291346563258 2.460393943942873 13.100734848808793 1.0014336255772625 -1.0591546344378147 -1.7562246673264787
Ni 1.4421548442581398 0.3525508833393582 3.1771180835358317 0.6191175274725854 -0.9238642145322153 -1.5121115347885055
Ni 4.570881660831124 8.482428594888562 8.157668888968303 0.3238751803589648 -1.3977082427445604 0.7160961962821796
Ni 7.473494079464031 2.724395271804737 6.623772886827246 -0.014533931950116907 -0.1982906748872198 0.5438695654718634
Ni 1.8245063980644092 1.82774721633468 10.238330863156605 2.1385407654311557 -1.4194723738945294 0.5763557110250268
Ni 5.905671631619729 6.114114748275207 8.770378548306377 -2.3861505982684776 0.31705275812049266 -0.844814619397216
Ni 9.359278872272036 8.949032137709628 10.359250528686639 -0.867368336328016 0.3645999117718366 -1.099595001841048
Ni 2.06677845729466 8.567599899114695 9.284146675873952 2.6864965851572506 0.5358328112103159 0.9163146843197316
Ni 5.078668667917663 5.224551920141014 -0.1286883433664463 0.31648531565279686 0.23422981198599013 -0.23956742214881965
Ni 5.969243671385551 0.05993842317798005 13.305225838656742 0.5193756940955572 0.7636024693932592 -0.05358924608036577
Ni 7.717827633410614 4.166596546124055 11.115046493362664 0.6206676455685246 0.21673911140039445 -0.19403549915529164
Ni 7.419375200154185 0.8854639823333411 4.889612887607946 -0.42921661931095756 0.019681280479011267 0.6821033842765027
Ni 7.937998983519823 4.869417668197676 5.574179566828564 -0.06482239579202385 1.3871428085238884 -2.6031964422760137
Ni 3.115847117602024 6.0126557785875985 5.241620539231514 1.0629747795148532 -0.22093540886992918 -0.6464067022058415
Ni 5.242483209768213 7.478471382022383 1.4707111890854632 -0.018277201042633036 -0.8127866444273938 -0.3133313434048475
Ni 2.8298100827047676 6.705355147324271 7.57239846718559 1.7546822625400234 0.46758056380113666 -0.2541412061979365
Ni 8.462036512018894 9.1355138354276 12.497022406725918 0.06760844317759324 0.51957341192866 1.4786285725397115
Ni 4.420884705187343 0.7519301977822899 1.7298243601064376 1.2786800503340945 -1.9830041936820106 -0.9755783550770553
P 4.348490953797575 3.7940974512998973 11.63302768468159 -0.1681879419645684 0.6299650117100506 0.4153321480193815
P 5.712346142884023 7.36984361088879 12.782691715538638 -1.0517902236529435 -2.214799428084579 -0.21817815783976618
P 3.93910781837309 5.258130140385422 2.4240670640766893 -0.33595885099637623 -0.25650893509916467 -0.8377800811479379
P 0.822392458627025 3.757714855360299 13.406152719843245 0.5924515881456248 2.0229601652496583 -0.480407797472792
P 2.599052678646825 8.353315880762942 1.6465241873458027 0.42738882207359946 1.3023434553893054 -0.9557124693910637
P 8.562938320972359 1.6305216024599656 10.987780767070731 -0.07434576190142679 0.730953058789354 0.03342742642051017
P 8.059487881599907 1.917589384715388 3.0764224240539995 -0.045777206235114706 -1.5669850468979334 -0.5556896980352429
P 5.096562813495918 5.611490763991736 6.119817288389171 0.7628815320668345 1.9980572313603913 0.06854766716241098
Ni 0.6698502070294301 6.045630408036684 0.22932364376874592 0.057680899651236135 -0.3218334673385877 -0.5955073442528132
Ni 1.1947290482370576 1.7912253302115455 12.702817152691765 -0.14712160821257242 -1.1403403020792102 -0.14999892976036747
Ni 6.422688934868586 4.902485157769118 2.0580876784432385 -0.9978988729511264 -0.3073764113729932 -0.4211009321823586
Ni 7.722034196953402 1.578269211609501 8.833917158428152 1.370870553726426 -0.8364559630198756 0.670191206219949
Ni 8.625191747000708 8.015862196116437 6.052474199054418 0.5002135193448095 -0.6294664748070772 -2.361169759953424
Ni 1.2185290975972392 5.285236010101524 9.085404656201142 -0.1840562764553927 0.5114672378817579 -0.023982993178158697
Ni 1.1864830693717274 6.055965739655053 6.540078987147816 -4.183620131177356 -1.324832894741073 -1.7554047425283443
Ni 1.91336424914813 4.20172553041183 2.171817184699144 -0.07419483814585931 0.1780157266882676 -0.7551062589967898
Ni 8.468146708070005 3.981897762755344 3.3485415838123407 -0.05321566479103093 0.7826918819245423 -0.044425577303226715
Ni 4.751457454767171 3.167570205755052 1.517355757146769 -1.6314845121328998 1.3517058078725173 1.2238487043165116
Ni 4.020016842983024 9.175100105588527 5.814740214003769 0.15927341308375795 -0.2846591722811356 0.3916204062247384
Ni 2.992436014989144 3.8125673296367686 -0.056483098025064134 0.39332324784845807 0.10646552525410696 0.1432073607598308
Ni 8.01990161143898 6.562090550551396 9.70992612310307 0.5153992259463123 -0.22650210432442924 0.5165377104261297
Ni 4.704368086719772 0.9113264550110786 10.143451961739235 -0.6108375468519802 1.2387536464528022 -0.8202292167483681
Ni 8.605598261183312 8.771232861432065 3.5690286583375634 2.2056085056139305 -0.9162637764771382 0.8215430504637851
Ni 0.35056460532213507 7.689839592532119 8.233411176370273 -1.1989732812310707 -0.2751915991103325 -0.7116145063617422
Ni 1.3412901793536174 4.55217963218836 4.417108084011071 0.2121718037446862 1.4257407234017445 0.20740343582176538
Ni 7.56068044834532 6.403058305002248 7.194948999238564 -0.06310284199775583 -0.1823999717988923 1.1426380969744514
Ni 1.3749148296592035 1.4815646801865867 7.813421557770136 -1.1016433997296449 -1.1146770929851513 -0.12757093977415448
Ni 1.6979101932546736 7.980491775510533 5.145192730973224 0.40401415190340095 0.35243987937053495 -0.20401266497266157
Ni 1.9578628197817582 4.113656990368146 11.387967964578172 -1.468888462433812 -1.1610556802496907 -0.3005267354410115
Ni 4.751151016363392 8.107877291360307 10.822038449080042 -1.1025191174663789 -1.8604466479620474 0.865061285461394
Ni 6.882207250353789 8.948493548999956 2.298023376994979 -2.7798127175135936 3.530674599411732 0.030053624852270824
Ni 6.894446214480484 -0.12430534559118075 10.780109318032041 0.06810800852183109 -0.07953630496343077 -1.154578300055463
P 8.987940528977346 4.676110751486441 7.316643118189057 0.7012321346861535 -1.0119301542332122 2.78656443441513
P 6.528549474355932 3.611218726329389 4.703131189889974 -0.8921105762697022 -0.9104137454542642 -0.8719348726527757
P 1.6865348282659016 2.455472357457935 3.943365454983173 1.2185193216837982 -0.25247153180499743 -0.24220074600660874
P 8.381796080289933 0.5118672808629197 6.9723140700832165 1.5329544396757857 2.401411895302922 0.24659707530209146
P 6.982598328634289 8.090800314858795 8.50365549025822 -0.7516326986258927 0.503665482449152 0.6850982052387685
P 8.38443330776488 5.572266648308004 1.7348258062966029 0.9298764821645663 1.2277156434710856 0.6738550282247814
P 9.253956921494364 0.5165678602566472 0.8262981553733739 -0.16873327294507715 -0.396862114239652 0.345333864453373
P 5.431964289438326 8.977976637848405 4.205944165770522 0.09547920144593233 2.1068868859713006 -2.8966387600664176
Ni 7.935686766473126 7.6708311254855746 0.8794791474474118 0.9223665469407664 -0.8012130806571814 -0.7596720239906013
Ni 5.315099825451639 2.1244538792907925 5.81781202685135 -0.6474102037696915 0.3667933198787296 -0.7687320773103405
Ni 5.338584150395805 5.516810583236212 4.020875799114829 1.2253916233235993 2.1904387398520275 0.095276598516823
Ni 7.102582892732184 6.975587389396312 3.343893006087133 1.230345882005081 -1.5571091825451182 -0.21940251716517054
Ni 1.3845165663109507 8.175507318473144 12.102094806548797 -0.8045143771162725 -0.46764149894605916 0.31000999234109833
Ni 2.6846697114602747 2.2220870119372798 5.997702513084399 0.5127386483950137 1.2172003457620586 -0.6402008305054459
Ni 1.674323722175914 6.678695006195484 2.850185450752411 -0.9619340248207434 -0.7292175641554861 -0.4038010074513304
Ni 3.780317009142071 1.3913139272675064 4.014447092844032 -1.2517847686051475 -0.9116615018184364 -0.6910814194053969
Ni 4.35526974272966 4.174693948793614 7.285682624793902 0.2527972905755324 -1.405549078945218 0.5279225552243036
Ni 6.239550201555478 0.4531490396927148 7.053249095527409 0.27743925749392867 -0.8071055348822165 0.8528336330469505
Ni 7.272015471985352 4.160764930440015 8.653007068051618 -0.003298211135297546 -0.21357048386442573 0.0605744191489473
Ni 3.9858257459310584 1.6557702697289212 12.465912408533766 -0.42896567964241605 0.25612712627971373 0.623963542710977
Ni 7.687601663583306 4.7390513424202325 13.538937123206873 -0.01907167191947038 -0.08052797945273873 -0.7556986411651502
Ni 3.593491728971377 7.784575489361057 3.425506839025759 1.7801274420860052 0.6522649607588314 1.3596356042425553
Ni 6.044822524972175 7.5283465537405005 5.441150012741913 0.3942555298547404 -1.3277503254981844 1.9307516641351972
Ni 7.692300385774587 6.727780866873564 12.199949874887716 0.6390502618407705 -0.029888302919000142 -0.586017916705139
Ni 2.7015238236681287 6.218015939180814 11.765431361543552 0.6959559738888789 0.6534471539923908 -0.34656336598509996
Ni 6.057934374249028 2.2696221085719923 11.4833770972942 0.692249214461253 0.5693299145264968 -0.270891686183398
Ni 0.4191213764560981 3.0756572566457754 9.416413848356049 -3.115475634536105 2.0959381002692807 -0.9809586455523621
Ni 4.05288004028528 1.3883331173398363 7.776046287122537 -0.2015292364291755 1.3191443289967282 0.4345264615596452
Ni 2.5858943993087924 1.9049325500380851 1.8238600916128025 -1.6014290875084163 1.3116271946840767 -0.526395577056816
Ni 5.695993475336898 5.583344860905232 10.967869699634873 -0.5516936895019724 -0.238842371057337 1.193143819033487
Ni 3.4749372107577843 8.331289459739784 13.126571320652271 1.1817517751464617 1.0702301755256858 0.0919148811334417
Ni 5.906043072109158 1.948270369142247 3.2258417897367178 0.8768163691147931 0.024758952112234778 0.5019657261492259
P 0.12043957869744548 6.614212937230561 4.348636744189677 -0.7498645509818764 -0.0024821429919054025 0.2914520268332529
P 5.952417417214405 2.137380008322931 0.3077263736762557 -0.3300373433056187 -0.6026812362934331 -0.503409657684604
P 0.14649984343580408 5.677579313073441 11.165442610367204 1.079477919376199 0.039703746347525166 0.14481250046342156
P 2.770249600224782 0.28056757369041 11.25575465096704 0.8079167179296022 -1.1527615585616986 1.095001726043411
P 2.3798842178590753 8.806956150502927 7.116936281844955 -0.8041420813785184 0.6496612045873973 0.1743580753310223
P 2.711998445470034 3.152304001639508 8.159502876384858 -1.649519772368056 -0.6404078043099294 0.882600579896738
P 5.810675726448189 2.384109353426334 8.829499802407614 -1.0184173046194527 0.4834478698506965 -0.40764043580207865
P 3.7299961088366387 6.816824438202 9.327025765973668 1.2979191010693647 -0.9720955387347774 3.5367354608938317
