# total energy = -340867.88903453626 ev
CRYSTAL
PRIMVEC
9.30805070741229 0.00000000000000 0.00000000000000

0.00000000000000 9.30805070741229 0.00000000000000

0.00000000000000 0.00000000000000 13.62327308248223

PRIMCOORD
 96 1
Ni 8.8885835660695 1.245696449126989 12.89408731503595 -0.060912519214656395 -0.6233937862504361 0.053247546470230875
Ni 7.416813177195098 6.046519159002774 9.258962080203116 -1.43859649631849 0.5547288767838705 -0.9460302091062933
Ni 1.4387175002033274 7.859690238014511 2.519024778093165 -1.9173855272409366 -0.3443092798436006 1.2684606865989316
Ni 4.488165280852579 6.446588493829996 5.1109073936360545 -0.6590195058738457 -0.8098046789809344 -1.6392248181999511
Ni 1.3439429261540785 0.81862259708982 1.93325145098553 1.4999952111409456 0.009780733535847673 -0.4341719064337039
Ni 2.669912006060946 7.823872858232395 0.5550623440376983 -0.03891210368416524 -0.6495269930023782 -0.9898883439418241
Ni 8.421235639489383 9.324526128984113 3.5138236465837265 2.5009881496363637 -2.321476812239176 -0.3271957600917655
Ni 3.4106839272095844 3.9323164065156115 4.131394206298869 0.46608032510652636 -0.7843350739549202 1.0030246242134662
Ni 3.6995313620844907 6.807079996320014 7.284173452170368 -0.41546944492819415 0.8211620129752826 1.1689422820866189
Ni 2.090104208761616 0.6240554787624915 4.331329277568075 -0.3085184953972364 0.05370468861230751 0.054047673774023045
Ni 4.662337528899088 2.9400688747709642 6.528027423385003 0.6236107873572486 1.7171241017805912 0.1469030644438631
Ni 0.7882476346566129 5.8679442028905315 0.798653104734167 -0.542739308522162 -0.2179354457013408 -0.13180271846731495
Ni 6.9667409930462725 6.950470520109906 4.529806708069641 1.2440496047444187 -0.29508885225489184 0.9430508147629951
Ni 7.135672808447945 3.9402654819662164 10.065555883142096 2.3685447122612566 -2.377234012505138 0.17132931580702754
Ni 6.366855730001094 0.9602557608737704 7.294704580934788 -0.23310032636723726 0.06404103754130906 -1.9683049397986234
Ni 4.013808391960629 9.174768898393033 11.531447307081367 -1.4487726655205437 0.8054438309090773 0.00505093216034614
Ni 2.042270135294803 0.21075195719560913 9.663151158349352 2.4139719913561204 3.465904139903566 -2.464096933036969
Ni 7.949987639590996 7.573104659503185 7.277757412699523 -0.9157012191054488 0.7369884663501566 -0.7740547750748347
Ni 1.1772543510142284 5.1366664936384 9.73091376874795 0.35233703524408355 1.2347905480399959 0.08320526917458573
Ni 7.447715906113141 5.517468163146241 1.0020610097863014 -2.3631525947114076 1.1263416738072731 -0.6741864434222712
Ni 2.854658199905917 4.824846789194299 -0.07799308911962903 -0.2948217146364342 0.6026236435826202 0.17736600891941065
Ni 4.634152750837693 9.402434514840744 8.943461041636398 -0.7369869236882597 0.08437306423044179 0.3618837983922542
Ni 4.92185529545449 6.0325105424299865 0.34355271150054445 0.6033525513288448 -0.7021500185147327 0.08810887712379019
Ni 8.173809031025709 5.259085978798066 5.757931418747389 -0.8874365678328006 1.3525247042293869 -0.9503836009789824
P 5.818304367553207 7.611174587598002 8.19242327117339 0.08083908293525434 -0.48217363112396316 2.3505503325663644
P 2.64182030850834 6.070552546372166 2.0335456992059835 1.014915205003465 -0.5888792974133342 -0.6610817877195131
P 8.636046837673293 3.9623441786510343 1.2047996659802414 2.412741975603761 -2.4624419139320497 0.45252906878465293
P 5.455392771834667 4.447535638766057 4.985586589017425 0.23714647141215286 -0.5058388359513869 0.25842672094716784
P 3.652265079721292 5.618655984251071 9.95447174234279 -1.0227822664563677 2.026751256860974 -1.2414952137536812
P 7.852383418074553 7.38917757413556 11.068405284837844 -0.6850714657658911 0.6307980491343071 0.4645119521781419
P 8.99194947108 5.735807112613264 7.648650662046744 0.42963930867067296 -0.5577643211760847 1.4837530382504704
P 6.596113023149101 5.18540344804047 12.680284178762227 -0.8444407809975651 -0.091247679863088 -0.4983001043721805
Ni 1.7489641440488903 8.357875737156519 7.249066276670313 1.2846920608561294 -0.1481816740459706 -0.2813697028965864
Ni 7.192712544234018 3.0102050381436896 5.834997425999477 -1.232073663329465 0.7084209391251091 0.6953407089023832
Ni 3.9573364472781707 6.616748971947685 11.912884716464239 -2.054438438363597 -0.7039464482935232 -1.0661302944246995
Ni 6.301699373848595 1.2818861509442627 0.6499514071127581 2.380096421654598 0.6398185074653626 -1.6436010928907758
Ni 5.04554998358457 3.5566993213473346 13.246589717456583 -0.05620894309139996 1.0384181732214115 1.6664463729200654
Ni 8.315496181504757 3.7566083300740796 3.8886681635290525 1.433911432137995 0.19275586111191964 -1.396271253187718
Ni 8.063434163703375 7.309835748443574 2.1615909703168743 1.7470355446280426 0.833835494677893 1.0751378972399486
Ni 7.329345423085808 3.182301590844197 13.037322394376163 1.2098791295102969 -0.26372730722447485 -0.3789371543301151
Ni 0.8084991609538974 3.432567154825945 13.202382060612202 -0.3813164531955691 -0.16266212705033278 -0.06217827330095744
Ni 5.60189218461812 7.964377886249819 10.560148474644837 1.6299372222504378 -1.6025961112333238 -0.27328126946149706
Ni 4.4383672086503125 0.25847805727222667 1.1334730029001008 -4.110815231400488 -1.1619028587413345 -0.6486857280480054
Ni 4.626985551660917 4.602793927426583 2.131946689877663 -0.48475347603599744 0.35224833218501916 0.5278464505707297
Ni 8.44028921963855 7.401603822058929 13.275430713104944 2.5833156441916865 -2.6119299654942694 0.28271567540151954
Ni 7.00976280420868 1.6987099773535557 3.8266141807345 -2.035243610602701 2.055441425706815 -0.38401096930859674
Ni 8.529115949176164 2.0837188858586715 7.907002129827016 -0.5851506836088375 -0.3780020441103555 0.26645653323017976
Ni 1.6349219046802592 1.8245455171857887 11.332792092808013 -0.5185714530267069 1.322345352432529 -1.3475575900320984
Ni 6.120620552049922 8.825763530687611 3.486386305007909 -1.878226854763604 0.6913853237990608 -0.5131819065800195
Ni 7.186429609890741 9.200096104834596 9.2480232588102 1.4766094852271536 -3.6386249367414822 -0.548021639967024
Ni 5.658140736079485 5.332293798960838 10.734962047396904 -0.8147229422181582 1.9785191613274635 2.374952158449497
Ni 1.471677308365613 6.0766120874943494 6.631645576574322 0.5449414583798035 -0.45812353215329493 -0.528285080770045
Ni 1.272187161928419 2.930248881093694 8.91670504938492 1.0097588576135061 -1.181962862716003 -0.009030999854016706
Ni 2.9340093336487816 4.622517687239031 7.918445447577572 -0.640774957841361 -0.1852893775315454 -0.07692612103409333
Ni 1.3823665601822948 1.5152855267333925 6.951588417020465 0.5493781539949184 0.02544697931819489 -0.4534834622781222
Ni 8.904332788156648 1.4237501543900106 5.345459106123995 0.5459331328691114 0.32032860065828705 1.041840054418767
P 9.321268311176487 9.23456381723927 7.922928204880863 -1.3534222763429917 1.1097436602392758 0.9522628202795664
P 3.0926557528292373 8.462749546409405 5.427198685722393 1.3979792370177602 -1.134235474733053 0.6733454355782145
P 3.034731752209666 2.76281566188353 12.880763771007851 -0.25604870763329457 -0.06132569549267504 -0.18223285009340873
P 3.6115609732277387 2.1345687678102574 9.267735848961594 -0.24336622706961958 -0.42431866778870797 -0.11023707648139726
P 6.595042597298025 1.3304183282269955 11.569211000302268 1.7238308243768055 -0.022884617907657362 0.9970825476974184
P 5.1017613028424185 1.7493178499822895 2.3156978530836767 0.387174711748559 1.721325027235816 3.1968662190994555
P 0.6631539464794303 2.0757884265098245 3.57990987701903 -0.3849046847674597 0.8300929969163252 -0.618259036127032
P 1.3198629985302905 6.4789618947869085 12.335042986832246 0.10216741209938535 -1.0051313861438236 0.5464974900130136
Ni 3.692131461635743 0.9624990011355921 6.9368072322247265 -0.8121947764796658 -1.1797735683741681 0.5818175054705463
Ni 2.5024322465963866 7.5240698474729895 9.585880373977929 1.5538371966620659 -3.749766013094387 -0.24722571002502583
Ni -0.024423394701220253 7.29962481662939 9.509575765287737 1.6679797788454562 1.5187750628516101 -0.7079925933384387
Ni 2.0209453907311783 5.850947701985608 4.050158192253021 -0.8806141455943286 0.5963622360539408 0.732802453293267
Ni 5.417592777215339 8.1473090101734 6.286350397949243 0.5267575883819251 2.1571640369592977 -1.4946365179321937
Ni 2.1804109183889797 0.8225980656202103 13.17029907084271 0.3346815269458494 -1.383542749877456 1.9623821465562852
Ni 4.917210578065905 4.12281497580376 9.01751682523424 0.1657543928224113 -2.261994083492511 -1.4454813963637814
Ni 8.424437608991735 1.6107302804459245 1.8904064927898225 -0.255122082053967 1.9879684796658212 -1.0272585570601662
Ni 0.3821550601056363 3.794855111135597 6.536569421676596 0.9781769690421669 -0.8540045134266002 0.802640042911695
Ni 5.980888092255449 7.927117758581469 1.4211522773897016 0.6881377633960407 -0.4684128298944449 -1.8475312254519602
Ni 1.5815960811948786 4.000404798694973 2.3866335780269026 -1.1691325437205542 -0.3914064904417195 -0.21600866099227314
Ni 4.702855474375062 2.2141339867233376 11.454516266567024 -0.4249850977281132 -0.760915152369083 -1.625400253612033
Ni 9.289397544967036 0.6338801264652004 10.03879896008553 -2.181870538567042 1.0709364575640912 0.3307847629946045
Ni 8.560046602246842 5.241372757975466 11.535547503493536 0.6135821994766529 0.5192281127740993 0.784448973824965
Ni 7.047488334420977 8.844137623122617 12.73131649851104 -2.8924905422259988 1.8422416949182465 -1.1017362165537672
Ni 3.115451169431733 3.7844114780494387 10.796525495910135 -0.9957152350362464 -0.2222844666986559 0.2880077770383943
Ni 6.621784627473186 3.310510683650557 2.0335456992059835 0.04817218882985252 0.49765630014059453 -0.37995376852008755
Ni 6.426855425966667 1.8002887365953015 9.4815939027355 -1.7171850369255135 2.6118530895097467 0.6267822431066947
Ni 5.801028625121916 5.566139961192157 7.162613100106827 0.6337000532724505 -0.6631134734375612 -0.4338032102403755
Ni 4.631593036845986 1.1395008966492948 4.800132983305656 0.388246347546183 -0.28054463589212975 -1.141173596613783
Ni 1.2224728621840626 8.365889968963275 11.390064529866061 -0.3106422266084586 0.10392476111012425 1.865729750737858
Ni 3.7769371131936595 8.131634252493283 3.0506457267973697 -0.22228652358118492 -0.2842297980532008 0.806492840998882
Ni 3.1928010722356284 2.4529785722766406 1.4235909867199807 0.1351577509824769 0.4251753593620484 0.18397631514707669
Ni 9.412766451316353 7.60086126722415 5.281620769975952 0.19140346084908327 0.0007407348207664662 -0.705971449143352
P 0.17413408503790478 3.422244526401214 10.681504980394129 -0.5147970735859392 -0.5221889951746361 0.7416236511293227
P 4.653792738192231 8.048513358144453 13.235881735725464 1.4118086867016848 1.3389927311812229 0.1985660400357935
P 2.502702180071876 3.3954652640225365 6.13532261841319 -0.054174172049558315 -0.10740140680481504 -0.19603221787034625
P 7.066374369654322 0.11356659796871763 5.271689079688136 -0.07120155984549029 -0.579561362446518 1.6854565954739809
P 9.06518521539541 -0.2732983358816565 0.9637472107584564 -0.20659096722279904 -0.3816095589559557 -0.14135359538054365
P 9.070425648040246 5.985020866845693 3.65951046652545 -0.045831713622133965 0.3116557554746375 1.1055198519659153
P 5.513167843640175 6.633196297850752 3.0562314881298147 -0.6925263793820395 -0.653021636419198 -0.9886017639199167
P 6.78035658224661 3.5286355479473652 7.897997521406742 -0.30102912899872675 -0.3876639926801517 0.3938462102314637
