# total energy = -340894.20095590426 ev
CRYSTAL
PRIMVEC
9.06979787126462 0.00000000000000 0.00000000000000

0.00000000000000 9.06979787126462 0.00000000000000

0.00000000000000 0.00000000000000 13.27456597381935

PRIMCOORD
 96 1
Ni 6.481286604032121 1.7869134302263785 11.111183491995268 0.6831626787789524 0.7553939654405378 1.0428052465455138
Ni 4.639809270019073 0.386278154973791 5.997289540184003 -0.2535454815954666 -0.3742688023201683 0.1090083462806187
Ni 2.6503400447016587 1.633135007902082 4.783755124508409 0.8110889450099966 -0.6368709948012644 0.5714140507490353
Ni 3.3495942485315786 4.178084001739198 4.885637977569646 0.49796714651279406 0.8577832637427419 -0.7520006234882726
Ni 4.906025976127169 4.513176752620558 2.660992522261074 0.6179440759897744 0.3043304254578178 0.11923208089115593
Ni 7.063504136574943 6.157159238735549 2.559096971482865 0.7717137856464839 -0.32421945107226097 1.1585254576286692
Ni 5.231486601705762 4.736738199501808 11.658280953354124 -1.055198220893228 -0.27663861596950423 -0.23800007766169978
Ni 5.690400232656205 7.725762635028231 12.442224394485908 -0.3450944947490573 0.8948248898770718 -0.10799841695886563
Ni 1.7305899856593552 6.366453893619386 0.3858255720617306 1.704225391441052 1.394516218169824 -0.07424934553287858
Ni 2.775321858893862 1.849186662174395 0.28897282888082637 0.2911630348379244 -1.5810749493320964 0.7192612242737226
Ni 0.6573109237332692 9.263347322718785 4.889553409295828 -0.0944823847503018 -1.2568053617481902 -0.3409653030720321
Ni 8.659824835057131 2.4255723147081043 1.2701326751170756 0.11368903958573968 0.41992490959638645 0.8841674101632255
Ni 6.877890723843199 0.4622250141406874 4.731666368551425 -0.46579004755961717 0.6410652353882702 0.517228308735251
Ni 0.9691260384662772 7.5851082101739 2.5009278230560366 -0.11702658859940492 -0.5938322705432354 0.5511275325858573
Ni 7.519161710101947 3.9742312255574883 3.892607579924489 0.5290474128573662 -0.7586638944410611 -0.8190699063329443
Ni 7.121052003849946 3.6580671427616966 12.643095021138853 1.6598005854687738 0.00912098846466171 0.05076951724338353
Ni 8.185247663242396 9.029110723783528 6.788413540263246 0.16040418425409148 -0.5970914009104814 0.5647908890055627
Ni 6.951428644704621 0.5935883380909193 0.34342245321475035 0.6354172930738735 0.5517733936999724 -0.74967171824478
Ni 1.7585703119861293 6.543967976882797 9.31262534832612 1.3511918443505764 -0.024473559661332044 -1.6274933886956358
Ni -0.09146437628601405 5.180858990180299 1.337240109312149 -0.4670141497747054 -1.7333400494188211 0.6172336801863112
Ni 6.629532449675921 1.9036054491956735 6.963186730620351 -0.7871764000584572 -0.08069330138600941 0.3291145743810332
Ni 3.2821875110078884 4.181648432289092 0.17558312330393916 -0.37099347400300625 1.1322757799035208 0.18078429057234027
Ni 5.9939028776717125 5.5135391748370495 4.805153498544959 -0.762494581041061 1.2686442633646473 0.6091424185377445
Ni 5.436790545541373 2.9545501339484437 9.046151966939242 -0.029287693220523756 -0.3902389524961795 0.6048743872900099
P 0.1458731865296721 5.561736080542228 12.515871152921374 -0.5353823539364586 -0.05824911344988033 -1.5033584711862238
P 4.016786717008128 6.2245841158549124 12.838655281158305 -0.921136274078091 -0.8562907383576156 -1.2998168323127097
P 2.4513577499583534 8.541645369242588 1.2611417845213766 0.2421488097227507 0.8851930232142626 0.2894619929864176
P 6.512604615962866 7.721862621958373 6.032533867598334 -0.9223408359091534 0.28274550019819045 -1.0843833270976164
P 4.9638550071351135 1.078671056740111 12.659700913998396 -0.36459811199962366 0.1282525392222114 -0.26166451115817513
P 4.025112791422384 6.248655359313991 8.17520739703697 -1.3357569978527446 -0.13499602859363202 0.1915934653727023
P 4.785887433979859 1.0061489532364205 3.8106238633173657 0.6190725331672629 0.4557897418137957 -0.12383204155701252
P 0.18185851642727627 5.668315274923403 3.4363468648413336 -0.3631742350689036 -0.042428087257223704 0.955038840362807
Ni 1.472300282860693 1.1424408053312127 2.6965824089729904 0.047500359573808514 0.01964245682127585 -0.7380904411650837
Ni 1.7558493726350652 6.443819269167971 4.764387478207536 1.0941769161492703 0.08690148707925034 -0.6865328808027661
Ni 5.813849251013975 5.596446196863967 9.419247170757128 0.8795669352767367 0.5456364275642989 -0.7032450513511244
Ni 8.752382121982489 2.2384895947267855 10.056983656798842 0.4112554068468465 0.5666292277658822 1.4757859608845938
Ni 2.364904436977216 5.194880897636116 6.8935216134352775 -0.3195703823360238 0.007475996662070995 1.00264050140117
Ni 0.6174754646539095 9.02962770226023 9.162118402081587 0.6783194917540383 0.6077491377346437 -0.2972220965478107
Ni 1.4017100462962577 1.0496567734599327 11.694587354095153 0.3903543950281213 -0.07371378474438273 -1.0613680971493658
Ni 4.024450696180292 6.877790956066994 1.6661971419568598 0.17157794148272387 0.9783662022348376 -0.3651624691435259
Ni 5.488379555637544 7.952534790343736 8.035519812632051 0.6660594434397625 0.15981463029920862 0.44748379305126157
Ni 5.267466489724664 2.8027852067439345 5.2295284323527795 -0.1861535253040536 -0.24938595090113821 -1.25954821460065
Ni 0.754168201813092 7.212956265331049 6.807874605481839 -0.2473244403864192 0.4239656553246634 0.4949121617365541
Ni 5.165077541944129 4.653704200305173 7.207213269340736 -0.5476256900801859 -0.44467023486186635 -0.5506714188850452
Ni 8.255747201828463 7.29800375964747 9.12104672955706 -1.092430622882125 -0.5817036056005014 0.17687492821560508
Ni 4.6098426579660225 0.352315389993811 10.552364223912027 0.06723614743983904 -0.561212427625685 -0.7813474520815059
Ni 8.153657557376544 7.2568359472658726 4.627553252202098 0.13909873790809593 -0.31268213985662274 0.4243217531125015
Ni 7.238524025433213 6.152696898199803 7.305073667061318 -0.003938158712141604 -1.1049336404451422 -1.0058762347296484
Ni 2.3814749576251955 5.147844926054057 2.513990145900711 -0.4865049115094654 0.23622010294314152 0.45964871054856965
Ni 2.2845006791532763 5.412837209454174 11.37238732083892 0.4940564986044781 -1.1331514976402548 1.1881440518260504
Ni 1.0129513016140803 3.4169193578747374 3.803733537900688 -0.29326825410638524 -0.06490801352729468 -0.09727614544535505
Ni 3.582053167090807 2.6046373334016217 2.846093491415035 0.08384058876573948 -0.031023959185340115 -0.982663801168927
Ni 1.2929087514450481 3.541239076824848 8.605767932969544 0.03563626114637088 -0.06980725060112493 -1.1922341627350241
Ni 3.6246721471263053 2.6712731381091777 7.163300936133699 0.39306639464264564 0.6855419776444065 0.06547725576720337
Ni 4.1364717692635935 6.961323794144656 5.921412518460452 0.280491156946375 -0.28678598881615125 0.11232584068962591
Ni 0.6445497181767793 7.30236633240701 11.222517074402534 0.2823588062827331 0.5446681501137588 1.106752695931752
P 0.15552798632703063 5.5499362735564475 8.079472052949571 0.688406443676395 -0.4396190455912041 -0.09343723131523908
P 8.835007980276464 1.7267171819830074 7.950602016424697 -0.4759466763776449 -0.2240032491619755 0.10789197328798837
P 2.0117990675918125 3.044740203638376 10.615470970281253 -0.1575749423354125 0.9064241646788971 0.7459222785046766
P 3.9445820564287284 6.177720470431755 3.7709326140236117 0.051399694628214705 -0.2733216357811292 0.8903360008677829
P 7.098640533395017 3.9848882380158224 10.365710505368394 -0.8181967596993714 -0.24939032177651244 0.711395962593033
P 6.2092833669040965 7.803191499161674 10.21771226520554 0.05249138503049669 -0.29974486296966446 -0.7534864640051797
P 2.421481835883672 8.384674378079708 5.774648677783198 0.05034194278766169 0.641636791621024 0.431088896633006
P 6.9082564070010735 3.997078046308588 1.703790547010943 0.07698551351711902 -0.09705965855917477 -0.32464085488039574
Ni 5.198200443644414 2.974721364337664 0.6780644351436175 0.09295746346534313 -0.7334686261223562 0.06221966806185414
Ni 1.6999431387685386 1.1856946712152925 7.04315241720877 -0.8312440798016328 -0.1767900818112826 -0.027812394226577906
Ni 7.105878232068846 0.7611111320572234 9.042421559088933 -0.9912919091575703 -0.988172646802298 -0.32529828595873655
Ni 2.7610550668964504 1.4160584664742015 9.281749035550028 -0.006714178795381985 0.6736411124417624 0.5255465987929594
Ni 6.719495774419931 1.903061261325461 2.563066821996067 -1.72955127180035 0.25514496487210253 0.2940958922140032
Ni 4.114604486678877 6.9223871520309315 10.555098767959846 -0.37540754391030184 0.11190443688149115 -0.36687276696641336
Ni 8.239067843606442 7.372811452206054 0.21567072276316407 -0.22787147386813014 -0.5767074379374907 -0.34957567044886245
Ni 7.704620936270464 3.713048257248862 8.245854773327778 0.7937445401942782 0.7925330363846802 -0.40465461370087724
Ni 3.237355500300191 8.335887935515133 12.428498162439576 -0.38931438379938116 0.3055761249394608 1.162092091934005
Ni 0.15348183993503053 4.955846375645149 10.318903999671608 -0.9951282521845249 -0.913642022583575 0.0011827074541915115
Ni 8.61892911661064 2.238290059174374 5.704691513107777 0.6986787721366806 1.0440825705960406 -0.21282846349207865
Ni 4.019988355644547 2.6242371665271187 11.477747534390817 -0.605868375772163 0.4776333200514484 -0.6043239141031786
Ni 0.7990519103684589 3.382916685784275 12.7567649834689 0.7521564323398465 0.5986407476754723 -1.2541090458629498
Ni 3.0380920418239428 8.458357415706521 8.03792240207904 0.31547564344135987 -1.1461545947681422 -0.4038591143827754
Ni 5.501122621598361 7.862834489736994 3.628921347412883 0.9129473105093954 -0.3268232072436952 -0.1365068088112036
Ni 3.243532032627107 8.442548758076839 3.5777613387543954 -1.3670887180864908 0.09512078966524909 0.06442284636076001
Ni 3.5941885565965523 4.464009378546833 9.478106530799343 -0.5546077778249738 -0.1910784734094967 -0.17478127891136994
Ni 7.213164870681297 6.167798111598208 11.365908764244038 1.2882874915168716 -0.7057477631683201 0.33431180231125646
Ni 0.4548884546704354 9.256544974341125 0.6659508131526808 0.3712516127603993 0.14027887425912616 -0.48593566926955667
Ni 4.941534234658553 0.4988180204933625 1.4823178745715269 -1.7982740310880447 -0.8489471535083508 1.0937102609254972
Ni 5.9562269374573145 5.6741925039217005 0.5440273347910735 -0.07295376664990662 -0.44774244602928703 -0.6904494422483529
Ni 7.893889477530472 8.715712929327985 11.099117032953082 0.4959285188162105 1.1597583015945059 1.2450924441866364
Ni -0.05227287285307287 4.863833276590004 5.604189990257095 0.14108260110734414 0.09791377902935396 1.147343729980237
Ni 7.895748786087032 8.618285160964222 2.593704599089047 -0.13683873822932563 0.0327882501746145 -0.3374056107452318
P 8.498581969113083 1.4146707874051592 3.5624687526216325 0.9854858439987544 1.2156031764782678 0.00391527589400616
P 1.7409295551933983 3.285733801962108 1.659612468727285 -0.08572212205916849 -0.8942502483205245 -0.8945459251840723
P 4.771529944004078 1.0408499997603224 8.162238493110017 0.30930396741300925 0.15717950666920674 0.34997727676265533
P 8.508458978957444 1.5191367188903402 12.4150911872771 -0.5333555533144169 0.5128389214183039 -0.3237440540977392
P 6.347888017447293 7.77113883360614 1.2890622501824274 -0.43364071652058217 -0.20828686686798323 1.050617800611397
P 1.7808094562821584 3.185231372131643 6.020081942148082 -0.807728513178196 0.644968169987102 0.14087485597191224
P 6.915639222440293 3.999826195053163 6.100737840351886 0.7899166818077556 -0.3799329425844811 -0.28341013036538293
P 2.3967303575868266 8.49652312500411 10.372042131238318 0.09215322239649291 0.047124721401944646 -0.23055853378199
