# total energy = -340874.6049907444 ev
CRYSTAL
PRIMVEC
9.11498402184845 0.00000000000000 0.00000000000000
0.00000000000000 9.11498402184845 0.00000000000000
0.00000000000000 0.00000000000000 13.34070047267990
PRIMCOORD
 96 1
Ni 7.719707612065505 4.106054074599267 6.537903482522612 -0.35091547230620856 1.1518063937372809 -2.1318458699094833
Ni 4.931944522176126 5.923499799400581 7.76774266492712 -0.20243632162447717 1.944773689445902 -0.29877658551912417
Ni 8.919850177414064 7.667879814465711 2.6167915167028095 0.043010699233571086 0.008549175121591729 0.83371748104279
Ni 3.480191945405709 4.880909728162542 9.450231940332984 0.437143330357202 2.702448994721449 -1.000727086428541
Ni 8.363945548498101 1.0461722598516023 11.574337620911404 0.5928174561254759 -0.5550371520529087 0.5851810226261406
Ni 8.403267588393549 2.1295883433037592 7.139182500543703 -0.19766049750238862 -1.1461736209315356 1.7169330688157074
Ni 2.6085442794062406 4.11746603425367 3.4055602814613577 -1.2502397927155304 -0.4898666288928466 -1.1961664079098948
Ni 4.025459388285976 1.3294021499005575 6.0778893941500165 -0.1000411097850019 0.22939459538087587 -0.007751104700328587
Ni 8.692549827652188 6.2076958777269855 0.8675924097293056 0.13018832279234355 -0.14611553554556125 0.16671701384599677
Ni 5.361415211502442 6.699695355575035 0.7555637904574074 0.37514683404974747 -0.8102633637849077 -0.2799257713612082
Ni 5.705578767916964 3.8495948918226635 7.956140264046029 -0.6935779605750055 -2.764505654842878 0.23598638966578064
Ni 0.5619742965947697 8.614133622455034 10.189186407402008 0.15199770535795112 1.0271613693606698 -1.3673597123596901
Ni 4.100977028650782 5.378223241536563 12.19861647742767 0.3173268377174857 0.5072637413233716 -0.11213892148980041
Ni 6.953875792414258 6.314231807791421 12.1501758077892 -1.234302295549668 0.04316882207799017 1.112087477881104
Ni 0.5261496759640161 2.4706436902596938 3.117227823509419 -0.5170110505181225 0.5990176713989167 -1.1812910334599591
Ni 5.275843744061913 4.731852398906577 5.467685895539766 1.3690610113215131 1.6161841343304035 -1.2910403716716603
Ni 8.01805014517117 2.2386126639318142 0.2367854018516313 -0.44627100369008305 0.11709652260539188 0.9705503057348447
Ni 0.6524824392340419 3.8417924657330706 0.8075474542793171 0.6851449993163039 1.5041899659485836 0.803291560452765
Ni 1.3862067286275903 5.381085346433914 12.383504807803012 -0.49341089460067933 -0.3252808024572398 -1.0443103703361305
Ni 0.39298705537047196 3.137669086066101 11.923450613501918 0.0012395288340559297 0.05933206210141395 -1.5313724399006465
Ni 0.2911006785166691 2.1690562229391976 9.531196694986503 1.3389294820434554 0.28513945435166377 0.028008826508100153
Ni 2.8133306193067935 5.543878956200411 0.8192966683324533 -0.024039300337390858 -0.19405581087026577 1.5213654492866058
Ni 5.704576119704517 1.9734030967556675 12.989626616690225 -1.2714537077889845 -0.8886177326250954 -0.06387700115961903
Ni 5.337451919224944 3.4130600900904655 3.0211613637796875 0.6605086888248625 0.4414247313413753 1.2029487209390508
P 4.657483246494213 3.6176367853647795 11.043697903952374 0.34751647392698864 0.37275853632322903 0.004182413512463765
P 6.568193485020656 0.4134346984157789 5.525064718243018 -0.5709620508132812 -0.7359618248578551 1.2765005261842726
P 3.697803067441842 7.622304895718092 13.064614676499184 -0.20336680385854652 0.313322344543783 -0.9106497727244705
P 3.8643793954643906 6.913359689647625 9.596338749349227 0.8676059062601186 1.6767148447256093 0.04026398972636937
P 3.8657284130593204 3.1880384862659703 4.801357795990197 0.36028611488783113 -1.8236744734390204 -0.6962387952366202
P 7.91564330274527 3.93044479768094 4.2745336112287164 -1.7216029634875512 -1.8427931965463422 -0.9538484195991316
P 1.2792788542619258 4.352842259617625 10.277462290521022 -1.1982348604031492 1.1362162526085076 -0.17373149749061692
P 6.093038497141724 1.7476158342962118 1.8032227041585571 1.080315584786146 2.022598411034865 0.6946858489272035
Ni 7.928404279994602 7.4276088428282625 4.871663488647025 -0.021941794378413825 1.1137815777540754 0.3055714969537705
Ni 1.7047207207709525 2.0396143387122088 7.128549871999884 1.1707363978725644 -1.3747863438410646 1.4100366824029265
Ni 8.144584349582061 5.225775138325777 10.596438412340486 2.1574854248544586 -0.3667886918930393 0.1740819388515002
Ni 6.002526708508952 2.6244955009679076 5.2911086073472395 0.26354373045875906 -1.0663570657235248 0.340895111955729
Ni 3.5153666676951216 6.475466755336749 5.59206167179877 -0.8636124688300095 -1.571996384069596 1.705864983927004
Ni 5.709607590734254 5.544589924932874 10.145949481986142 -0.22737139430326 -0.38031860805867407 0.17626300566321904
Ni 9.004774481008377 7.264350368890541 12.141491051272654 0.84507070127208 1.3425189991669266 -0.8215502495526367
Ni 8.956847896453382 0.019834204638963942 6.367743142889751 -0.7157398413840254 -0.4603578208004523 0.6698335657702141
Ni 3.690529310409722 0.43101203307836067 11.543694868542255 1.2230681173967453 -0.4288857183341001 -0.7618888291362621
Ni 5.418757574270697 8.57398211903838 9.326563486812944 0.7527603844724325 -1.8224210606478937 -0.3308341281753012
Ni 5.828804233226777 0.09563805549350426 3.441874376719461 -0.03840431080981128 -0.14640067088614786 1.4825572181701563
Ni 5.1625262660878315 1.6186479292241984 9.911553117375261 -1.7901807125569493 3.2184894537961863 -1.1084627366443232
Ni 2.2795845158859236 8.6137963680563 5.981810173443035 0.08457078206354468 0.8066409365409721 -1.0180028427898533
Ni 4.167270305461069 5.902808786289162 3.2903769663137497 0.10788991640545936 -0.03576995851075775 -0.4151313448624851
Ni 5.939688010539736 1.160565305908127 7.621168257244527 0.3264241720330636 0.662125398492679 -1.215405972865797
Ni 3.6811955670502097 1.3622890112688397 3.1007925963106526 -0.03526113719513928 -0.9567308833532491 1.2480687532061407
Ni 2.1137282715795873 7.093745218050702 10.978729034280892 1.8161570820160529 0.04552395257372805 0.299346084869349
Ni 0.7599581241230529 3.3867451320055904 5.390697096797787 -1.2314645689905566 2.7058567348514178 0.938571438835403
Ni 7.143102855054374 7.958283196725542 7.639645240803187 -0.19258513986201026 -0.16170053446801186 0.14503824332098245
Ni 5.694422027807547 6.985067266805129 4.754705486163384 -1.2146852926496887 2.1424041050413036 0.5480553214184368
Ni 1.7528113750334404 7.263657630125577 3.930010012956088 -1.121674607348907 -0.5179561880402112 -0.5402396820287598
Ni 1.4671568993071118 0.34498025895847967 2.168757251472213 -0.8511318198644955 0.5850473252617536 0.3341181982432117
Ni 4.052640269827057 2.5073861897540244 1.2218079702228029 0.40129803852381857 2.432388546190095 -1.1569241745798204
Ni 7.92233370081742 0.6857493954246793 2.1472522703119616 0.6274682134301258 -0.08556502765601394 0.2463006271075952
P 1.92894020602549 2.4184604082936696 1.4412092750673424 1.1645711496021167 -1.8416439134332476 0.7705837858070987
P 1.2891594966464097 8.988157865632996 7.886061534484565 -0.09037119079540566 -0.0873203197842238 1.5510768603081093
P 3.643113164944699 7.969667811428698 4.183510472007596 2.5892240392563215 2.6519808107685683 0.15551266048974507
P 8.120994771638292 4.682257772325419 12.863236429022578 0.3698467619930727 -1.4688100437873928 -0.6836020803092162
P 4.650136569592096 4.779213854469104 1.5616619623205503 0.41088156844719553 -0.48455524398226224 -0.6654912296411184
P 3.976174671152301 2.2153968003217765 8.142349355566678 -0.38273158837554083 0.13656285886011965 -1.49051786777813
P 1.8073645527743407 1.328955515696831 11.454725335159903 -1.7386393501445478 -0.20380491983722965 -0.7942137665212128
P 1.1502744892549144 5.683429357405622 2.403754293512188 0.0936542324220516 0.48571583994926676 -1.2566122719007777
Ni 0.7249547635281314 4.131275234634199 7.7893679638728655 0.21519387840046167 0.22483088726959344 0.7388412032881791
Ni 6.138658990808092 4.075892593372092 0.07015256092983552 -0.9806693964467174 2.0944345191405604 -0.00995402588891834
Ni 4.7229561747670425 8.281655475207401 7.036458456683319 -0.5462074695764206 -0.33140568440805507 -0.6181916732242062
Ni 2.0329695155588063 1.8361952463740847 4.801104399441961 1.2766825602880916 -2.415499740854556 -0.8559284699221903
Ni 3.1319175313201515 0.6021376494902968 0.35524008466694373 -1.4994066856273272 0.30241623915424043 0.42294647003152963
Ni 6.839418941471488 5.834245878525243 3.1843450948506633 0.22274263728199706 -0.6815079167843489 -0.1830358056106783
Ni 7.427535922958266 0.830846264241475 9.434555991280552 0.4312642458686056 -0.4816871784058478 -0.37175966274506944
Ni 3.0903349754548235 9.031180588930749 9.149638917739562 -0.5473302703269541 0.6568569510048882 -0.05692576665276647
Ni 0.13244800586758146 5.505668944322407 4.302495646877131 0.7543997198480685 0.8299418160504416 0.4832354967295742
Ni 2.895885027126231 3.0903714353898217 12.356716782061536 0.1836101900569096 -0.1280874743992568 0.8037900973557383
Ni 5.278268329739285 9.097902269977263 1.2016957585794783 -0.09766309647112857 -0.5177340447270761 -1.460872019887239
Ni 2.7843814309183053 3.003396260451865 9.868222307626775 -0.5392927447344583 -5.793707408581402 0.5917751309038906
Ni 0.7568107202343424 6.112179963015725 9.178294603651313 -0.19275123312622933 0.9482264454266637 0.3338556886104444
Ni 2.533719377806399 7.05223558205537 7.758057083194876 -0.17392073068328756 -0.5881640165138645 0.35016111063868727
Ni 5.3019217125693 7.595169589095759 11.400214997842625 -1.3307523455493016 1.086901722644096 1.2050652530614214
Ni 1.6877121610943409 7.622979404515557 0.5705833987461951 -1.1398613055602627 0.09189379808751917 -0.426058276187634
Ni 6.931462047374179 3.3348444145358016 11.056198192666471 -0.9901462255889013 -1.308952990286023 0.5168992075306065
Ni 3.5908387331411795 4.066978139265058 6.684958249848806 -2.7689873447633153 -0.34499550727734773 2.278455314372328
Ni 7.233514378865901 8.642508566867301 13.278198798714778 -1.0583226254548226 -0.6458408024000426 -0.6329289794343809
Ni 8.093731855243467 1.782316577430649 4.770661265216925 0.8273704557788396 -0.8696764156359021 -0.43091560427993525
Ni 9.103453295080724 6.593068275673105 6.8419118895269815 -0.411630273687762 0.24777695454280554 0.5363886837137859
Ni 7.36506182433903 5.399461153672955 8.410443815099548 1.0652149816992815 1.6133505215363502 0.36822053924355935
Ni 3.504538067000688 8.060489509508953 2.0922351398982104 -0.7927176415916606 -0.7907021538235286 0.47604026453271564
Ni 7.721193354416676 4.205215982810337 1.846753132051158 -0.48250890297619486 -1.4694654179832047 1.0845936433362096
P 7.861618794061841 7.373347344567347 9.980805117910645 -0.4074365473213887 -0.42612692464204033 -0.5146271236669783
P 6.721553086606394 6.0407914102894535 6.386059702734419 0.867858645700873 1.3464473876870553 0.7580653416251139
P 0.1144213025061481 0.07824484350266281 0.09102587371624518 1.0884222730536803 0.2742613739865793 0.6419671783772493
P 6.162139188946865 0.8080433093952912 11.423854708197014 2.0406835506713503 -3.8887994449821868 0.28218191438523654
P 6.795657904490023 7.6614628659060475 2.1070433424976867 0.3505382914724479 0.6411356836148894 -0.09516295575709417
P 1.594939856491687 5.438610008877159 6.235042651972307 1.0537879708092626 -0.6946079445014166 -0.6477339056576974
P 0.34208716311638077 0.015130873024209627 4.356058937382833 1.2758358960170801 0.06881557611181696 -2.289751713221753
P 7.55533711011034 3.1756603383341164 8.946873369736277 0.13443115722909751 0.046589417723764924 -0.47290454711721136
