# total energy = -381161.4390222571 ev
CRYSTAL
PRIMVEC
9.30939429685789 0.00000000000000 0.00000000000000

0.00000000000000 9.30939429685789 0.00000000000000

0.00000000000000 0.00000000000000 13.62523956145298

PRIMCOORD
 96 1
Ni 5.876918319170826 3.1854327399082796 11.404925188683313 -0.11517899386770486 2.004396800425174 -0.609303369595641
Ni 0.534036206008231 4.535844190861173 0.019864385898450167 0.06701683234018135 0.2871762822760344 1.0212159504105123
Ni 2.375804013128679 5.3223204536191 2.9752889859475125 -0.15454104060509513 1.808911456197233 2.290174402581469
Ni 7.917109352627076 5.214229074545662 6.496023771753261 -1.032852506208176 0.2712475268609199 -0.6019752113653439
Ni 1.477931536264061 1.9667119829845725 7.0275445793784375 -0.14411470306544857 1.0055497046281647 -0.6156853618625848
Ni 9.287731498952326 5.075007080398448 3.3323927027305285 -1.1049822342948907 1.3078996093208444 0.2808665380079227
Ni 3.5021848864050305 4.73344539766617 10.820211432053938 0.7881603612382814 0.42178638828515747 0.38873562847777565
Ni 3.1827795624872195 3.239501702931149 12.583535488637265 0.165713769392463 -0.35155233455925905 1.1739621038987136
Ni 7.214752778208447 5.754974561141114 8.869295629588857 0.7959492611550808 -1.1228534581483565 -0.43868085004765095
Ni 6.229120639770724 8.384161672678273 3.637025879519433 -1.1919510842769667 -1.4123547890131418 -0.2002064038526939
Ni 6.827789178695429 4.8577816700720655 2.76135910125992 2.4664978291689783 -0.8276946718874777 -0.8183947346427907
Ni 3.0513867690807492 3.466148220450911 4.157564394500312 -0.9678257077148299 -0.6292569298994324 0.5844351455990516
Ni 8.695635392516284 2.939841604662702 12.432635790079603 1.022479390503968 1.6095820556328535 0.33919355588359
Ni 0.24113845187542654 6.9752965339119175 5.590599514102805 1.2429715411888915 -1.389616981095994 -0.06585546504222851
Ni 4.963443297191481 3.378062730071712 9.192145429456817 0.9098802415482975 1.6264094116028376 -1.0636759193469358
Ni 5.057738153675408 6.403653167104188 1.1807635628925184 -2.090522071460032 -0.9829867317259845 -1.5216971215944115
Ni 5.464177006398454 4.653468389861509 7.119119230801192 0.7517792515060859 -0.34085937362178714 1.2625584621818835
Ni 8.606218658729324 6.75631164803262 12.67034186821768 0.5647415238248661 0.473201766642656 2.0572856780044053
Ni 2.990726754780299 4.726286473326537 1.042460405978494 -0.3812341778944079 -1.545147639307868 -1.655070784093272
Ni 0.6417989634572373 7.598402233293755 3.2195488777853303 -1.2328447371675346 -2.5984098195206475 -0.13166233623470872
Ni 8.950703491321999 2.0001606372788507 3.123381902075526 -0.06899015401646828 0.5599818976526937 0.5921124596386512
Ni 6.5794983190564915 8.055381788539382 8.253543420890864 0.23923189318627183 -0.9416241096187976 0.3700444798261756
Ni 2.993137887945403 7.3720722351856285 4.005520571363534 0.23937587496330384 -0.4493691829994325 -0.152329377665757
Ni 0.2677065327244222 9.019890910947682 6.927671533734163 0.34369067242299517 -0.6137742608828011 2.129695913446016
P 4.0303440716907515 6.4477331498716275 12.389103199706405 -1.470123363282178 1.0007720807338636 0.3662549308767563
Ni 3.0194183085055886 1.7037308988879754 2.4158092739410373 0.05959997105081994 2.664371214013121 3.856161861452824
P 6.41351181583718 2.74122567386158 6.076189631341921 -0.5182156123491849 0.21963957287664113 0.9950796583347765
Ni 3.3564556255303755 5.819330405042129 7.600090957448773 -2.9525792799877797 -2.7544264162300047 1.5265287386550999
P 8.533800879226071 9.033864312031932 9.144007481644325 0.6264996788692695 -1.61623684194521 0.3048734424454814
P 8.274282889868541 3.4658968668004944 1.4476685567539467 0.21433847237870182 0.4515862452554093 0.12043972804601193
P 2.8912000186099314 3.7187493297247634 7.329180131151267 0.30931579448755114 -0.3886086159816081 -0.80079013418715
Ni 2.46441082959763 5.409428457580015 5.412040673665452 -0.3076600040516831 0.24371306888607705 0.5141704957455339
Ni 7.912501202369445 8.519296842657607 5.31569681946091 -0.8060464974900827 0.8932727148986036 0.14508555161915013
Ni 5.540718847647426 -0.0390510478802225 6.5598303613811435 1.8265955037405572 0.5968453463379463 -2.105081200221129
Ni 9.096888912525186 1.2335785504816443 5.452425757771772 -0.13722620347573142 1.484902064253249 -1.3662901334445954
Ni 0.6917084890354409 3.55823675044785 5.286429945158001 1.1586900082309914 -0.1521360307080283 -0.9862070384354951
Ni 6.063869578713742 2.7588111199962566 0.6570393731274748 2.0604139392207417 -0.13511301378747054 0.3466944922463255
Ni 2.3211206300714586 1.268032619377588 8.998258671041304 -0.048306143304555516 0.9447495426216567 -0.48369238176133467
Ni 4.986958827597089 4.672478173348543 4.981060395267321 0.21163881405935164 0.36925360849376404 -1.755677793684073
Ni 7.230355323323172 4.880822421360221 -0.103378963597858 -0.21980026682422146 -0.23545262864949773 1.507321826709346
Ni 1.7509295287994677 6.4427153862577615 13.000713658809206 0.9531002285791972 0.8161676450844847 -0.5568376955967571
Ni 4.2431475196487005 9.285152796686944 9.114822530012662 1.2695338650584522 -0.6633541286934576 -0.030842439302153336
Ni 2.696652293187768 -0.020111084851636468 11.004697563943886 -0.3705034217404651 0.20839588164202172 -0.46805441811376164
Ni 6.220760803545771 0.18050264200057167 0.10606565483897372 0.5744232698890043 1.822389950299642 1.5447730295772686
Ni 3.9836760772634716 9.432650842508972 4.01594430034024 -0.5075108243371712 -0.17767376996781659 0.6692278138654152
Ni 1.1814924884787255 5.270625386183497 10.938288067625026 -0.14580520339399408 -0.48435264105315295 2.165109774168936
Ni 3.649887738905176 2.281071615105139 10.439890085488033 -0.8022710896080506 -0.9351184472897959 1.4185735162293438
Ni 2.774758112705997 6.9893537195463065 1.4490575184073577 -0.9677781423063462 1.7010768185097414 0.6223630309930765
Ni 0.5926481535275122 0.8448666466890645 12.103069262108855 0.49677415464595737 -1.0597079358381234 0.5108761412649783
Ni 3.2242249866225183 8.72849755495959 13.176969355057189 1.1692364162882702 -1.146180305799755 -0.27220886233292474
Ni 3.0212522592141813 7.01374433303114 10.1243975000617 0.6060907761956142 -0.5863627016390676 1.2090401785487694
Ni 4.71406323840074 1.6936488246879466 7.611250128587808 0.05315318698421168 2.8210282725199542 0.3184162141269226
Ni 7.432043354296049 7.306729595471868 10.551957506935276 -0.24646877725434327 0.6940618421899596 -0.19874344615392223
Ni 0.6428453393945256 7.431131033638982 10.826070764926975 -0.22031217346363346 2.0322526462951775 -0.7335976955010527
Ni 4.981661782149428 5.833666872510313 9.204435692022725 -0.048708778059612885 0.8231918989211178 0.40227402928384265
Ni 0.2246003126174845 6.715359621803694 8.185008589816817 -0.6307641105725782 1.61142990747487 0.867486349963119
P 1.4874550467964982 2.6964195583262716 11.62380115464743 -0.8866567522439827 0.20101758690007962 -1.6293181006092003
Ni 7.907408963599901 8.891793643180003 12.21222098121127 -0.2464199262942788 1.0622690116970803 -0.11866052465840209
P 6.3816923055733765 7.107741288892352 6.1618788835871525 0.00833911599331467 -0.20705865088783693 0.8656325845838319
Ni 3.2001974395216184 0.29548855861098366 6.670549782510602 -1.4763174079080317 -0.3449350863530576 -1.0861226783862263
P 5.3846933965001655 1.3112095908824206 2.4538651475535005 1.5587125224764964 1.2082284812807513 0.754146723296998
P 1.9562202954283097 7.521478706871928 6.760721508188256 0.5575709742183559 -1.121484345714972 -1.5990143074193366
P 0.2814388204921623 6.790151296894213 1.1372170084276294 0.9452406233254624 -2.6721603710402366 0.4013687438607539
Ni 4.839274593885864 4.5109415606810455 13.401949490968637 0.503937505163616 0.18758691531647048 0.4828829984861619
Ni 4.966925010719469 1.3946776216095291 12.215177644891723 -0.5545442715768901 -1.9435701560561043 -0.8343522864133115
Ni 5.626989006106953 5.446824295125274 11.507250328828313 2.115779303364924 1.491187897261961 -1.6304879525475857
Ni 6.454314891754748 0.3433779455913976 10.262244496647192 0.413093745607166 0.5636572896217518 1.690754353537811
Ni 4.2522521074304445 7.552879294385037 7.0289344719712945 1.7009526342270513 1.000201295832058 -0.7098003359711388
Ni 4.090855135679845 1.6454820177526286 0.6316256571915018 0.8769552086855026 0.645855457688062 -2.7208249261254753
Ni 1.391084195348023 0.24876005311971425 2.907885246300339 -0.5777623615645662 0.7197847008773604 0.1401364351439909
Ni 8.413830712821849 2.864202774676336 7.2780305942310095 -0.41983852053016724 0.027572510301629934 -0.7745502266540144
Ni 7.368934969252655 3.277632982638737 9.355389385068252 0.5722923395889306 0.7369966938802727 0.8344769849166337
Ni 7.1441689494137846 1.1199760098879679 8.393474790895917 0.11620794935285149 1.0947227613504116 -2.7182137137548734
Ni 8.030777058981972 5.053949230130245 11.433333736817021 0.12523200722833272 -1.0180457802126466 -2.6304233963127666
Ni 8.957136282893764 8.665351932338357 0.9282490309871424 0.5153894557542995 0.9627068984310259 -2.06681624320266
Ni 7.027252264392398 7.2607225680512375 1.52801607845811 2.274681449152192 0.2514803715363217 0.8000434858291126
Ni 0.13811883090371915 1.6530226272651156 0.7411376498595158 0.5176070322309085 0.4300180321663304 0.3209374378868795
Ni 2.1377348686066684 8.40910154043624 8.600006499806259 -1.0530886307493927 -0.4992766093528368 0.5565445898363706
Ni 9.51876274126268 1.6393657455925004 9.828485364002791 -0.7379037790755744 0.3217123683796911 -0.2367502644149987
Ni 4.993373000379933 8.307815328712957 11.210765665010124 -1.4243345870828372 -1.0756112373319413 -0.035074475105629915
Ni 7.733593259639847 0.3212457912025255 2.4132892208607526 -1.512186353890499 -0.047376175291118414 0.22851939186477419
Ni 0.7140994445902972 4.72544862782515 7.29468044622247 1.5108640355346494 -0.8816994082387074 -0.17295836677001827
Ni 4.868254738839409 3.7670185399991394 2.676719017770315 -1.3746549604695228 -1.1023723074758693 -0.9111891901677082
Ni 1.2496465653193636 3.492158668571761 2.576683057722993 0.5692808064561163 -1.978804553778366 -1.9130647883783956
Ni 6.709317824799245 1.2424317846129718 4.381127640574968 0.031506812359029614 0.3329907695069878 0.19931268839383093
Ni 7.845520109230749 3.3911703574711947 4.627281063245921 -1.038850889883456 1.2292845306201023 -0.10346761896804761
Ni 2.0005795600295446 3.983443342401975 9.277820717610357 0.28827954264254224 -2.091871900619707 -0.7847431080266163
Ni 4.5284246034766635 1.9588827822438297 5.10589472027682 0.45728920917745763 1.0297802950407553 1.2488351990585203
P 1.948670376521363 1.5437303363063544 4.660376891490171 0.37687487248444773 0.20122121827045344 0.29542746654123314
Ni 4.467085003380643 8.903886546583362 1.747382649510261 -0.27653242940894307 -2.154638956544599 -0.2948767362440857
P 9.267706991469167 4.747670152400836 9.33784024557197 -2.2797719763012223 -0.013072774023558132 -0.5445653059873073
Ni 7.556249295179506 6.438675109062183 4.404249383594924 -0.8331497814647781 -0.4694952643253463 -0.7097887660069131
P 2.1984041923015787 0.6720544954517838 0.8394318222033981 -2.459239862054984 -0.7515972174022668 -0.8012292786070975
P 5.21962852333238 6.11875776844908 3.117822331704098 -0.791118929645973 1.0039188538929615 3.513580620043923
P 7.245101404147592 1.7562824306138873 11.851737954239326 -1.3342565020478183 -3.625792560863504 -0.26599296333019995
Ni 5.972134805706278 7.48130866977763 13.079603329340955 0.9387663284550285 -1.938351330859326 -1.3087850972495911
