# total energy = -340881.5456977449 ev
CRYSTAL
PRIMVEC
9.09462893201199 0.00000000000000 0.00000000000000

0.00000000000000 9.09462893201199 0.00000000000000

0.00000000000000 0.00000000000000 13.31090874118266

PRIMCOORD
 96 1
Ni 6.748542086209913 2.398644722686313 11.635637354594481 1.4106488620656286 -0.15494958889742347 0.10896823707130265
Ni 4.592669388666971 0.7022535972532471 6.4967882055172925 -0.8186204775003515 -0.17527415938738844 -0.5439816655696954
Ni 2.798844774923106 1.5819925162822852 4.833976269086789 -0.16775291130967881 1.783456506459238 0.858612958732889
Ni 3.874484729885155 4.690182000249621 5.070311115860622 -0.11577034759480061 0.3546749393486408 -0.7622104741417389
Ni 3.4520301206121053 2.9475419582262505 2.887615629160741 0.30998299575790483 1.0834019370209536 -0.5201046018417816
Ni 5.496839209439572 4.5407208681148274 3.0551332376093 -1.4307011527308136 0.2534408376968022 1.3576689674344875
Ni 5.792341893224634 3.2028372874313003 0.8169086749403671 -1.2285293976216327 0.1175284679364879 -0.5077563646890739
Ni 5.691118673031117 8.449992553726865 12.59040241513173 0.4762901757599926 -1.051941147408511 -0.02652555709435432
Ni 3.0795868759252323 5.376971999902236 11.21603754934827 -1.268637321386112 -0.5095301687600451 0.41941326006729057
Ni 1.2363875216215643 7.811085775486546 12.069945903238619 1.9048308305043777 0.5019292164843356 -1.4271561156920325
Ni 0.7762256712663637 0.4080841860719916 4.710611265255973 -0.537876324002906 -0.47095205137653084 0.26726103140934615
Ni 8.539983907169349 2.7388929808965417 1.3507379292389192 0.5349900035940465 0.9140837381066838 0.34173971934421143
Ni 1.517602543328997 1.520440067560837 2.666082291000111 -0.5585757613337864 -0.17380297415850068 1.039108771530533
Ni 2.230839723962991 6.196361689619673 0.3327797489179631 -1.5709396606703074 1.0288354146289829 -1.102249922965392
Ni 7.800408681101354 4.421344768540695 4.203691199089368 -0.010377486579582127 -0.3705841543797295 -0.827889047286471
Ni 7.66067880194114 4.363839429701197 12.880953073454496 1.026678001966348 0.1269783004954781 0.24176674379298363
Ni 8.220043955400461 8.978936173354441 7.097962277714405 1.7914410673266117 -0.035298161080661784 0.9952290394284472
Ni 6.84712786400845 1.1341547976147968 0.3523904973189766 1.2672589529813465 -0.8472111446538505 0.8798708396704008
Ni 2.019571493496199 6.578672606715347 9.409920635118013 -0.38040319735268036 1.118773117431396 0.6092203229635315
Ni 8.924732184823142 6.140948115438263 1.4267562947653818 0.09578593405307374 -1.2051770960489374 -0.5519464289427269
Ni 6.670073627644803 1.4786684368017335 7.059653881658778 0.006516718072595229 2.5151320452369137 -0.11769096165628119
Ni 3.784911729374288 4.8637348044682085 1.223800555157249 1.1518097361713906 -0.8178542887582883 0.3881548162736412
Ni 6.199181024593616 6.119894049423169 5.05694746808413 -1.1806683122742956 0.7640508697845874 0.29725063579290095
Ni 4.753244157376471 3.0185073479090905 10.54080227577435 0.3486063645570577 -0.26269578063616694 0.18498855846167495
P 9.022972366721648 6.253430486269656 12.400762121766665 1.852377497800668 -3.7718911271282005 0.5734390515988641
P 4.204456057383912 6.440597950023706 12.709961316747723 0.09296414833356248 1.6660041431763244 1.3554531907300915
P 2.644918179974744 8.757927595284123 1.514634965903198 0.1464559496041155 0.4826235741771882 -1.16808019119664
P 6.419171004221736 8.277758470705766 6.169419760823512 -1.346180507178914 -0.2283988071265099 -0.814360673782733
P 4.915683325020352 1.694192953616285 12.586422605503998 -0.48688980565270984 -0.7445277121499951 -0.02387834927949436
P 4.122959087379051 6.341775711872516 8.357373761981245 -1.0018971954772422 1.7197700240438702 1.4291656899228935
P 4.624773428854134 1.4087307401900404 3.8637175986733756 1.8550393609035472 -1.1575618081638193 -0.4333661227029569
P 0.4494902127473773 6.091973538552181 3.8881030272721966 -0.8740498621132495 0.030513595207824873 0.4872896121942898
Ni 0.994916028417785 7.94905129663081 2.5347831328748818 0.3844879089450153 -1.0812828337954217 1.0742444388914014
Ni 2.3841660734007717 6.518111472549253 5.069632656541085 -1.3627224706979952 0.6893266414978193 -1.3215639941818142
Ni 5.896602719486851 5.632558357233628 9.63106836101124 -0.9560217731013664 1.627772096278319 -1.424479597301134
Ni 8.887826180551329 2.7670772360070277 10.108237167499581 0.3013677432850681 0.08308931242201174 0.667357850536212
Ni 2.3072073232410646 5.657968750514912 7.284328504658118 1.3892886512222977 0.08807596700332573 -1.2029554058072702
Ni 0.8028347366430205 0.04230639494125794 9.093187449516261 0.35173282600118133 0.2876629921044659 -1.644447500051471
Ni 1.5987539174338263 1.159283257398686 11.707023825597622 0.6005343651537594 2.107968034850621 0.32655761228713437
Ni 4.531980929695603 7.476376146305775 1.4921930595106083 -0.8527660130338088 -0.42996403899994334 -0.03961992838446725
Ni 6.07394798397684 8.557081809591974 8.445106009592994 -2.013121581892681 -1.0086142024861018 -1.3963735830935369
Ni 7.168077319590589 0.8666753940078372 4.769351654706637 -0.951828046734993 0.5290363571137727 1.5949753614632725
Ni 0.9551543106562349 7.603819181756965 6.736584468068813 -0.08962994175400693 -0.6239609716078157 0.8808005505735218
Ni 5.324214057373702 5.225892023814662 7.076718133954295 0.4124442849486251 1.024852775832151 0.09330301973021995
Ni 8.043990128221116 7.463925599275682 9.33028169780727 1.2414396779253976 -0.3845077064393571 0.607636009195547
Ni 4.694310961792106 0.5339001924043482 10.423080489205896 1.6693591756914863 0.17835922607061538 0.5842289431255164
Ni 8.306988608145296 7.808812118249495 5.049786357250313 -0.1138618177181781 -1.7299788462560721 0.06453006136258563
Ni 7.371505979904028 6.555917845086941 7.314610890666955 0.24027473262848942 -0.9093410812153759 -0.9708475252602893
Ni 2.2128687371613385 5.659587594467692 2.661329437911779 -1.2289518298710318 -0.19703417677229937 0.5892626488946819
Ni 3.5253601138214785 4.283324679622742 9.0719696801801 0.23601775712434833 1.5402304045119086 1.8935323747724229
Ni 0.9481514463661173 3.71687481021277 3.706476011473393 0.9005288822403846 -0.04285437616136491 0.11156016616819496
Ni 0.3278895669325135 0.4435059468994587 1.0060824138403905 0.4362907525489196 1.0623412596959125 -1.1307452021916073
Ni 1.32707916149306 3.9047789389116243 8.33100479480882 -1.9582881789925692 -1.237565796792288 0.5737820367605796
Ni 5.382255979321143 2.892664967152784 5.265369989153028 1.130234581103776 -0.1860573660458215 -0.31590836010340434
Ni 4.220144292319565 7.368177345708985 6.3217366064480425 0.665166499311848 -0.001730352427545407 0.11382967892866201
Ni 8.395352023006051 7.9453588772778385 13.197166955743304 -2.631781453002558 2.3222576562692585 0.11259606363187705
P 0.07235141113454649 5.838997339728924 8.377340110374131 1.6225015919079993 -0.21861704514939767 -1.098041027090367
P 8.642243915062961 1.8585874664840303 8.10686220760295 0.8140886510682689 0.3390362043701194 -0.41277775702864394
P 1.9695419396521259 3.6168884595562094 10.564016316164642 0.1962319925859782 -0.9538353069730088 -0.8156565097760211
P 4.056322741075556 6.349769890717987 3.5374405094533787 1.400056431261763 0.24126794977969412 0.3191762322213987
P 7.075648605589985 4.298139830179368 10.634923500222214 0.9997868340024587 -1.1228778836283886 -0.021454827439666275
P 6.645081587295137 8.48365177546417 10.485588783429801 -0.6121421245960167 -0.10437110461892349 2.2398771969888136
P 2.4536035654203134 8.971178454861622 6.093760633140504 1.0376278161096324 -1.0605954806493991 0.14097692876741527
P 7.251184038919281 4.514273687133449 1.9582473199613508 2.3531890557407924 -0.9300713717841917 0.0816824047721561
Ni 2.6395978220400447 1.6665634708716395 0.6779136417991672 -0.36445901531859815 -1.1448374186186154 0.05064559007100954
Ni 1.550279545139896 1.664226151231951 7.061423696452099 0.39340680870119993 -0.06568860044706107 0.6161085654429325
Ni 6.977899533654683 1.3888135027934725 9.443943642013245 -0.282012735797224 0.13443218567036203 0.6682857616671201
Ni 3.0977761338216414 1.7534535558427857 9.454858106213985 -3.3300637610317683 0.936254103556136 -0.8229319603915118
Ni 6.544413139467461 2.2122321131349643 2.8427172649692447 0.12958488488038972 0.028576268975795946 0.4134647557933395
Ni 4.411722651113494 7.305187945613721 10.58468840776391 -0.2156150250982803 -0.13380792182280182 -0.3094942290469444
Ni 7.063716452409942 6.421317336653513 11.756128455677661 -0.8590364194235528 1.2599444215978042 -1.23963373506491
Ni 6.469600721739531 3.67260215649291 8.475907698914773 0.30608314648286644 -1.1348054883039103 -0.526077788706081
Ni 3.3959890170332687 8.93031628699734 12.41417942785395 0.2082878953092477 -0.4927449788819062 1.2782015680357794
Ni 0.10466371832462244 5.179636740984094 10.503238729829581 0.2943805133339575 0.04725044834653153 0.1500390389696835
Ni 8.83088470870662 2.5733980179260634 5.768534883026919 -0.816554081889626 0.0018699633292032312 0.2724451467134469
Ni 3.4608882892076562 3.2837612958124245 12.857845440222897 1.192450135400572 1.6232574962374176 -1.8996554569510251
Ni 1.121358654684673 3.6646352615342828 12.595687304013532 -1.1745526862948612 0.335234571235842 -0.27082046662583037
Ni 3.1330269156248827 8.618797961634488 8.271345847834388 0.569869846190367 -0.47607214621191557 -0.2082354448047575
Ni 5.740393372672489 8.384092872368175 3.6207000185484017 -1.4133220380224176 -0.10522959596447684 0.6220277591408448
Ni 3.1595104751220537 8.492546322575514 3.6399342493109597 0.7561400995779429 0.11085619812263489 0.5738545418697278
Ni 4.007466394365802 3.523159213616013 7.135232976607043 -1.6191349894286113 -3.3135112559897255 -1.2682786524951124
Ni 5.279559429238017 4.882296942151494 11.873330938933174 0.7659755976111259 -1.4761145478686062 0.9636924022727469
Ni 7.991505024561029 8.850374498542621 2.9436276299269437 0.6172889589042788 1.8956825883462063 -1.1616352069022444
Ni 4.795643317533001 0.7406411165807237 1.7913154056170562 -0.3318006058536285 0.6681752042311848 -0.8331022160562942
Ni 5.939120109819707 5.679441169461623 0.9443862699815606 0.5474526548374313 2.0228035850671358 -1.624630465325544
Ni 8.705597100316153 0.28343865848526895 10.963663414961383 -2.3805797890489195 -0.49247269905712604 0.8571186335755497
Ni 0.37552359551162967 4.893501525015682 6.022614260341594 -0.8540500219525549 1.2191500132892616 0.11085157013694456
Ni 7.354144333241906 6.674739172295233 3.19544335409641 0.5180369206794756 -1.8028763057467467 -1.9122353504985647
P 8.608875721451998 1.9768631159554306 3.5930532560087545 0.5405289311344046 0.1802746979257734 0.01338799127113178
P 1.7006228562826655 3.726096763966249 1.379662487145789 1.0896522888060394 -0.1824799331072083 0.9915163664635503
P 4.921440225144567 1.9118728974915606 8.42131991704186 0.9239637162245571 -0.21521470433606804 -0.021688026496394907
P 8.816178693697372 1.847373788990894 12.536053822000156 -1.1546397494210179 0.07203485438006303 0.6979148973874625
P 6.881159965532632 8.05633153970383 1.337346997575583 -2.0220196557132595 -0.2574903251758275 0.40800141868592316
P 2.1188484630948 3.599144838478262 5.944265850878602 -0.38027001420892576 -0.3579955190814415 -0.003740955099670977
P 7.056113342609242 4.378945608384165 6.220400612855568 0.8810751443911471 -0.6050710766818482 0.37502753486306384
P 2.475075984367024 8.769113988890414 10.391959578408036 0.5585917021733864 -0.6609470619138618 -0.24286769016664622
