# total energy = -340868.88284869783 ev
CRYSTAL
PRIMVEC
9.25753439587746 0.00000000000000 0.00000000000000
0.00000000000000 9.25753439587746 0.00000000000000
0.00000000000000 0.00000000000000 13.54933735428348
PRIMCOORD
 96 1
Ni 6.508167146627325 1.872604834124872 7.658709280082885 -0.6273555991116615 -0.640661057971316 0.08851074054789919
Ni 7.10740735897217 3.0833700071813417 10.210252441616356 0.17222817347221306 0.23943655299791022 -0.2724664868696856
Ni 5.744633468370476 2.31181930399184 12.312079386073156 2.267539181680456 0.4645895994936128 -1.001920849626326
Ni 7.706110634312289 4.655262346055208 0.12981007541357414 0.5822263108731908 -1.5091367684308976 -0.24295562189476222
Ni 7.602713230764017 4.9235456977275955 5.9580233430906 0.7308093341226382 0.4260806447851372 -1.1348502254989166
Ni 6.345336371176476 4.855058457021166 11.76659675118954 -0.27551401544675774 0.24946539798882195 -1.5527961569920612
Ni 0.4235044337114111 7.450889663910078 -0.003391960664346537 1.8860337524025323 0.8043799084209372 -0.8898613752242094
Ni 0.0944074117329136 5.487236977345665 7.744123922740071 0.6348256822364615 -0.0762594339843719 -0.4412879486531949
Ni 8.469449904343287 8.607026125502824 1.700590584386272 -0.13461190578133592 0.1804050528560506 -0.9122770239152482
Ni 5.41101043774351 2.248960644300484 5.074755490039924 -0.08209198150574894 0.9504062266868019 -0.09275537475686606
Ni 6.028108434262822 0.022503215018814304 11.22864789793432 -2.0403300239866735 0.643682361296143 -0.2139507500219799
Ni 1.7256507304517361 0.011673751085537616 8.707887890333943 -0.84771790908694 0.8368323725226878 -0.8733600351350765
Ni 5.169962752759189 4.120000955083995 8.80217773137789 -0.10469686338945838 0.15275258124610466 0.44709015715726874
Ni 0.08809007014625947 3.561586470167556 1.8337000451185501 -0.14070876270769314 0.22920510507788913 -0.49451724029098054
Ni 0.033324347170983155 7.39838092786157 9.34879904301291 -0.3381612579643338 -0.2642392138638868 0.8987211396076844
Ni 4.2177420050135 8.154786304503935 9.257747487559545 0.11058880339386114 -0.24754555525828975 0.33122082209075865
Ni 8.764830059685277 1.6222162967652083 8.659842211698864 0.6215634179099166 1.0283024249436483 -0.9248764578468136
Ni 4.080887871549977 1.6171431678239914 8.191875690982204 -0.22681063670378354 -0.7072433738772401 -0.3980131971249597
Ni 8.187391341239275 0.7706823464473737 10.70720152579336 0.21698773707609081 0.8081116075492275 0.7666772516638408
Ni 1.0239388680150465 8.883178381554835 5.638949453784832 0.33846130570325583 -1.6203768322555125 -0.6095818200680082
Ni 0.17780020884126524 6.551103591936385 5.169735943162364 1.0316541150247007 -0.39915425270793836 -0.3722941950923008
Ni 8.942343284955049 5.639273467494581 11.737235554565517 -0.9103592380672452 0.7056215220031008 -0.34356108882366637
Ni 4.662251784651228 1.0877695688356506 2.9198689862280394 0.256957335490493 -0.4750344489760206 1.5539629236066528
Ni 5.341680761391733 4.590616982192949 6.398552382865694 -0.9520450478418055 -0.46114252148527685 0.10940815282219868
P 3.346654290189026 4.27062104244458 11.96073187976945 -0.624641028393976 0.22325942901741552 0.1802556717623799
P 0.6035023812582326 5.127665077335065 0.08455091468234112 0.5823440673979777 -0.18871511538364272 1.2449906285014496
P 5.2849505895819195 2.1318806046662298 9.93883171148014 -0.5040663174319964 -0.5090187763412654 0.5573637433035562
P 9.264755441224692 7.873644237321784 7.248069116401975 0.32870782586091774 -0.5456176585112217 0.36387100402561207
P 7.167942377487896 0.9407043747477438 4.574784746581144 1.211026612851179 1.8158752891095757 0.062224553157860574
P 6.820007198424577 6.393086734458953 4.10601837487813 -0.17895032268739502 -2.7756323608836584 0.2860120867646042
P 0.30616333160244485 4.728322808836384 3.748207257941653 0.4981694923315872 0.21148814741410027 -0.07530941136627675
P 3.9590031714768696 0.10039611084253636 12.397223708721068 0.9800541314602219 -0.05160204044700791 -1.2500536448466535
Ni 5.209529455486855 7.002815733465109 6.789207380929269 0.5145312215190623 -0.044507081273439476 -0.4981617790221033
Ni 2.088222071661158 6.495752792776646 1.331395477196119 0.7060503820104034 -0.29754014200886175 0.11660955566664434
Ni 1.562681091982423 1.6891204990611484 5.980583029070257 0.45484923227739726 1.445200117677937 0.40832666323582584
Ni 7.04881642271494 0.3691043833514232 13.407164258721489 0.1775570418842942 -0.20675088983943102 -0.021717337072433566
Ni 7.286494365117869 7.4404749375252806 10.687663499095478 -0.2888901796433476 -1.7063912887441195 0.16488998793958698
Ni 2.9364992213192846 4.808530088301173 7.915807678494726 0.2327347154977024 -1.3699395572717246 -0.8226090298344542
Ni 6.010158074742712 3.4194833146060954 1.6378707877133798 -0.6630741355591935 0.047163030839047805 -0.17539834367007856
Ni 3.057060093949702 8.31571928536911 2.644979457890593 0.022676615661909334 1.9105379081914842 -0.6354273203762025
Ni 1.9709383662664903 6.043392623828423 12.125328992815161 1.2322520978888585 -0.6238339591116483 0.35175827992247805
Ni 7.472135705735066 4.180119384544329 3.66276576843423 0.1531349042861879 0.029415734157955793 -0.791908515426804
Ni 1.7500443340285736 2.7250386168023533 8.023470953970211 -0.5525964038218999 0.058438089532234845 0.7239797127953145
Ni 4.769805821218854 1.1908892463469938 0.599571632082246 1.913941277446078 -1.6469368421322281 1.1582644906577986
Ni 3.5508755026767025 5.4646023053360375 10.186771630947554 -1.3541974639461194 0.9270816930282485 0.26323108431434666
Ni 3.2190299186860742 3.2293890998634867 9.834326181044524 -0.1608844663246197 -0.15061933695318577 1.1105980378197713
Ni 1.3156345246004586 3.1141975972803424 12.939712456926602 -0.2634701969083463 0.5359778214286124 0.5168285021936713
Ni 7.4510748146013634 8.799490269093884 8.761692681221447 -0.03271214552104044 0.7220328734815888 -0.8227758944296217
Ni 1.3007113788828641 4.645653025177502 9.805004791819131 0.3143178756878328 1.5999000524583995 -0.7932897120450467
Ni 2.643081663304919 7.356805340133458 4.61440329150237 -0.09796905774732159 -1.088791740577957 2.431018919536078
Ni 5.079988774329102 4.5289340293912534 3.8569545907146123 1.6921972566319243 0.11922385336103983 -0.798015142545174
Ni 0.01960190368637379 3.3486816902586 10.989325817392778 -1.2615858138559692 -0.650444362610325 0.9336552324807081
Ni 6.571081351526067 5.980311783307523 1.5671024904903157 -0.5587253995377732 0.49704540602947306 4.066002188850856
Ni 4.5902466808103775 7.675625572992165 1.0382482391910302 1.1236466434736132 -0.4332373104345765 -0.8125943259109295
Ni 2.7869530079681546 2.4749740931524387 4.0879837717934855 0.6656231272332924 -0.33635017289752395 -0.4260325651560211
Ni 0.07308823538486874 2.145915027065655 4.083404069444544 -0.7081499448519094 1.6341070373574116 1.9876103249954542
P 8.285678585708071 5.244411845725004 9.738938396401256 0.09532982035226163 -0.5838538191742848 -0.4850674077319904
P 2.561133967342049 8.395417400432864 0.3762178729106041 -0.3830735450959919 -0.8472057453372118 1.265228038594247
P 9.045453704931829 3.1116425177406053 6.939089642785081 0.05419808330895826 -0.12621442574626004 -0.19365240478426005
P 8.64974038998234 8.514210083961506 12.05298969197654 0.25510485566278646 0.24140576090913907 -0.11724101860305615
P 3.2301574752323208 6.378802358626292 6.590031524779117 -1.0012418212814305 0.7192828215402775 -0.7382799314680705
P 5.628608787676548 8.91648699091706 7.732688090292836 -0.5822342812929908 0.6674550382357086 1.42833908025654
P 0.9722540525427575 1.669550070992293 10.278473065327333 1.5908361424839184 -0.9620700361779753 -0.5226191407335193
P 5.579673459969846 5.939634176432144 13.377572549486818 -1.5624344514127737 0.0547585837981186 -0.9897978411105468
Ni 8.286169235039978 0.48726662877623966 6.55580641949503 -0.4835892805245671 1.249876238728525 -0.477314760369765
Ni 1.6304740175965324 0.27715392129186545 12.451271972767612 -0.7936974890064266 0.8372213804309903 -1.5587161220209218
Ni 7.679236011472229 8.276615459369657 3.7343598377404263 -0.5952273511185491 0.43082278745581293 -0.34863130425772215
Ni 2.0942487266624945 7.947565650817436 10.640769457760197 0.3704088051441298 -0.19319294864933825 0.8876427703063359
Ni 3.557587215235794 2.3421377296898065 12.746485492487446 -1.897250189943642 0.8734759918876505 -1.257530412839673
Ni 7.4411692526176 7.203148781435795 13.270682278147449 -1.4212436068623395 -0.4263809496343754 -0.2621663904952582
Ni 7.059518132671229 6.4150363489108235 8.192782929369502 -0.44618281485165096 0.48424311205848214 0.8501023501587166
Ni 2.127140746969326 6.859388750460959 8.642431566443852 0.7935470794714915 -0.18246167827476317 -1.5339767102927129
Ni 5.611426803525274 9.2365940210802 5.694447447744142 -0.06709216566280704 -0.39366803278238655 -0.7248459174503518
Ni 2.292332193734063 4.502596343555921 2.637500295716124 -0.6989477095273511 -0.6678972679794498 0.30225503098602785
Ni 1.3087746914883387 4.5478193999023535 5.723091185439433 -3.519639681753809 -1.582364357567481 1.8513950792827407
Ni 3.1238532058308706 4.781461057235263 4.853535592585344 2.418771212516976 1.0925139266245507 0.30719823392391604
Ni 0.8873754211368414 7.8159697969864155 3.2505129422322256 -1.1265715304298922 1.1165216023930575 -0.4862516578480787
Ni 4.8418849853362165 7.46370209174702 4.068310585090967 1.8784142881840615 0.11684224050274071 -0.2246974470155227
Ni 7.542511483492604 7.52960648031002 5.840875723454027 -1.5834683892649375 0.00830106366652764 2.213615949299439
Ni 3.722704601724017 4.736265773492523 0.7477134774399768 1.3693374049113514 -0.17358083084536557 -1.049074110273361
Ni 3.353393775351811 8.779169980725323 6.95650121379355 0.07782754980244017 -0.41233758416743177 -0.6978845583701594
Ni 3.1480246285781655 1.0194674788205067 10.373413711051148 0.025673750617020298 -1.255216934215148 1.2609785192892735
Ni 7.300288091618622 4.107716206717216 8.029527233082153 1.3061404605378923 -0.8934298093017581 0.20323002117036615
Ni 7.683355614353325 1.783547351616647 2.3234541734322076 -0.7118549045073224 -1.180315299810251 1.2190438267287005
Ni 0.15520904724409043 1.2095246634248582 0.6077839909942051 -0.9410432974146633 0.762572742577164 -1.2758639210415381
Ni 8.988186596117288 6.218850676424929 1.872125293834443 -0.446736887582908 -1.3031353551629814 0.9552568699108839
Ni 4.378998999588425 7.159638368983751 11.751069088464899 0.4149709080252208 0.774403416663505 0.816941804246348
Ni 2.4202342912739425 1.3013038610949772 1.0271262371655228 -0.30556455497523505 0.08632350308859327 1.4722311536538
P 3.7490793176976065 2.9379341391767455 6.467952416480159 -0.5527121034641577 0.7978837591736323 -0.25272787079017767
P 5.390940102808185 6.275571590700178 10.00778460617515 2.2470744860682013 0.6279217560277767 -0.9825128774133594
P 0.7531439472153745 0.944944325578177 2.6459413157318203 0.8346186527008206 -1.987212575336403 -1.0424229235054305
P 3.8240653476681494 2.830593025904098 1.905145068118262 -0.31683164324862206 0.41679356305625637 0.4852728388745771
P 3.9520785356228 5.9816078381465205 2.725707010797893 -0.9604479271935202 0.7753128158516518 -0.4415144628417041
P 6.255371650280953 9.099351071164977 2.022251954602752 0.09842182901402403 -0.32334656154900443 -0.9207794049593047
P 7.517395792219755 2.408153208667577 0.2659911861142752 -0.052239159810374546 1.31099804574051 -0.5066587607495209
P 3.5874612792746756 0.4600346651019991 4.92124149737455 -1.1047235813168652 -0.42034142830851484 -0.8569669384890337
