# total energy = -340894.37380982557 ev
CRYSTAL
PRIMVEC
9.01477636093799 0.00000000000000 0.00000000000000

0.00000000000000 9.01477636093799 0.00000000000000

0.00000000000000 0.00000000000000 13.19403643179607

PRIMCOORD
 96 1
Ni 6.480983972162988 1.929838195205356 11.26527890358796 -0.852226852700887 0.5688110659085494 0.8632962231411714
Ni 4.589512664070997 0.45013661832922147 6.1528407129856335 -0.27049547918624384 -0.27708881613304537 -1.219424607106887
Ni 2.316518001558917 1.4234872360252107 4.679423336534012 1.8882765256901224 0.18679398710152992 0.03531821568531982
Ni 3.341885680350195 4.08174638504198 4.7643794880483625 -0.053177098243611644 0.4692057581093855 -0.2658775207982582
Ni 5.23824299709243 4.4375686127796925 2.959962971348543 -0.3066439040823429 -0.42522626720464185 -1.1561201906212863
Ni 7.211748767762342 5.9374650910917675 2.7304927470106577 0.4222766976580147 0.5516019011191146 -0.5690609771358264
Ni 4.865058310571743 4.615105613440088 11.22188357436185 0.7611061853339667 0.7227345275343037 0.3468528722010607
Ni 5.4862935764654095 7.78431325745181 12.565525135448029 0.43009593659211737 0.18677418960718803 0.10377589423708579
Ni 1.8481913680000548 6.464685256960692 0.3444356640363739 0.6908819018000811 -0.1662948387069136 -0.680446308289054
Ni 2.676135450037871 1.405196255303166 0.3614321229093864 0.3580430844899253 0.6200261553297838 0.6842345716868925
Ni 0.6624967976151402 -0.3131246421823191 4.670239984113338 -0.7200250990229407 0.6669076503726707 -0.2593698015867275
Ni 8.58305847967755 2.2419387588218673 1.4774550946701546 -0.18465585771260457 1.4394588443187857 -0.6862927397675019
Ni 6.579993258151265 0.7900793179536353 4.55136213158421 1.5885848845558963 -1.379607933599424 1.0641135211049868
Ni 0.6213542609382853 7.208449359707009 2.2930444260526914 0.04749290337464079 0.2451595715246165 0.8643963981838855
Ni 7.576838185338526 3.6218756114719195 3.8798776021899286 0.5463203410052011 0.06218624372075742 -0.946845505918737
Ni 7.570491782958871 3.895753524392783 12.720924550421326 0.47431376875991227 -0.26533450381059465 -0.6829333363769657
Ni 7.965149666167537 8.867096045271527 6.751203688939443 0.10911967504750239 -0.2754813624366094 -0.16253331478195232
Ni 6.8042808877049685 0.7179935622879101 0.3595904041506316 -0.4768650744268562 -0.14714423392039175 -0.3004148924534955
Ni 1.7512104066359568 6.613329900196666 9.197008003521164 0.32552531436787807 0.14725273447379802 -0.015508637158560388
Ni 0.2382821679829315 4.953682574484221 1.2555058980387266 -1.3194626315680953 -1.0295159856357754 0.11240014557098707
Ni 6.48200264186313 2.0698106238259495 7.111822679043935 0.19420467774330424 -0.247549926133664 -0.4295732313194279
Ni 3.72186750805591 4.4939019486752345 0.5510011452404148 -0.8171256381223798 -1.366461368915137 1.1985714178069615
Ni 5.86124515910316 5.651110728038174 4.829623930126133 0.252958498743745 -0.7816403007315763 0.49545774982737906
Ni 5.329535634732717 3.0256383197242505 9.150908241462815 0.07196569170502445 0.01975250003657889 0.49126556612290234
P 0.2807652018669663 5.586943551705245 12.032182133646915 -0.7628591634693314 0.029272523711872167 1.4025216049728038
P 3.8730362886019742 6.13911661783963 12.615992556530447 1.059581180452272 1.7121176497049353 -1.329683537965155
P 2.2978033263598214 8.336206865526863 1.4474124518144202 0.9372609475540955 0.11869857698518911 -0.8664923614809658
P 6.423199257314143 7.782167740738234 5.687896423422291 -1.0162894596431722 0.047595747501092224 -0.21420863166905688
P 4.638030189081369 1.013287878807276 12.59737524091331 0.8748800713240288 0.24269336937231104 -0.12410637826432173
P 3.902217118861835 6.042703587370302 8.309194990398458 0.19607001308681715 1.111685357346679 -1.0846880028222285
P 4.4914048556934665 0.8979798776167042 3.7995126761471085 -0.33104572996547504 0.19676421094036434 -0.07713695149331877
P 0.2267089984161692 5.478144218864262 3.5283752551629135 0.6249379908091044 -0.765853470210965 0.25005598038496935
Ni 1.3818119260804045 1.012837140001903 2.415471395935328 0.5182228114380365 -0.07827466464218777 0.9249139959529684
Ni 1.9658882848591046 6.3893487730306155 4.83713143566843 -0.5677299170292287 -0.5680430773942733 0.18079046121992734
Ni 5.991274289677221 5.677830524420696 9.196269693357962 -0.1043705903982912 0.4096453820472493 0.04162281774710896
Ni 8.594381038468526 2.2210154634764434 10.199068880164205 0.513680700593309 1.1028495042226039 0.22433235036662008
Ni 2.20503226543791 5.152855037802531 6.921419789922967 0.5260603052045844 -0.020351052852526242 1.053878730750856
Ni 0.4654211712194267 0.21270634668844535 9.104518203613805 1.2429314319795755 -1.4711926850869566 1.1910504268395683
Ni 1.7231834677178512 1.1604270544333037 11.394158650208318 -1.082357297806523 0.7434835871561969 -0.23431594394189326
Ni 4.162536808517073 6.918119480390024 1.6301888403484743 -0.05499024019295046 -0.29028963109403555 -0.17583054611149077
Ni 5.785475965919925 7.78747744386553 7.854541969239397 -0.6166819214478992 0.756080192874285 0.5266254336794349
Ni 5.247834718870772 2.686114807188834 4.824557625953739 -0.4012515015565993 0.9803971166219374 0.7161221644241086
Ni 0.9605874976830416 7.479658898900064 7.006640074377267 -0.5296572785272233 0.4870738966390579 -0.2560188828366236
Ni 5.018075120219836 4.519377705954929 7.0386623620662006 0.48287991316236833 0.16210008389927566 -0.14798421332318384
Ni 8.103553523745433 7.348295581462098 9.004441568134405 -0.62770038404559 -0.30901497541768075 0.45097997912997817
Ni 4.554373066804103 0.3877940326804435 10.507149755114398 0.13702874275294463 0.08272138755963172 -0.5411714498144099
Ni 8.262934765325397 6.8608035338987685 4.894301342786745 -0.29246992657480597 0.5991783653464972 -0.1422174860427357
Ni 6.9960702493912645 6.016308322927648 6.859342238691748 1.3997414711245055 -0.7048643321221022 0.877887747802101
Ni 2.3131735196230476 5.3926120231566435 2.4487205946524875 -0.09899569923962305 -1.1588134211827334 0.9375697370437659
Ni 2.412741721729988 5.2435797445480485 11.180903303654928 -0.6091480749646992 0.566514813675205 0.7081298902472514
Ni 1.0614628423255639 3.1786280850440223 3.48164265582182 -0.1407499003582737 1.3741561664562334 0.5156357674371507
Ni 3.79584276079376 2.624552901150962 2.5314473920354628 -1.1231632760792913 -0.21336916648689705 0.26318506156775967
Ni 1.138539178044381 2.9824845864978204 8.314867989002886 -0.3599647269926704 1.1570401313323944 -0.16230628637281078
Ni 3.4535246676650293 2.8447388075757702 6.997114160464509 0.2463852164016015 -1.1086175170546326 0.12261076755540173
Ni 4.139350804368676 6.860785504346553 6.175402894627394 0.1907614563897102 -0.2439344408682637 -0.4111857299511757
Ni 0.9586222764916145 7.5160154909414665 11.598652535862865 -0.34752418723647244 0.641098916839683 -1.2558417122833403
P 0.051593366618237976 5.806399261265348 7.927187542501397 0.08780882938486813 -1.7632982863438085 -0.31620943628359094
P 8.529672975569149 1.5746019279146297 7.966242257031762 -1.2975789441211265 1.8458216989600211 -0.9135677177022138
P 1.7396264193378659 3.208187535900396 10.465984681497275 0.5341168569604736 -0.4542051709354952 -0.5774234901679088
P 3.9169202186931087 6.003200838467395 3.779748681009104 0.1335955487016796 0.5410377524500231 0.29090592452179576
P 6.8364996975130445 4.056883632537595 10.4967394916655 0.6581265617459311 -0.1994114187552243 -0.4270774614807677
P 6.160833213482511 7.8769220524037875 10.216643186185708 1.0702805691476471 -1.4039159142171693 0.7982755952954124
P 2.542220950961493 8.384625228000052 5.880925316823364 -0.20358329074472684 0.7462256686777085 -0.3978841277462631
P 6.987605374626357 3.9113581018348036 1.6672377671949297 -0.20407000057315822 0.3553598812308073 -0.2309179740039378
Ni 5.353785382461796 2.7950313321192137 0.5376412470491531 -0.35920419467756204 0.22011085608610476 -1.1663123006629397
Ni 1.5166098732153137 1.103994556000579 6.950710600451338 0.18075086623124356 -0.8427055434740132 -0.12593906059768634
Ni 6.944740114235365 0.5921572040814309 9.220164258908408 -1.090782545755741 0.8145162255239908 -0.6624894667003172
Ni 3.0457322556677875 1.7531395687229543 9.242435263281898 -0.5032044836523333 -0.4498597494826059 -0.15222473376709267
Ni 6.196297342689274 1.9511040520428635 2.5081198559021782 0.9132825823616271 -0.03447746495157933 0.568630317356311
Ni 4.122772631107049 6.962571341375929 10.340258303559306 -0.22022732705931106 -0.19927155074325037 -0.10466472459994233
Ni 8.082368799892892 7.290619043926545 0.3004111034379626 -0.27434956282501133 -0.35155567699336876 0.40031227757178156
Ni 7.652291861358 4.0497799889649135 8.320884450577006 -0.31217100454815916 -0.8110449791459385 -0.950968526948175
Ni 3.1324814461499138 8.266567720096704 12.275664925966243 -0.15356839227918068 0.26363063374561047 0.596586693359921
Ni 0.1587294732673939 4.792822909622633 9.932272073875755 -0.00303852971600767 0.1814437785332101 1.1042846940072337
Ni 8.569653507605752 2.174336952791995 5.774898027635427 0.539982057491999 0.40209379495223657 -0.5680222514586669
Ni 3.5369023318829638 2.893959485122523 11.837160974726094 -0.1525936870707372 -0.9576294839081185 -0.47280247432170835
Ni 1.1647992208454236 3.617242016552683 12.58309944146953 -0.3609864833889654 -0.9698247404227297 0.1851255982601715
Ni 3.2771054992419586 8.357436663259941 8.040960327320867 -0.025529768839988292 0.059140772026214275 0.7981048740455029
Ni 5.443166887567302 7.713240762620564 3.666516782756081 -0.2769543474377101 0.7981272426430062 0.09245044192193756
Ni 2.8397085625078056 8.146797404732938 3.599240410143688 1.2603347150576876 0.683423645749823 -0.5912079455465108
Ni 3.225297580952363 4.260761808984001 9.15481344247257 -0.023761621195971982 -0.541039809332552 -0.21484317992926227
Ni 7.190536999581479 6.210378422969133 11.535374216454132 0.029742521369755224 -0.6433913124182855 -1.1892434555378162
Ni 0.6394469165859655 9.199579017667013 0.23707148355169907 -1.0327997985933697 -0.5850624947704054 -0.4294228217844927
Ni 4.47059875243744 0.33751141450823074 1.6517873424243472 0.46638191550734515 -0.5962740472155086 -0.2732668712837939
Ni 5.988425620427262 5.547494891458983 0.5458519051278313 -0.04109959825378728 0.4243310090838821 -0.33022734782923774
Ni 7.968413015118441 8.772612176889197 11.353612891709778 -0.3928108269884138 0.48522321658356427 0.09964567411879612
Ni 0.1644313191553649 4.859514223265652 5.772272023355321 -1.1157667265049043 -1.165045261025058 0.03858943023742386
Ni 8.085082247501239 8.875633038245295 2.2839142608110516 -0.10611276990037853 0.5237913066647495 0.7698168257340872
P 8.516502387676145 1.529555091705632 3.5890681367840256 -0.08798366439983557 -0.4381262630957616 0.7837393493524502
P 1.9871361121443973 3.219257680960362 1.444060758057665 -0.40573653391114634 0.29782116358439037 0.12150982118173913
P 4.852230284170821 1.1172733212068735 8.153135693814097 -0.20314620320730817 -0.20818273718995112 1.1493610175205817
P 8.453011319551274 1.8047040880576484 12.41606285201911 0.20985035470036117 -0.8043616535884921 -0.02825668085284811
P 6.342210508764687 7.874956831212361 1.6570258288203947 -0.7788115730335297 -1.1288279305642366 -1.3238152521098363
P 1.6535353075115846 3.1919158650264237 5.879038524184072 -0.09200538396471897 -0.1437974289353459 0.1209287518672885
P 6.966862374803083 3.791317343187813 5.885832960936268 -0.9838825040673765 1.6276504830987903 1.2659410055008715
P 2.2644756990905273 8.603765420396396 10.094097221258451 1.573545987944903 -0.6923093782752271 0.012572694458688024
