# total energy = -340896.705388272 ev
CRYSTAL
PRIMVEC
8.99897765099733 0.00000000000000 0.00000000000000

0.00000000000000 8.99897765099733 0.00000000000000

0.00000000000000 0.00000000000000 13.17091342284124

PRIMCOORD
 96 1
Ni 6.229416203855926 1.9393246508589144 11.36821032592166 1.0050791927496496 0.45753037865398627 0.06228445986151854
Ni 4.688503284824472 0.38294248946729886 6.008268131050526 -1.1714035991429181 -0.22067187079589737 0.33704668474391636
Ni 2.7780023589682306 1.5006244966658697 4.672328522626593 -0.07201865643014695 0.22735648190492458 0.4433569153670816
Ni 3.2533193526979214 4.28848073602059 4.892902460666096 0.7785452067460205 0.22207132224658527 -0.5081518003552797
Ni 5.053969759944224 4.367176794449681 2.8115820435912324 0.34406528215359455 1.247529592873219 0.09731856864751627
Ni 7.308312617935072 6.14748951249647 2.521887859103703 0.19522771969117989 -0.8211882382275276 0.3485798821944964
Ni 5.278665229688761 4.42639006654384 11.448829465847185 -1.053583310997624 -0.10049696637549789 0.30449060518476595
Ni 5.482564062380165 7.716821202542112 12.45708930576586 0.02454966431490611 0.7478814591135765 0.12978285982380874
Ni 1.8457082876984992 6.425935874979366 0.3419350487977135 1.2137193291919934 0.3506375360544735 0.5675170296874742
Ni 2.7709381616135325 1.6565227832554144 0.19382807694663728 -0.9283217360829367 -0.2522622440076687 1.5955219779953618
Ni 0.49178332279927905 9.160779137752524 4.69137395865396 -0.06717572651554882 -0.0954501479802098 -0.087414679270243
Ni 8.649151269721932 2.4546241017184447 1.4125677018184897 0.021801926366439874 -0.15917288295015167 0.0948413107516173
Ni 6.760841822434718 0.6022754685065296 4.760100049886529 0.5334403997187394 0.9273714563545253 -0.17702662330212093
Ni 0.8094166327990784 7.376452875730963 2.5654834057085893 0.26998331543651566 0.07806974772023328 -0.16659591488710018
Ni 7.409695098696894 3.9302674367834967 3.8326564275011057 1.229203797980838 -0.9016961630756084 0.4287080551056552
Ni 7.466190679579436 3.898825009321948 12.684380080627713 0.7997377816632356 -0.6150222743572892 -0.13789469029766574
Ni 7.8041832763248005 8.829481780283459 6.941176832485005 0.34536394636036005 -0.514011087349534 -0.33524202743500975
Ni 6.929671639723245 0.7756434701593554 0.41567447040773703 -0.7687888986902051 -1.1495798183996073 -1.0037884989626842
Ni 1.983752602884577 6.545127332257047 9.19144045396517 -0.6220334155677997 -0.35923041992980714 -0.846948120800451
Ni 0.06809256321502585 4.895659747378808 1.4825176539940375 0.34505181443658 -0.611363080338147 0.1788348801554533
Ni 6.234032679324665 2.0444957011574605 7.070870996428504 0.5979028410681831 -0.8145097977660877 -0.36313952517622616
Ni 3.504327832716518 4.297029764666403 0.7295894028954837 -0.035531360137390416 0.342806470045829 -0.9658423587362142
Ni 6.224052813252869 5.705720706968455 4.697050513674781 -1.7878304671572178 -0.5325808799319215 1.2880288385388463
Ni 5.253189124324237 2.883524369390131 9.088878207250227 0.6802100239085318 -0.21981415078129243 0.8998686229485664
P 0.21444923393809087 5.490897115565453 12.525314153950456 -0.5675831070387193 -0.2946509933865248 -1.5085253600991437
P 3.976612171021326 5.952679647102193 12.562601417312486 -0.23175743918609765 0.33809775171625 0.13246837707577186
P 2.424216556671916 8.459164856279397 1.2921865797124137 -0.6220555270549868 -0.049332784796856974 0.23393542067402293
P 6.155912555456977 7.773847723098448 5.772429227440612 0.8145115975383004 -1.3202126223602424 0.5870669267949438
P 4.613298829673881 0.8868447352953323 12.61146586525645 1.4354229836865149 0.4752293385956461 -1.5257653781265141
P 4.013480981928585 6.205595910355434 8.297069873768265 -0.0639407645180189 0.5733704031444578 -0.05237439983665819
P 4.837175392463925 0.9597049568014654 3.732109951751069 -0.38264545641963776 -0.30917798335810626 -0.051337216821395464
P 0.11300556012911953 5.651384880691171 3.6617118504949304 0.7585767340438936 -0.5171789435545545 0.13057090294274287
Ni 1.292145184415813 0.9745262727800488 2.550139249135983 0.6800269613634482 0.5948506845054207 -0.5054950794587229
Ni 1.9752845650364612 6.408639840182258 4.767633093970118 0.075909763954437 0.8609578048159817 -0.3356426053075381
Ni 6.0975541862274 5.623398060598036 9.239422102214235 -1.0330594800126596 -0.10165370568776042 -0.7656902051602232
Ni 8.639936316739497 2.334802716014232 10.140417729662769 -0.7276746451483984 -0.05702963922048243 -0.34077452721746476
Ni 2.475195764333528 5.180378397194475 7.11134479773104 -1.0550894632295054 0.07721305614689283 -0.651134189588498
Ni 0.39851701986446614 9.007256581228763 9.04974795329171 0.5000181155045518 0.6612108570982096 -0.007369295880877631
Ni 1.424394158077782 1.253134616858339 11.260880420915608 0.18698219185293605 -0.37014038197409155 0.28994716015295224
Ni 4.122305617101026 6.842444550603385 1.6603122526898901 0.17892178344230478 0.030187836437289943 -1.1042996064055692
Ni 5.655029466587544 7.823999024828044 7.980097988616327 -0.9702134912207162 0.14126900608653734 0.0814278655591888
Ni 5.134177646596995 2.825264988913295 4.882510441423795 0.36220312940488586 -0.3026643506093046 -0.31063039953391663
Ni 0.8755051237199752 7.402828878847677 6.764344224486244 -0.9524929340125016 -0.4151876520217172 0.18556525690075137
Ni 4.920307946811316 4.619148165063122 7.148868734201895 0.8102430520699335 -0.20554427112583956 -0.3025514791805241
Ni 8.086103244131154 7.152567313963399 8.954495576017813 -0.3344174746511854 -0.3698259360574663 0.4920119573706236
Ni 4.732103330918119 0.24236226241554698 10.396552927175597 -0.867056718624868 0.13163482543088295 0.017688161308382442
Ni 8.085716288097712 7.2938872569674515 4.774561406764236 0.341990659012753 -0.20627960662996733 -0.014561185643626537
Ni 7.202070689311418 6.036091169752765 6.929415168863871 0.21243739870124706 -0.12188314536075784 -0.04412295846114336
Ni 2.356445256954422 5.086096109697437 2.6493682745768123 -0.41088362532972467 1.1365363549520877 0.5781045753953334
Ni 2.219516814981061 5.34523966539584 11.197857881636425 0.2887073742085802 -0.9173477535699363 1.4973348906999633
Ni 0.9618737103842453 3.3192908569110338 3.9078230869461046 0.0005962388231021989 0.16685996718176424 -0.47438216010400236
Ni 3.7145979414934347 2.585964178650701 2.7189510684694667 -0.6407474470375352 -0.7033828624805692 -0.5733184668605996
Ni 1.1065772689365356 3.4225631229524565 8.203463409483126 -0.1748008192953957 -0.3303448472437085 -0.5330328798676756
Ni 3.676388282935411 2.652331637874777 6.951726333833938 -0.07136405356528354 -0.8389964700535422 0.5703449860545726
Ni 4.111587834872433 6.775582147615604 6.049585136546866 0.3637216229319413 0.5032793027543268 -0.4966934220066929
Ni 0.5744362316447531 7.280991722178557 11.128974308297225 0.13694749589304803 -0.6620798899667243 0.4837808277100829
P 0.2579898867800935 5.578691140269193 7.9744214335955075 0.1889765965751455 0.03742369206409683 -0.25680846861745454
P 8.416068752926977 1.6769594612076688 7.887506608995657 -0.0018491373935968153 0.3001392701946056 0.6467759126198023
P 1.7774600421723443 3.2851307382378683 10.415610961771494 0.6751071554643276 -0.419640031366116 -0.23803093089963517
P 4.0288872314460935 6.13433300735944 3.7257611731093627 0.27022191380988303 -0.182709275509195 0.8823241863068998
P 7.017294683854069 3.9573543591244413 10.304764256349882 -0.5786362795290874 -0.6700842483284395 0.5217889315227401
P 6.199062652674529 7.629243153298899 10.178758773292614 1.250012250085757 0.5823132141600422 0.33573953589671857
P 2.450034623182272 8.530688729623527 5.585099312162545 -0.026200055434135523 -0.6639411115451792 0.29010991098306166
P 6.851029575159285 3.948616351950668 1.7524167876266248 0.11607193799561946 0.11481286877753775 -1.9760645291393837
Ni 5.171037458526734 2.7181411604924945 0.5149772874642463 0.7970707763540337 0.29895810540231094 -0.31801177959965227
Ni 1.3385349135412519 1.0183332953567 6.797073505733426 -0.10563068805763744 1.1087872098632774 0.8631699819759521
Ni 6.803874932944484 0.7304470054533216 9.1189347921734 0.012922107378306779 -0.268398487447899 0.5416761573649703
Ni 2.655490278984967 1.5327508464190835 9.067317557005484 -0.0858974712947682 -0.12348751373340022 0.4154969557320199
Ni 6.488514764666719 1.7903465779837173 2.4315084281579185 -1.0870364484497472 1.3190093460807608 1.36066533105865
Ni 4.170504140708369 6.817148424789299 10.490408663138094 -0.45278695043172984 -0.5199397941291433 -0.40041949257360715
Ni 8.363478728288943 7.215362179111278 0.4174733660143666 -1.1104684542204424 -0.6672251816130896 -0.12529757035894548
Ni 7.634714531632218 3.8879002506103504 8.186763106997967 0.1617414150082763 -0.5166289845883555 -0.653311656855791
Ni 3.029055833874437 8.311608621852661 12.223635131199249 -0.27619124401944045 -0.05866383238979574 0.23930259852320723
Ni 0.07893543123117353 4.742002206192218 10.143262306457444 -0.049944193128610766 1.056416409571045 0.22628998831362318
Ni 8.5084972510545 2.406479571976234 5.757533219948596 -0.1710855752273376 0.5873325217515046 0.5393930177577485
Ni 3.747984148099716 2.4842847316306558 11.29837826035165 -0.265513195480304 0.6924165932770526 -0.5446900044906297
Ni 1.1118506697643742 3.273747031672654 12.764866935583665 -0.22286322202026135 1.0044168765753023 -0.6328251068666649
Ni 2.847879419425851 8.330983420457331 7.756917046788729 1.446526292688528 0.1868595502321427 0.5776127233605793
Ni 5.816570112083325 7.6625753660400475 3.5259847720207436 -1.6317560206267316 1.4905263524185621 -0.6947303290118939
Ni 3.1257768442799105 8.243432368146681 3.468007059540343 0.3939367130627409 0.45258563305420113 0.1698085082871269
Ni 3.4284934491393946 4.253897665403896 9.19097970631605 -0.570749677692159 -0.003537066618981005 0.8131304009200576
Ni 7.209836806912826 6.091866832433553 11.349757922512987 1.0530423508924898 -0.32184760840597476 0.803101813039462
Ni 0.6611638775121472 -0.00189248497285738 0.040488199666571204 0.4404968202104672 0.8483984800937323 0.42628221927298193
Ni 4.44407305737439 0.4227107709321174 1.5283395476378439 0.550887134440277 -0.9310401634553643 0.8938648399566477
Ni 6.020369956021989 5.630804219098566 0.4509387636228403 -0.4419651772258775 -0.38058574567713166 0.15749523813741265
Ni 7.799980753822069 -0.317471328404405 11.356738429376733 -0.5632322862691913 1.094429912700341 -0.06998439960893753
Ni 0.2905265899083062 4.986144466361599 5.720285552087665 -0.43621464789534553 -0.722729128217665 0.9148208733830244
Ni 7.924931556713771 8.889918913320596 2.4625656993815292 0.6390384347662285 -0.5913226167475042 0.5214994253067793
P 8.323100316148139 1.7850371812457915 3.6221595444906374 0.6229896088334819 -0.69411892068014 -0.08481349420197007
P 1.8702215024681783 3.2131659149951655 1.809407312272872 -1.0349422988576693 -1.2825043091761912 -1.3324546729523892
P 4.5887496189941155 0.9148900487423605 8.265393472891148 0.376401532392455 0.4289962757700354 -0.7324566399180741
P 8.392689409325058 1.719785595234432 12.347164995540242 0.44663275790487594 -0.026711704963231418 -0.23030348034839043
P 6.425566916900968 7.702314850776795 1.3348984267246486 -0.8825386163105511 0.5396066764304513 -0.35642431793957974
P 1.8424506578355682 3.1678740611273994 6.0327264520573225 -1.3330845932269042 -0.38394926283272585 -0.262611962673109
P 6.668701291587896 3.8615332464711583 6.06938108729956 0.8408139828782552 1.6365423862717814 -0.828618726363644
P 2.155867046968601 8.43470563537485 10.195946820359458 1.1270656964574912 0.8171055835177218 -0.26917367505102674
