# total energy = -340856.4818478588 ev
CRYSTAL
PRIMVEC
9.39139901056558 0.00000000000000 0.00000000000000
0.00000000000000 9.39139901056558 0.00000000000000
0.00000000000000 0.00000000000000 13.74526174912289
PRIMCOORD
 96 1
Ni 2.0612148468834266 8.674947893166927 2.8753852730464504 0.29044338306308043 0.19487804966124503 -0.6460740014567712
Ni 6.794339039204987 0.83129470298134 5.868374339258068 -0.41487834831141457 2.2992575958296593 0.5254789787798175
Ni 9.065874265240653 4.541342434667268 2.810493523824382 0.14689535113437927 3.2738933844877876 -1.0022728336491062
Ni 3.2593976972241343 3.6790429672414895 0.7295379563793115 -1.239722695234291 0.06821085264828253 0.524915907187496
Ni 1.775171618117233 6.0866126068525155 8.238552124008873 0.8352082066557036 0.6380403325190173 -0.5762906621150462
Ni 7.519833998342725 6.170618670327254 1.7780735603881883 1.2118689062468162 -0.3708638904036774 -1.5513308853004444
Ni 5.504139262097874 7.536691559431283 0.8593411767612127 1.0549657931674477 -0.03232236628178949 0.5665297260735405
Ni 2.1352848102847983 3.55172377187793 9.503872207057041 -1.0306943222145926 -0.055149905699266304 -0.06425135377990225
Ni 2.392252267947829 1.6027361422693087 7.159741467252818 -1.9283443402452851 -2.1453891558115568 1.252479480679327
Ni 1.5344982376066532 8.000467013044815 10.373026456565569 2.0220420243107626 0.7173082143124098 0.09627495787435032
Ni 1.4000321876534596 4.048303381971871 7.03349195222797 0.10126392644850947 -0.44105449248615003 0.5136645026433928
Ni 8.792302814260312 4.202791894454762 8.668999381081415 -0.339899323701363 -0.30902011762400333 -0.24201588368931226
Ni 7.8255052508833405 8.48897941145348 5.533677090028645 0.45614506827068535 -2.261476520426144 0.06529342189117143
Ni 7.671073086794061 2.683676768303852 1.1866614821270902 -2.6402984893346333 0.09302251237532368 0.5092010675554004
Ni 4.4740248871002555 4.67571457063111 9.762201417565665 -0.8973823661916029 0.8147833631424484 2.16010795007897
Ni 2.9663954418470095 1.966061192872688 2.8415443061236028 -0.08183152875551067 0.38623137399868324 0.23300082467489552
Ni 4.233332723791805 5.551744263300049 2.0077289516680734 -0.6086842479544032 -0.8247507587678055 -2.9138895767270654
Ni 6.059471463929989 8.45044650162264 9.57218618205107 1.4283812463483851 -0.10165242013617978 -1.6918411588440863
Ni 4.413309492984639 4.346912302513269 4.292067471872002 -0.44539117218829094 0.47662287650906304 -1.1769543537578182
Ni 4.160192508885012 9.387971074518813 10.223038302452395 -1.2379985134543323 0.7735485248623775 0.02014690726152014
Ni 1.4135651935189826 5.8881629559542805 1.228754671294237 -0.18856547717965588 -0.09968475488684768 -0.5704465446294434
Ni 6.916878012510565 2.2315842149656224 12.728661660065328 0.7315022464246047 1.0957252344729966 -0.5363215779212763
Ni -0.0384944050952049 0.22612422528027634 6.550194597647983 0.3545309575716088 1.8771220517351994 0.7780255867971246
Ni 5.676565346546863 7.83449281966426 4.664151880262177 -0.18869814610277824 0.3424259467779586 0.6100875560598331
P 2.1565281546760624 0.824610844359208 10.900858764035835 -0.1515999556989002 0.7351115610424178 -0.008515750780495011
P 7.065628380244092 8.06297616435704 13.1121688269803 0.765093709226805 -2.3085853009884887 -0.05395125740547483
P 5.656552275416101 1.6475143323920092 10.890177926026913 -0.8825630417905832 -1.0112907208770001 0.5284025801845158
P 6.880317296456104 4.781705899012989 10.165335669115168 -0.6608010232543007 0.1684141990427616 -0.048614932794225955
P 3.946632097100152 0.6655412074757607 0.8319211092903133 -1.0661598621110542 0.24825337995859184 -0.895197442725142
P 0.7673308239740623 8.164403272856447 0.771072357309818 0.2772914190621547 -0.9453524663129784 1.4141432483721323
P 7.479582462506758 0.9110877848937797 2.927520685094932 2.1580304987246515 -0.8362993828373532 1.2388112391636148
P 3.8426317452925214 4.692243432756939 7.686625243430636 -0.9720202054121517 -0.7669096793896212 -0.8768310244028125
Ni 6.194792131186279 7.1599086341538625 11.331373639180711 -0.2931245294396693 -1.5902884975105644 1.0004326951165738
Ni 0.7464960054364759 0.15722047043312004 12.695082713172768 0.1537545401480578 -4.615567004935283 -2.5519379012113537
Ni 2.1233483422382475 2.0679578713188502 12.857784943164322 -0.13043694846803988 1.2464700412604532 -1.2866414712730163
Ni 0.35641204184723024 2.9775054667872682 1.1984289049928083 4.575849374630686 0.780815747947752 -2.4921378983345854
Ni 7.592983604648454 8.052692582523074 3.2119514106639633 -1.1028006532625394 2.8513665184921795 -2.093991775176187
Ni 3.977022664054233 2.68460651679843 8.548687108463357 1.3076039324572966 -0.7280127452141075 -0.5370116620097656
Ni 0.8271765745482855 8.62649766606059 8.310865895809375 0.5153573169647834 -0.359590117262071 -0.036405020991595365
Ni 5.953930922696997 3.572713548497946 5.90884093812965 0.4763390267200571 -0.3684249419448816 -0.3465227425551516
Ni 3.1349522699347254 9.048302957833025 12.46116550505612 0.9719361303387776 0.62089441686735 -0.44963194974251597
Ni 3.3391964139759356 6.681013028254771 5.465349967076106 0.9714535342754045 -0.7371347621200338 0.21505195350595868
Ni 7.725975204968831 0.5424988551872597 11.107862101084187 0.3773458985835953 -2.4475320866997525 0.24381282768873494
Ni 2.2616648657548444 5.638323570083013 10.468184806275776 0.1501565383841543 1.030534913818593 1.114694576486648
Ni 3.1389905714768314 4.0947908067007655 12.095802520883817 0.09310273079395578 0.8245702673258831 -0.6147111708747736
Ni 1.732807017520861 0.8362787183962135 0.9308782798697793 0.39693204824563894 -0.8708928045415066 1.98530610234231
Ni 5.834801027204871 1.923396067510392 3.8730983825779766 -1.0192184603645094 1.1823233313792154 0.21132308259114574
Ni 7.232682584502187 7.195145162958471 7.686212961017384 0.5531106244541572 0.047964186584104486 0.1391630154871281
Ni 1.9642110872824676 8.506184454302637 5.488372981565578 -0.3887425704563111 0.9270223005452227 0.2536971766819824
Ni 8.27977660877452 4.792506007788388 6.213229325575727 0.45196008365506035 -0.17464963842951212 2.042834792686398
Ni 4.379988809562797 2.242083798975098 12.97721724170216 1.132376052926811 -1.0846183259265578 -0.8372391210428033
Ni 1.140970448027895 4.450922045719835 13.208660755339293 -1.0626616191498086 -0.2904878631477707 -1.2174430579004838
Ni 1.6189456968313434 7.0169903251590515 12.676608892327474 1.255079123085703 -0.42139840881811946 0.4176430555407453
Ni 0.3968354402837108 2.8165274976402026 11.3191131678709 -0.01964091415937908 -1.068569242883495 -0.455422588282364
Ni 5.913078337329181 0.7559831966407444 1.6363188457214406 -2.023539691902212 -0.0698599582159313 -0.42080808353228816
Ni 6.062796019153025 4.161018951991303 8.239253661509327 1.2847645659652775 0.0016290509629907429 -0.6595802634733221
P 4.749756359835676 1.0581007438243069 6.060382429626697 -1.561103648416492 2.3847981980056416 -0.4878408567120695
P 1.565377157305361 1.6919919977487854 4.9834819834140465 0.06023066265628336 -0.923953431811912 0.12250278122262774
P 7.636569087106393 4.115433101560182 4.348698546590731 -0.6181785605980837 -0.5415254907197189 -0.2460340037097698
P 4.40690455891088 7.853115963752623 2.944194174764362 -0.861096387276375 -1.4533206899025424 -1.083670874411624
P 4.19511912152476 5.924517061232169 13.57725344160539 -0.11686203799708261 -1.1129909635319801 -0.8372512052276613
P 8.149677559326163 9.042311245312412 8.906915446864641 -0.5888062780835537 -0.16517872282459942 -0.022699498480044777
P 7.7775058109258906 4.418230586026647 13.46742854417819 -0.11025867374795204 0.12123728424664282 0.21714894524430345
P 9.304481537985504 7.598289745046802 11.558981705492737 -1.8464356783949363 -0.6177692409748071 -0.7141547562850926
Ni 7.582653065819811 2.413495612339093 7.487785849476594 0.9848520670694976 0.34244368738977154 0.9793625047098361
Ni 0.2796692863089208 7.084054304954817 6.465235307181328 -2.0126176456730693 1.0995746901260741 1.363024061098814
Ni 3.2309511498496253 2.9689968593520404 5.6979054223471595 1.5248145841774707 0.23384234673958437 -0.7448169612556399
Ni 5.637403212987371 3.8792394183416588 0.42491572309974995 0.5468271054382904 0.9471728073511688 -0.14612659128915478
Ni 8.856896856136137 4.939932188272061 10.941819350491407 0.13213233389259177 0.02411309099811976 2.188272071218012
Ni 3.7761594236296703 0.07500065103584276 4.167384442189534 0.9354115530501826 1.1645598367482073 1.379801537667469
Ni 8.8953828089723 6.355432009971681 13.41571856250147 -1.2135380664191229 0.0013097199503590347 -0.1370670521900478
Ni 7.805745747523827 0.22122473245581895 0.5497828242013467 2.2052812041814986 0.05404330289864886 -0.1372881670619184
Ni 9.53621430670984 0.26192235974120537 4.167810811701189 -0.4815699361016933 -0.44486229626801455 -0.635180494472719
Ni 9.01944318890537 2.3955674317719295 3.122565953879182 -0.5751912584032803 -2.3870810805025466 2.7878029348079214
Ni 0.8904830556301042 3.789072597165474 4.673979979247791 1.5069487596406435 0.5552035024274438 -0.8867341424491374
Ni 5.685205433567183 0.18370985026954811 12.83920124295149 -1.3188244837634642 0.01703741509826098 -0.2956627224804908
Ni 5.439639134211401 4.550677485208787 12.009812054814086 1.0318333209150423 0.6313258966133192 -0.776138911297373
Ni 2.539415489261318 6.2444538487552474 3.124215083532191 -0.9333413007847151 0.6755969506165527 3.3178304521903703
Ni 4.647014455485352 6.7119295135492205 8.42617537021469 0.045080951499038485 -0.27122901491815865 -0.6437145000856592
Ni 3.258580645516778 7.799866731790435 0.6125079776890808 -1.1152257663997696 -0.15271170070584023 1.5977428969060805
Ni 9.032356362441174 6.415011044816146 9.256925372057793 0.23839345644537657 2.263344169762502 0.01758608851287939
Ni 7.821964693484797 6.470561169517441 4.649252425851594 0.309419409944951 -2.544345947796708 0.10157734392387023
Ni 8.768918230911838 2.3569781735474797 5.594252552300128 -0.3563767525310959 -0.2691731608303945 -0.7743620219026084
Ni 7.428756211469833 2.5638519092905265 10.217402523951423 0.7027994791732735 2.308360329461876 -1.3111188875890902
Ni 0.2828764490452677 7.23543426439018 2.9246206211037635 -0.2368757342492695 -0.5067754888330434 -0.19772246108857558
Ni 5.894943545985445 6.0059123158029415 3.2012715117949333 1.5817868877974564 0.1555226877920741 2.0314270650700883
Ni 4.943425788675929 8.558626025956404 6.870761548039609 -0.33281747715391713 -0.6471800900367564 0.9796265570045001
Ni 5.989402236474984 1.2722809879388848 8.625371637328268 -0.6315177009091512 -0.3233699585877722 -0.01716725580790592
P 1.2250892082898557 5.763379438303207 5.378562171236782 1.9343465805753075 -0.7507058159362491 -1.009334625591894
P 2.0109708625804807 4.062493785762853 2.5371690666360345 -0.43283647545173204 0.19197784529531453 0.12372842609961271
P 5.782922939487212 6.364259924970702 6.323906022886343 -0.18827725651527574 -0.46076302665867097 -0.497693066915801
P 0.5162639822619737 2.3694311685354625 8.670167671108945 0.05517021741424047 -0.23751619604674576 -0.5526102877789708
P 4.068513672480272 7.066454823350383 10.508939721094666 -0.19122785450316745 0.036688356559969076 0.66754991194236
P 9.205036014661411 1.7221665625273588 13.243243642778017 -2.637838200719599 4.017940300346622 0.8105644399650943
P 5.565352400357053 3.744407103829995 2.4375159933954755 -0.46656703493495777 -0.28066882017481987 2.2945684178841064
P 2.9607887766827368 8.068338653149 8.084275857141916 -0.45303043390110365 0.48541527798971246 -0.631965329969531
