# total energy = -340887.85552881076 ev
CRYSTAL
PRIMVEC
9.08584612352360 0.00000000000000 0.00000000000000
0.00000000000000 9.08584612352360 0.00000000000000
0.00000000000000 0.00000000000000 13.29805421318178
PRIMCOORD
 96 1
Ni 6.3599378764689565 2.130530988203041 11.143064397925155 1.0060209878376287 0.47560291988498093 0.6331817188751353
Ni 4.651880564598131 0.8114414776545322 6.146546784170232 -0.1761532195582321 -0.02376753473324294 -1.0892036313043951
Ni 2.9027824854686584 2.1264968724928703 4.709200442482707 -0.2227809467191002 -1.859033569664605 0.42465239697904283
Ni 3.7102234650439385 4.328469869319942 4.792325940727704 -0.08513848164155662 1.308562953936456 -0.4377002313019365
Ni 3.9407677263724614 2.9549170709302754 2.60342656798929 -0.18206341439508 -0.7233161110693865 -0.5720401143688083
Ni 5.4512623985992645 4.754886802900389 2.6550496203101797 0.5643049505080797 0.3123216711934105 -0.2805703469237426
Ni 5.713361803759819 2.9022645922355963 0.49648243650607427 -0.9414934975782044 0.8750081122614607 -1.0813908201281957
Ni 5.680625499922558 8.114978099009356 12.387123899187591 0.8443281666791007 -0.1460042067786776 0.3616948223098997
Ni 2.0018027193253505 6.514260974075363 0.1950494945867395 0.3981108990450885 0.23936841876413617 -0.4909832589957931
Ni 0.7286576072264339 0.2910096591654891 -0.06245428956884998 0.3830048966415855 -0.38643140582463126 1.5732438833234519
Ni 8.050068813798866 -0.15463565071548274 7.2989028397958435 -0.7672156406658142 0.7104348842313442 -1.227020417176274
Ni 9.134455471215823 2.3428581279124376 1.3192948506724946 0.26825553411213154 0.5655537353135163 0.5747058341264296
Ni 7.085860643990973 0.9703138584503134 4.6792126071191555 0.218261718692508 0.2106792783595597 -0.015755463062043833
Ni 1.0352958304303557 7.68058379247051 2.2658292324636684 -0.6599348185992635 0.19590443404323032 -0.5666258853317725
Ni 7.92293056800514 3.9507621571859466 3.645993801128766 1.0631272459323176 1.0938226181336452 0.3101969115409238
Ni 7.7887326197186155 3.972086638203446 12.688631345045719 -0.3695922227801054 0.4138943871315904 -0.6362616433520397
Ni 8.572150621956753 7.573207262148902 9.253371026203908 -0.10791305633391093 -1.176454274192948 -0.3341377386272374
Ni 7.261853484770254 1.0010694478172657 0.46499271076664045 -0.7886550414865127 -0.70541171998514 -2.1311475582908783
Ni 2.5000432670699793 6.780276378945564 9.390208412809814 -1.4873764939356706 -0.06801724858023771 -0.7922581854567389
Ni 0.2585404792063337 5.297666168688385 1.2471050769066905 -0.38397805918813227 -1.0729144072260683 0.9542986197626727
Ni 6.686873880070447 2.052356367549198 6.865107290521188 -0.27551375833644165 0.7205560318257461 0.04001819226415043
Ni 3.468530870435283 4.380522682165813 13.440609593698492 1.3577386443301585 -0.9518632708483027 -0.4294696158620281
Ni 6.287841686918951 5.858035732708115 4.903032433679441 0.4678387025585297 -0.09618316949149242 -0.46033133843789104
Ni 5.7987233287531765 3.3323340359860607 8.780426382848212 -0.4249359896577327 -0.5423680412256724 -0.46035679235918775
P 0.1380085521803209 5.7936715982692695 12.472963339690759 0.4362349596103197 0.4972577791505952 -1.4968908611840093
P 4.25201247359678 6.110840317212127 12.472111995902374 0.8512544614852887 1.1757179102475557 -1.3051487860485844
P 2.6664777976530907 8.473978053829747 1.0496696391093865 -0.23496283349727276 0.958426268777801 0.9198358100991127
P 6.799447514415068 8.103884280806387 5.595595608315283 -1.028395498878087 -0.4784735565645566 1.5455631295787318
P 4.836632161108503 1.1891010348036997 12.495876026622984 0.7396557287696746 -0.23650780938688948 0.07483555705365176
P 4.120940056401018 6.33084499695552 7.945720596013745 1.2577211886942403 1.6224499127344572 1.2801851741247114
P 5.150648091422016 1.2934883217274562 3.4711775774316176 -0.7388854262625533 -0.2659466834732968 1.0763116058330755
P 0.4866479165856048 5.747451898679998 3.343184353511028 0.4804566484328565 0.7803233816923658 1.0317019375435006
Ni 0.5272671005808477 0.0765019163695132 4.670422959511004 0.37024631142433656 1.3748259388297484 -0.8919190290841865
Ni 2.065757990685462 7.042975449954928 4.2653504958096855 0.17855128747676347 -0.882546586730351 1.425658190990267
Ni 6.26954279268408 5.876788919252691 8.909217344064642 -0.37065897348172294 -0.47303361649590797 0.2680159072974997
Ni 8.752786330141209 2.428773889523635 9.947369764538415 -0.06673272544085927 1.854971226669773 1.0408938884554138
Ni 2.4824076396072745 5.875898506325671 6.663468740274503 -0.5870777254282212 -0.40819785096744543 -0.19236711031393322
Ni 0.76643382994755 0.44100335106041766 9.107345123341934 -0.4971240817862083 -1.452966134776601 0.208450389029041
Ni 1.5904137753499092 1.2012760687037636 11.379344553955999 0.26671287221536 1.337536715460987 -0.9480305273657736
Ni 4.35119357065133 6.7484486597277105 1.2086510500594962 0.48042785207745003 2.5781515834922435 0.6904792670450237
Ni 5.428774929268923 8.314385165430775 7.799933650906674 0.41340896285473966 -1.0904521589995155 0.2452328479647131
Ni 5.918992674824181 3.273675812957096 4.632456842604433 -1.4094715539280758 -1.029079669429305 0.3694150737722929
Ni 0.8081096978551641 7.78602503755278 6.700064711575009 0.44797333109317045 -1.6613206216577259 0.16385357625527264
Ni 4.987929671932282 4.796191059698664 6.81320530272214 0.8184777812749001 -0.009914688010550666 -0.17398912202737776
Ni 0.8895815720928376 7.568464450435594 11.299330049447857 0.13361046110001504 0.0666854171426916 0.22808950341620718
Ni 4.7766837479199795 0.3835290137905415 10.345766857040946 -0.4559080125592148 -0.01954552623209537 -0.2818276163696114
Ni 8.542176415362492 7.133915684511448 4.79728681274967 -0.4033955444827956 0.8568736074442792 -0.807196551934126
Ni 7.493978683336547 6.5369392461757805 7.137743551513014 0.7619777893056426 -0.330157928043883 -1.3801980017749391
Ni 3.0083600182438395 5.310595327822557 2.272118455199209 -2.1491612212594795 -0.7908618193298445 1.8172757690015282
Ni 2.71937559419501 5.348946684607758 11.306976697604792 -0.3126566859353261 -0.5406492587623527 0.02278254511215431
Ni 1.3287595766528653 3.781574615206029 3.7639607937741903 0.5147538790528295 -0.2573648553415568 -1.0071057362613753
Ni 2.1080071754879226 1.080107223859546 2.4999015278693513 -0.7243607502838171 0.36226637854265353 -0.6518967787861354
Ni 1.5410867163622624 3.763248463432575 8.104924610195608 -0.5342441265669573 0.22031885833185283 0.05325937354477278
Ni 3.5851840497210437 2.913521955670058 7.014111533765581 0.561772156783897 -0.6495079668389847 0.41464977724037616
Ni 4.503354236863546 7.358299742120387 5.468425562059877 -0.007933395914463756 0.7670665166824595 3.085957056251698
Ni 8.265476055368056 7.685181230644713 13.332229985957056 -0.24572727110262838 -0.8255028064424815 -0.17536286244645283
P 0.7044102094882992 5.961832439629256 8.122731051566763 -0.4536297580479993 0.6805936325001956 -0.7933745584493691
P 8.688649341857216 1.9194849528070084 7.916265191237164 -1.1461340259428519 0.32015993629090667 -0.9423866988164351
P 2.0322766474602867 3.275901845274645 10.446951383181288 -0.8928646808269074 1.5564954602205194 0.0767577137770291
P 4.306391263068335 6.310038409171082 3.7643196846988567 -0.422891191313562 -0.7427490229830176 -1.8647979829522077
P 7.168351041587003 4.161762763351009 10.154992253088519 1.5071364501714173 0.4601336206047882 0.5218331544971142
P 6.764984899800932 8.172436990340701 10.262520517041569 -2.27475266870976 -1.4320206428731854 -0.41688586565974656
P 2.523566522866446 8.937828673729792 5.634133224947463 0.2591350598681021 -0.06856129400916579 -1.3620915219822154
P 7.362152140906676 4.190283234554218 1.5843971280001912 -0.9429767669919502 0.2834080734828538 -0.9450107667028433
Ni 2.8176390207839583 1.8834868301860734 13.390076842920891 0.26005911434426826 -1.647837756679943 0.6075987281997084
Ni 1.2607156745054187 1.134504185023488 6.871251139717623 0.7520301911746273 1.401674169370844 -0.7234688345971669
Ni 6.821553378205259 0.8849023613028877 8.9884740890002 0.1063310565587717 0.7007055727587223 0.9308442453944743
Ni 2.6047303869181397 1.766588333053072 9.073980987532662 2.0858030687178077 -0.35279417738616015 -0.3951500166445517
Ni 6.788471812212622 2.246366441331335 2.4718289888835097 0.5208556210751933 -0.5768131102774195 0.4211631528788617
Ni 4.702161637436157 6.999999397456941 10.178716306085875 0.24532103680314524 0.136409621111707 1.2082161399855773
Ni 7.503764139687568 6.217408207222462 11.15387564631149 -0.28246473573297803 -0.41773432970297086 0.4834180450540255
Ni 8.247822256212963 4.356672335906359 8.246375789498867 -0.6981689223797976 -0.6634603152540187 -1.0605859675677025
Ni 3.2406124186568483 8.25258323961866 12.224701678283784 0.10273562589802952 0.30415147667779235 -0.1526646495179887
Ni 0.6703055772142099 5.131813132261694 10.152957932125664 -0.8888200784438886 -0.650210392222648 0.6167122604652024
Ni 8.65147005923105 2.637321317216296 5.5637460830665635 0.8906378483789177 0.6195204193379589 1.4394421321482374
Ni 3.8488643921193675 2.6861395688170746 11.398467534440675 0.048379676854968294 0.7340898046461227 -0.9315168459814666
Ni 1.1212751929649112 3.746857596898459 12.790759890605626 0.2728922615531945 -0.15874428005316532 -1.7661054167753005
Ni 2.8850741712364014 8.477557877230213 7.63974563958199 1.3098197091616925 0.017953756264943273 1.1944080304578915
Ni 6.161166819281123 8.201375410468838 3.475553320958685 -0.9538111386032929 -0.45829425340320423 -0.8513706753481789
Ni 3.6180112120202454 8.730998470967812 3.778150159775481 0.6197801007572488 1.0882672355330547 -1.3442640068824914
Ni 3.758732797874118 4.470327185948075 9.22204121135749 -0.3317401849293384 0.12106039234914635 -0.10785674917467877
Ni 5.428057147419591 4.465429914849467 11.214874383320048 -0.8913901531639101 1.0428127027446814 0.8085479237556977
Ni 8.15008580870327 0.09149174542050227 2.3214546000330496 0.7574169094078375 -0.3322775454900471 1.2464170765353308
Ni 4.8671606043206035 0.6668266067064976 1.2567397082108904 -0.5734652768511093 -1.3843999556714286 1.2181994764505342
Ni 6.108041876584352 5.5628365898625365 13.493669118302666 0.8534003041836979 0.17650134692627023 -0.015965779300637018
Ni 8.209607187120673 0.3538773547361696 11.004857774297804 0.9813445681368711 -0.5556169358157786 1.2208628822153103
Ni 0.15799196229957496 5.16721158903382 5.565860359475925 0.3601624448257733 -1.3266946305401603 1.2795416270034417
Ni 7.541552174008737 6.30174303159589 2.7374173589825896 -0.36084121606035274 -0.28981860499488793 -1.0416341090555479
P 9.056199077946232 1.9692117890271947 3.5977888441460872 -0.3069138699142779 -1.606803207336136 -1.3490927957297023
P 2.0718364217893 3.357665375175149 1.3954178872557148 -0.16086981103660034 0.2107895786851789 2.171406148700609
P 4.733135287111767 1.3938505787872364 8.281882367840701 0.5031589751263786 0.0173397768300282 -0.43544691649138556
P 8.554678539725543 2.007481373196649 12.313958305540545 0.5489364384718095 -0.39222847212238254 0.38315787727968204
P 6.5132070159168505 7.5918695902315365 1.2250582711167615 -0.2943643153840414 1.0253029759956922 0.48723227659379315
P 1.8943807597727722 3.7006924123863514 5.937155281366142 -0.2900949985847262 0.0057109343418482285 -0.48498127577608735
P 7.0252126206455054 4.242236103091953 6.201706956414477 1.0469521788343517 0.32630898661143803 0.5412385556069195
P 2.654975116371389 8.816087420575347 10.148941988107882 -0.5108820548022492 -0.5931169896437657 -0.3895984906987032
