# total energy = -340889.4134799947 ev
CRYSTAL
PRIMVEC
9.10441071942657 0.00000000000000 0.00000000000000
0.00000000000000 9.10441071942657 0.00000000000000
0.00000000000000 0.00000000000000 13.32522537581862
PRIMCOORD
 96 1
Ni 6.707956885457244 1.698027238594764 11.13641057625959 -0.2668990200842371 1.4665693273823324 1.4091655926518827
Ni 4.297181743842579 0.7776450535642662 6.096450940851001 1.1487385534452346 0.20473488785066676 -0.18318081582897483
Ni 2.7294386236369874 1.8740154991442195 4.599881551987643 0.09850256165328841 -0.3849244822618016 -0.05276237930369623
Ni 3.3928133069486788 4.332962078242959 4.748337163870383 -0.16471489581430343 0.6244685073718536 -0.43345945374771155
Ni 3.9371842368386454 3.2465509476249848 2.4338256888500043 -0.33051891092772756 -0.582178745464707 0.554490021300187
Ni 5.456592040165961 5.170130859103981 2.2750693466007017 -1.2096580146384264 -0.142032109504807 0.41751321483110027
Ni 5.200849141105733 4.5551552235460875 11.490875332827109 -0.22143677398637993 -0.0361157718859507 -0.09851053207308841
Ni 5.932379443583137 7.700902134916361 12.441709951064322 -0.7691902478936817 1.1877941246857995 -0.43258219334908077
Ni 2.1457093259066022 6.608363735837456 0.38487348860244724 -2.2617678264143177 0.4489858315180848 -0.7233675331326123
Ni 3.01737471924677 1.7963093530609497 0.27326797938778363 -0.33063769589377895 -1.259112155504496 -0.17598892606622593
Ni 8.327968428001915 8.814435305274472 6.562167045053494 -0.34351403763581484 0.6964887064638973 0.3959660847879439
Ni 8.97589292620484 2.479185684282467 1.1716247738377723 -0.9845013685982981 0.2062451538476061 0.45795101113117265
Ni 6.615492489485165 0.975137021956027 4.624813070491968 0.6455111869747656 -0.5559300961808232 0.44657670785595993
Ni 1.1076699298100583 7.80139662120425 2.5630536955876644 -0.06220424144288643 -0.2204474134899171 -0.6729507712429572
Ni 7.481358373152803 3.9948788880079107 3.6658491238613453 0.8752832202997184 -0.8186253625963579 0.509737913895477
Ni 7.7980917200878785 3.562401166713537 12.459445343281102 -0.5366416802648565 1.3718429449420246 0.00841599197783712
Ni 8.12936481105283 7.143684881403255 9.160119768077173 0.8383295258935046 0.3261408364646899 0.1899710992779309
Ni 7.1767429969777545 0.7914236688521888 0.173939768121953 0.1451336312482662 0.0075549295291224726 -0.5121642639487824
Ni 2.078782802197391 6.724927507167755 8.863167574463143 0.00013755401912879535 -0.7330767900005761 1.3949509917143976
Ni 0.3170784041039751 4.989071441745108 1.1920095495941214 0.05783208051711975 -0.20300659230565038 -0.0959006052540671
Ni 6.554447415145584 1.6566021695052644 6.9911195384904055 -0.21781897472813455 -0.13958133397146927 0.58979872390381
Ni 3.2821674026311656 4.516261180655903 13.515109968223879 -0.015896102404966174 -0.964848627364377 0.06708393813269092
Ni 6.297366167699388 5.994872119238153 4.892143153163231 -1.2570514163207254 -0.16901198052776054 -0.8626493335857918
Ni 5.459396198688943 2.9527607158779396 9.25480837160498 -0.9324843521010586 -1.1930720852552872 -0.4505032966038757
P 0.12829571507287688 6.016140022841026 12.460631648006895 0.34292731189440945 -2.520139268643518 -0.3098171596040019
P 3.8931188886203647 6.19130888641948 12.336267217512667 1.2267489086824421 0.9351423585491959 0.43920509798223717
P 2.606720270613392 8.734808128514745 1.1512545651386852 0.45627619453191093 0.24896608975490025 1.2211354191504065
P 6.391059659127968 8.013811629320099 5.940771889448346 0.10667249905859047 0.7169184350731589 -2.8931191769489333
P 4.982525370387888 1.583093156795678 12.722925170629738 1.6544416351497053 -1.154851865431824 -1.4803239579642633
P 4.087461641320245 6.141079852097114 7.957904173988694 -0.10721705870815082 1.367653075230393 0.7723496194582697
P 4.695736430537508 1.4981034820812875 3.561526232836724 0.1234142372933036 -1.2339472262030944 0.15959171565512514
P 0.5938470294400912 5.843402036943208 3.299312829028824 -0.4314473084136892 -0.42293412873635544 0.3244984157652605
Ni 0.5777203866097108 0.10501391580349932 4.505245754042411 0.40036472807627177 0.44969314199775456 0.4157468669592969
Ni 2.1842756100083864 6.6835479601322 4.675154999508117 -1.2874084313460281 -0.06632931935485352 -1.778247708564789
Ni 6.094192136534274 5.519676502522256 8.613745867813648 0.2623944473456642 0.8115550860131377 2.446242164243735
Ni 8.97632083351192 2.594538568977842 10.054348622675473 -1.4985654206729546 -2.290944962198906 1.1038869443481827
Ni 2.4691162059499425 5.228990874854226 6.8083903721928465 -0.6808617985599178 0.9151054945029788 0.8740992272939462
Ni 0.7184008316787298 8.888563417917704 8.8046826604374 0.15229518199371192 -0.3050001978313328 0.7426641765786952
Ni 1.5953750069499053 1.0571768675748137 11.475564445203414 0.390813594052727 0.41826937627083444 -0.5449059771561776
Ni 4.277825766505375 7.246127711599969 1.0330301492804905 1.5393125206833298 -0.144055567692739 1.0694056227418614
Ni 5.890034829003959 8.035543857873206 7.916356195353545 -1.7124061274796314 -0.4119169516902454 1.0808444607064223
Ni 5.389565367938072 3.16971882497745 4.783649531556214 0.42215277048564076 -0.18360196252679348 0.24823615356741116
Ni 1.079036557878965 7.364384903337003 6.776956483503087 -0.14556789057220737 0.5840407383741103 -0.5016826476911682
Ni 5.157375579588731 4.743662048930282 6.724015245206707 -0.7757581309191866 -0.9158531713022808 -1.2068290298300637
Ni 1.042418617686005 7.486629826999577 11.28089575459729 -0.8564007815729187 0.41945131239407757 -0.07380248780344709
Ni 4.64733738278371 0.4215387717315093 10.722622389432674 0.12070352323035988 0.005973958195247776 -0.9911242732314545
Ni 8.212460768323128 7.280132685896514 4.686495453586773 0.5696088792194964 0.7060814923586549 -0.8089649566884585
Ni 7.65410546346141 6.425692837768947 6.965615352547457 -0.12264187790365329 -1.0601008004011678 -0.5980200833723379
Ni 2.7665026799586037 5.445047647285635 2.440034897008035 -0.6458256328913909 -0.10347816049100889 0.3871965661254299
Ni 2.2083749853666075 5.425737192002376 11.229887382711395 0.33101076296248155 -0.7361001502079323 0.3721389004613591
Ni 1.0320760070298136 3.445218295449593 3.6038071165403798 -0.13806412599599446 0.9584650924355365 0.0367084111646271
Ni 1.6384843920353513 1.2785324070853628 2.4860476786940615 -0.14341510589526268 -1.3468119701153256 0.07674691514375169
Ni 0.8006637353618444 3.3824433830601204 8.072967538420983 1.587910227086375 0.953909354744054 -1.0050380550990692
Ni 3.510578860503113 3.180389194422042 7.5148407542700655 0.13098407922076152 -1.2400654232856902 -0.391093587186991
Ni 3.93449843565592 7.155110916943326 5.927033333567894 2.6362340894572727 -0.004270859461211999 0.7792987970825934
Ni 0.7202663254493755 0.20458248351415698 0.27563785751613457 -0.40262884152010014 -0.5607488577257053 0.3488907285666959
P 0.30988045693426997 5.626735268988942 8.013471124356593 0.21912792334754516 -0.25597311720035265 0.11165118322010448
P 8.719066602260735 1.338648831524476 7.915743468507451 -1.2095304879216267 2.227875544542247 0.21872426015122332
P 1.872759090455351 3.3893081087949524 10.100014526310444 1.0582830304661388 0.9433076679688076 0.9522245108424634
P 4.278717998762688 6.221317024379698 3.836305544415465 -0.13024128751746603 0.6030198505797745 -0.20649017997887664
P 6.920016821552325 4.107910147952117 10.237397353791723 1.4932524931004736 -0.5794006684989376 0.37951950919614635
P 6.327119382157516 7.776059045978738 10.26484715232026 -0.06330801603002645 0.6377374565666178 -0.09788498267394756
P 2.4550134736379343 8.796217379285881 5.589346185202163 -0.3539267483287066 0.17706236163606281 -0.012768869629894137
P 7.218468511623287 4.067741487551485 1.4498382691660867 0.2475897782326639 0.22916473875825694 -0.7569767365466253
Ni 5.3424045200515655 3.374522545673777 0.45134115000789765 0.8535741107574009 -0.15800791610777304 -0.03405888935692199
Ni 1.5583018462175007 1.366107734463801 6.904718680103735 0.7038523459178201 -0.7505116976475719 -0.5962974442542763
Ni 7.100848628641477 0.5101656585560658 9.265428666790232 -0.06942955554673205 0.44820755859116357 -1.4202961553474056
Ni 2.5940105131520856 1.581700181944976 9.19207351862298 0.7593519216470213 -0.8274275342690202 0.051766076828697945
Ni 6.560592892428092 1.9835051432915425 2.3408687442542466 1.0548099843158738 1.5364439408862829 0.5286445209919928
Ni 4.195048463612688 7.055026129140937 10.285475015844671 0.16341931693133147 -0.073572374070512 -0.3342076726332245
Ni 8.317689548221246 7.378551366524533 0.4090338635129538 -0.28831013877016154 0.5324255853009798 0.4504264206193533
Ni 7.5883898263871234 3.608833661736932 8.117394331747581 -0.36030436972027624 0.27913412869784826 -0.6653693593512734
Ni 3.2788807103363724 8.417237175787088 12.400641774877748 0.03960681575834469 0.2940169593469517 -0.1976468706556338
Ni 0.1008604836016027 4.898710164665265 10.22361964894488 0.03253885316796977 0.8625074086912887 -0.5717488083806347
Ni 8.672907239561006 2.4456359305253668 5.781762444579111 -0.2565058497753711 0.6845531313685759 -0.4391914711354823
Ni 3.7175676397887765 2.665543868720481 11.402062716022458 -1.0065197818509182 0.7690665778316239 -1.053301003870515
Ni 1.2839313226831812 3.4343385245568565 12.482498621839678 -0.13380097984426634 0.02439256991175154 -0.07496616909424508
Ni 3.177803541757994 8.555951978566783 7.786142180927445 0.1969750413995898 0.35871697062849833 1.004343857245522
Ni 5.703276050491233 8.062538435862296 3.52965260110586 0.9603278566758879 -0.5270717771882342 -0.3226091691623476
Ni 3.439327741669174 8.527336815457268 3.485892250649008 -0.90019978103574 0.6673935888701538 -0.31742736785109205
Ni 3.7619152247415126 4.649540650194624 9.505229742559097 -0.6631150160994579 -0.15375351170679327 -0.1497932415074646
Ni 7.319454636093777 6.037180316174177 11.155239408212116 0.071029038823368 0.1063264285730814 0.8206269664074188
Ni 8.044630059840527 9.04688912153669 2.4726022848410127 0.14157445314209813 -0.48361267756333487 0.0972784594382002
Ni 5.06203418980736 0.6335386187153839 1.3207095005060256 -2.0651483685819336 -0.9858406562350118 0.6573953400068613
Ni 6.305104916869953 5.620835610797735 -0.03506290683021541 0.38019442377598395 -0.537684519707074 1.7723580825532312
Ni 8.159545932818036 8.799904665655387 11.211831515234847 0.19305256641673202 0.08422136914392592 1.0816823832266853
Ni 0.3806290122926616 5.374970997443464 5.482064360671148 -0.9018578854644533 -1.6651248258951645 -0.056379921451625487
Ni 7.517348109001329 6.169176063791662 2.6242835894662604 1.1680128282938143 1.2085041035396413 -0.8921725398558893
P 8.6182807748276 1.803092139098681 3.4671307913363196 -0.5955991326356711 0.008340144434579184 0.4918294090461723
P 1.944738562152402 3.0965830931102083 1.5203683186655448 -0.08658755538325733 2.909862200735227 -0.42808584814062406
P 4.816633901403323 0.9928359965296505 8.357595091150078 -0.031439449456203916 0.6878248601413122 -0.5462172397684336
P 8.87483396644804 1.7273707545673918 12.328005875162818 -1.1469691202496375 -0.7499596817988439 -0.49810212942876153
P 6.423143602748055 8.031811049449756 1.3271709008429085 0.2771564361461872 -0.9210557985491428 0.177308673318914
P 1.7720278894869508 3.4044305351153166 5.950099358301575 -0.26089523709231843 -0.7771012752106423 -0.5582204348768967
P 7.078916103051014 4.261565288836398 5.8977043846525286 1.186691378539924 -1.092890336127363 0.6161149932008357
P 2.4299854483792456 8.617415855802655 10.216011092848593 1.912678094462938 0.32994709758465757 -1.2452001734090943
