# total energy = -381165.2356675973 ev
CRYSTAL
PRIMVEC
9.32779458842970 0.00000000000000 0.00000000000000
0.00000000000000 9.32779458842970 0.00000000000000
0.00000000000000 0.00000000000000 13.65217024809841
PRIMCOORD
 96 1
Ni 4.809382850799523 8.614805853860593 1.283922405719448 2.8276802306188333 -0.2532608604755122 -1.0762933510006303
Ni 4.428678246869454 4.288127039636194 3.75625806391287 1.0739112239216988 -0.6168762968468925 1.1254181335517393
Ni 5.579644135621724 2.9343469154928457 5.5830002760758335 -0.16116445945888375 -0.3090167751898936 0.20201980291234883
Ni 3.654415338215088 1.1623457980185676 2.424789091387602 -1.2694880994221815 -0.07606840101948835 -0.16034299199885288
Ni 2.821331357566234 4.509774092083548 0.2308414594668537 -1.7145342295662278 -0.4856929571311313 -0.5743651629575592
Ni 2.3578519054155684 7.1076954440456 13.187286044339787 0.07613653525326243 -0.11987151424736774 0.9780777244601414
Ni 7.655283619027585 1.4015757430617997 3.3535463944647876 -0.01190626451928272 -1.08218683366693 1.1171376387105019
Ni 4.830939383844125 2.1813420504597034 9.769247278836325 0.14973333480380666 -1.1333325033028094 -0.46280602523062875
Ni 3.226549405391247 0.23363420113433694 11.55127857371556 -0.7331881187674598 0.8965084482270818 1.6617178570961446
Ni 4.950083302744472 4.463853359855691 13.013930849477251 1.3877763283428295 -2.1588969604900043 -0.34171657941575984
Ni 2.310326792537054 4.41980751431843 10.066755418235275 0.13757561639535015 -0.6941042653921208 0.24916560736021606
Ni 8.935355511185453 3.2535160592345806 8.748720335320925 -0.07726910619580886 -1.7919030945646943 -1.2161096838010412
Ni 6.136261615660901 5.794556520454105 11.26073270011691 -0.5991714233679617 0.3482744351389357 -1.2629081322118185
Ni 6.446839860686029 1.1256782379154386 1.0889724338549396 0.0438229107222213 0.38969002197124497 -0.05333804930150813
Ni 4.940998030920396 6.623135176368842 13.154070700973916 0.19118954506606428 2.2911815036897445 1.6978932785754373
Ni 2.896000352383214 8.148238901736857 1.9334475171234677 -2.0755770201144252 -1.4407893902047508 1.2358390439091687
Ni 6.4703645583660325 6.486380381489174 8.434242139423471 -1.0851981096894276 -0.39979008651972436 -0.11440123516141588
Ni 7.743543210402757 1.86024205326049 12.162472979260567 -0.1178033188644294 2.0134617388409195 0.25413297866782036
Ni 7.495563794136748 6.890712288838532 6.395646126238305 -0.5294078815205785 1.6655662843079573 -0.49389297644342045
Ni 7.953213374737056 3.08361028277096 5.250446680033926 -0.7915511320873851 -1.1423537329648132 -1.1684848828342262
Ni 8.923621145728893 1.9484550056632601 1.2593921717944394 -0.20007116382641027 0.4219326840550346 0.023619696301468998
Ni 8.43036737359624 5.348361471475939 8.578887315654255 -0.08185389735301386 1.389956880933916 -0.8243913185458576
Ni 1.1255476487927107 7.8405336174117455 3.5110518009459355 -0.908653568230048 -0.6476596007763362 -1.3714876184851348
Ni 7.792849932027061 5.071297992019507 12.679917453599133 -1.3399167856573893 -1.4352874865499152 -0.6917409073662667
P 7.3471399283618855 3.654853744555675 7.2083320859170446 -0.8355619904506966 -0.48418809045083055 0.9878384033913309
Ni 1.0805130570405086 8.303416090715654 11.452983208258741 0.7703428734408863 0.5228009177270222 -0.5122686507371307
P 2.0470404655284264 2.442529623710202 0.9686476161733519 -1.3303484252426636 0.31421914532643946 0.013018780857171128
Ni 4.130841769104788 5.474603841976002 1.820735112517475 0.18726269920783234 1.9637366037016502 -0.8860831391286997
P 0.531561158505465 1.113486810529331 10.90103895325433 -0.20912864604298823 0.22156918579918614 0.33017001222874104
P 0.9995198175657013 0.7439531732691952 4.919054394404849 -0.7220112762150339 0.017640853010214782 0.9042071024229201
P 3.434605861280407 4.953571897880207 7.3700695127540286 0.43855358044116727 -0.04078540944747814 0.5770378246937159
Ni 4.421122733340191 0.5945247040287747 5.927786341799564 0.05575180094932334 0.9589798272884258 0.5163531052191495
Ni 6.6403915961579 5.500712338727123 1.50322724897273 -1.9298504924771667 -1.4626280833463974 1.1389169393691223
Ni 2.953133093576718 6.91822928255622 6.283943921774559 0.9801592895795185 -0.5219956482169075 0.8700011459651726
Ni 6.883651148416739 9.185872087550177 12.720532536326441 -2.6336385608159545 -1.2933944737261338 -0.30999148039833707
Ni 0.3127749406253027 8.175578667359414 6.847245699338515 -0.2184265264051464 1.1792632043966529 1.2578921670544658
Ni 8.535230439146831 8.623340785810317 4.7561836405384765 1.1773323059225274 0.3494761687565207 0.049142523162921815
Ni 5.991270378254889 7.895744832942252 10.157309647052667 0.2291158877981925 0.9920627258853237 -0.47718491966012017
Ni 7.434877163246147 1.2336288034390994 9.828634547955781 0.6281806661161181 -0.2869677658096541 -0.21099321005555274
Ni 5.114625597381764 7.549207940194519 5.739195127432461 0.0701962585094275 -0.2750087936755651 -2.722087337777667
Ni 2.1895131984246845 4.550331342485076 5.372360953895003 0.7586510389252548 0.9684692548360997 -0.14784923040721634
Ni 2.8807120972295563 8.935085005145515 4.593696259025255 -0.4527720380333944 -0.4141003324948094 -0.3377205708824893
Ni 4.8316016572522456 3.226362849501635 1.4594444472398207 -1.5289838850638118 -0.4004493173702781 0.07140339144365122
Ni 0.9945387753130758 6.635140047865338 5.388320810251262 -1.5547543091596967 -0.7621492818865003 -0.9604936928297911
Ni 1.2939703059339203 6.531592201336507 9.520873296863787 0.15665782983778181 0.5375122557952678 -0.3601948407256055
Ni 1.1449028223398978 5.4036099981843675 11.906002471678892 0.13786949348668515 -0.38957020856392904 -0.05383581487353308
Ni 1.2427420586466182 9.015341348856358 9.025886420516645 -1.3347187863962173 1.1476779733912041 1.8432647368661224
Ni 6.782491217274935 3.347017871107835 2.6873207998227517 0.2557088077953725 0.19920470206105692 1.12046901707658
Ni 8.69791650268249 4.676620351957541 2.0372584074566507 0.995488463737421 -1.2489439567222425 -0.5208340238086384
Ni 6.619553303288303 -0.07328568289551066 5.729133235526268 1.0873187555768564 1.0904786413620768 1.0796625245831792
Ni 6.622678114439294 5.147132961146558 4.535851807112883 0.9295592080344637 0.3234974853045719 -1.6085590136849781
Ni 9.071615932957648 0.3107592042380511 13.103379734648696 1.41334312106834 -0.8107698711076812 0.49612469398741654
Ni 5.251473670206237 4.2433069871570455 8.620062066050394 0.4795148533448773 0.5212464287557088 -0.6103945457772907
Ni 2.037376870446554 1.0343404743616769 7.0878384351553585 -0.1395741348826177 -0.628214347567531 -0.34020862741166574
Ni 2.094173811038757 0.1453951309070212 0.19736493785552853 -2.347934749320389 -1.165928949181592 0.15639249199153712
Ni 0.7773858542464617 2.944980601200698 6.129018583246737 -1.1044543868158785 -0.20665575902246347 -0.3693348553536607
P 4.931213174510274 2.249229738689307 3.638098227330223 0.8970396381402036 -0.9372558053477729 0.3226521065851411
Ni 1.793566978313361 3.760052610707567 7.978560723458563 0.04528483997972846 -0.00975347984233804 -0.44039423319433185
P 2.6793996367498494 8.30597190640333 7.827348779913457 1.221905978767844 -0.18695905192448448 -0.02964867610436829
Ni 3.8097697552890164 6.496118598926892 9.140332862116576 0.19526885734176047 -0.10228568284480448 -0.9099427193551167
P 4.1527807417230935 3.6542940768868406 11.060101168634285 -0.23196261321836822 0.7165435682322433 0.5569785920499957
P 6.735842917077595 3.26328226005574 0.487357673241482 0.9416518775329396 0.308523637603559 -1.3466713307724034
P 0.3742684257384742 8.057442150262968 1.0144219020278633 0.6429945912004991 1.0108618608696978 1.0482331024293043
Ni 3.6899542351860677 1.4891637332343717 13.690668868498891 2.0505144207188426 0.8537977967324327 0.017269585713725097
Ni 5.043846292863183 8.378150380093999 7.760248357538014 0.8531249390351243 0.13192947385316633 0.3482104146702197
Ni 8.811995429179886 1.5025304627250313 7.242748849212011 -1.3797184910353593 -1.9318001600043697 0.3257492574532261
Ni 5.279354447908666 2.0549784186313933 12.241955116029521 1.0222922141938264 0.15738133826736767 -0.6676748675559985
Ni 7.280949898727746 7.098321010592626 0.3383312319431741 -0.1266358295543948 2.7925620467594614 -0.15605927702183445
Ni 3.8601025343061828 2.570581586339496 7.251868633875667 -0.38340521740379774 0.7187598591572718 0.7375659361201814
Ni 5.211961132786533 5.352913435182458 6.131803862678637 -1.242006349062145 -0.9039762173590368 1.788732924366829
Ni 8.401152721283088 7.452478711430986 11.990646609913394 -1.027249558199102 -0.734729752222967 -0.6783377465864834
Ni 5.272573141321291 9.174576128434204 3.738196655460138 0.3791726673796889 -0.26277779882701197 -0.5650857945381622
Ni 3.4807784439592386 5.789109088477451 11.518294559652809 0.42848694023378464 0.1704505127465 -0.21607293857130533
Ni 2.3734852889650075 3.77314883415829 2.6964806940026733 -0.05124182889411175 -0.6397298044062982 -0.05663420355427665
Ni 7.5796445335846245 8.584984894906205 2.642760060030162 -0.4914190609816311 -0.7006988878905028 -1.8150003427037902
Ni 9.058808871135824 3.3789748949982754 10.893489969181203 2.4331220819220096 0.2611934850590276 2.2295467615970828
Ni 8.27431337193627 6.426813085936242 3.427417862853678 -0.8654698337537223 1.9417793827042689 0.39298489067243286
Ni 3.9629134850710486 9.129588175654405 9.572068896870405 -0.6297600947880961 0.2388025189583371 -0.7027575701917446
Ni 2.5672795470933734 2.3130411807309006 4.991724442864642 2.180678832251786 -1.239335487098201 -1.4172026040237464
Ni 0.31721590357750307 2.6663220688880878 3.5668478691903736 -0.10026813819414344 1.6531522269143204 0.6671143670668381
Ni 1.5889151674096094 5.887610598192292 2.0911441433914675 -0.27340931039892913 0.6543958910589053 -0.3292179327281169
Ni 2.1314849889610454 2.577791971472978 12.08925632204421 -0.4256114184582025 0.2004077212302226 0.0021273307556479494
Ni 0.02251449753775683 6.180466033704333 0.12625076551509506 1.7530472980397616 0.47540083117650384 1.6374859811319733
Ni 8.320831083010884 7.933186599987269 9.534006831492432 0.6395071468725309 -0.35808756457461555 -0.36492747031458445
Ni 6.085621019425877 1.6080744572727044 7.65781611522906 0.6643787133032301 0.21006144226990273 0.053580504329617404
Ni 0.19918479055868815 3.8454765525606462 13.600987721244879 1.4637922788578273 -1.2116135957029006 -0.2833108857833573
Ni 6.918518444185118 3.641281803586443 10.506341724823955 -1.6847791097909823 -0.03142016618249427 -0.2862378296221651
Ni 3.2440856590147225 6.19297460610278 3.9337631945398126 -0.5734030561546061 1.9948749769776677 0.16165579727300547
P 7.278020971260847 8.934142897902978 7.917180104658606 0.14626208842575453 0.39074288871579155 -0.2991198277911558
Ni 1.0903911913954345 0.7072538986648325 2.769015489442498 0.6612260266068613 -0.47524270833208476 -1.453486268946129
P 4.885012608448001 8.283902344662298 11.83752340127922 -0.16616782621074608 0.5169799401698709 0.8137783189167018
Ni 2.277455644787518 1.9937601034553987 9.660057049426195 -0.2572280726533764 -0.5988824313726331 -0.1789914603379756
P 0.2684408662385917 4.996171935272979 4.013505576774775 1.8360368516591155 -1.6688716945321065 0.4599338458891563
P 8.870620617490282 5.804238771124939 10.555529983458356 -0.9324082474474844 -0.055670811199742834 0.9104587397595868
P 5.2824885868541385 6.804765990494542 3.2077548322923417 0.6097947074097627 0.38693431360297875 0.1124212286169096
Ni 8.666351246160234 5.064861813827911 6.133661026559719 1.176641964723722 -0.2820111931353272 -0.10630920218190079
