# total energy = -340861.0228408764 ev
CRYSTAL
PRIMVEC
9.30958203058674 0.00000000000000 0.00000000000000
0.00000000000000 9.30958203058674 0.00000000000000
0.00000000000000 0.00000000000000 13.62551432873656
PRIMCOORD
 96 1
Ni 5.269409483978944 8.194275271155256 12.12620320639617 0.4427840735827471 1.562509527625083 -0.5582952539788901
Ni 3.0272991155961924 7.016361816190054 2.11120554597882 -0.09710799529860695 -1.474492695994467 0.8200397264453813
Ni 0.5904751202723205 2.368506560326467 10.48086775228208 -0.9895690129291926 -1.3356664950214674 -0.34169729614205024
Ni 1.7543255209876754 0.9763610092421816 4.039814816672551 1.1297075049557124 -1.7664399172965837 0.7568412394100256
Ni 1.583131621477254 0.659258034359155 13.157028061976153 2.629937457815284 0.8946274291542851 0.25461120385581953
Ni 4.014906099638993 4.822437843145056 6.508036307536629 -0.5654804588734197 -0.22810595847643944 0.4780022733550929
Ni 2.0873478807291947 8.217214080682346 11.799476916818277 -0.5041169681642738 0.13702925697357693 -0.24416918258688916
Ni 7.3583213744486216 7.4440067652308235 3.747997596885519 -0.44041351646804155 -0.3292670407984975 0.7900573211506781
Ni 1.136625459732796 6.763001547813518 0.2859912835037305 2.4725826019104775 -2.4429439531084376 -0.7158246877883477
Ni 5.165123548783134 7.697646321061018 3.0629473661810693 -0.03844004914375315 -1.4662852204830101 -0.41281041003879226
Ni 7.542278710591203 7.575867681684444 9.743250968008345 -0.1537231726894901 -0.4377614235571751 0.3961026103658081
Ni 0.5883162282555461 1.3673075868723215 1.7129583943100661 -1.104681158114704 1.108294072276943 -0.008803200113926775
Ni 6.232420552936285 8.423439936463241 8.017674366542021 -0.6487224948232118 0.3164809447774227 -0.23903777489759476
Ni 5.677820837044482 3.7998361411589374 7.922064961573179 -1.0161282514749599 0.7698911306154482 0.41275333154861177
Ni 8.831208928385367 9.128268373677555 3.3364526385899405 0.16041472577705276 0.4470081389664238 -1.152134980721293
Ni 5.464128696669138 2.795881531495368 0.9836438950753973 -0.2071589239111271 0.747014740237907 2.177237153560089
Ni 4.113178044999373 2.217393428734039 2.913652395911954 0.09052674253666344 1.1419618968430334 -2.027727247620998
Ni 6.216529096823157 1.0738137114051647 13.201705675937784 0.24733112525463857 -0.5764215312659556 3.367130841087395
Ni 6.11526877570864 3.1238953362346247 4.202135753780265 0.3174168263281308 0.4699238672223326 0.6344500440645976
Ni 3.1519823444908073 4.736724523617488 13.413800292078207 -0.10037046809996263 2.066777676655241 -0.4067099535680092
Ni 8.924658510379254 5.493491117630358 9.591176156617154 1.3011383793376108 0.9622978359180653 0.9063907403378002
Ni 2.2354260886585418 2.958482687014919 12.000589950280874 0.1418269354725364 -0.16001774744895023 -0.6807800374793889
Ni 4.478141579857551 3.0540734728201833 12.699592451211887 0.6768837877487762 -1.0247985255554481 -2.130365171598899
Ni 7.866410419724617 9.303167486739836 11.46689210742082 3.8323434188769876 -2.370661244383627 0.942772364290628
P 4.661968581855092 5.991302384611747 1.3547219632523237 1.1408825477359255 -0.6375317683137149 -2.145407153533686
P 0.0798231471299259 3.6139889599132715 6.828071800683062 0.3102779012905043 0.5118091946022089 -0.4873330638377156
P 3.621920723597152 3.6142310090397745 9.603534626441512 0.6309487157795585 1.028599644469093 2.4326119750548107
P 0.41130849491814864 9.150676537042695 9.774317042436877 0.02154018806462097 0.11268219558778014 0.38324195235305614
P 6.35941255811447 5.663335127781433 9.308311030678034 0.5715338641563511 -0.6899336789541989 0.5082363896492861
P 9.168429909513542 2.021603614138157 3.837912330674279 -1.6623444349365497 0.07140107745080607 -1.1993910854947796
P 4.836793218263065 0.11525634637548657 9.814607981459725 -0.4193163294781101 -0.8201137742164263 0.18524669721906806
P 9.143750208191983 1.4174210656403132 12.714144258505636 -2.347319741444209 1.4679656935092267 -0.7268986862143223
Ni 3.768109086423415 8.9246212720521 0.45024582074893543 0.01433415723448499 -0.6133356306834857 -1.0982274320695602
Ni 1.5621478241257671 3.1578194522722547 3.249453665817368 0.10151435189641873 -0.9247792701473169 1.1182169878176096
Ni 2.622071639502352 4.490998112307597 2.0297932532375813 1.3117007282344892 1.240906945350379 -1.8513909655176828
Ni 4.015287792492326 9.361249967518862 7.7110186043421525 0.3483942485462516 -0.16455677296988433 0.43534150126177285
Ni 5.947351848987803 5.264186808595544 12.979923508988154 0.3771216983879312 -0.8022834309032247 1.0176362034790538
Ni 6.913881939861231 4.92445224038445 1.851871318968544 -1.8079853448385377 0.5131137723462453 0.3344634973977724
Ni 4.99810965149579 6.09681718460365 11.042171298019847 0.16442076161265232 -0.312338640474275 -0.9898724031022241
Ni 6.292551141708801 1.153606136915188 11.188931269167929 -4.023289480473677 3.40833148369542 -5.070786733178221
Ni 7.9509693511104 3.9180771394558462 8.377279306122686 0.20282995751847002 0.4258559303688408 1.5967864465300823
Ni 0.21003719856514352 7.612026097351336 5.258889656557835 -1.5672154177411846 -0.009054396892784406 -0.4790944779780072
Ni 4.966131238051976 6.089928094080092 4.858286249738388 0.8892664219526879 1.7283798772000685 1.4468798193732049
Ni 5.482794408155265 0.33401196828564667 1.8556044612657696 -0.2824559939822297 1.28199034565425 -0.03044340409152176
Ni 8.049073723998584 0.5217489946343965 7.7131989083970405 0.9215409657156773 0.13274965576161654 0.4797750489847996
Ni 8.935560030653697 3.90700804670921 2.1552836228732675 -0.49891151270393425 -0.39678035315912313 0.4159355859313352
Ni 6.819920330868971 0.79359529956854 5.060256695683716 0.6952676895726027 -1.0610701062929726 -1.305929630078667
Ni 7.1991275258636955 1.8770630472884746 2.4394437116391816 1.6208681700696344 -0.22521963806757989 -0.07964917639221121
Ni 3.9891557964117474 1.446597294965761 4.873628440525987 -0.9554209062925738 0.7587358853295771 3.235451792682138
Ni 6.128628025575269 1.4929310835275844 8.51815375966402 -1.6956165667261185 0.3203843935968869 1.111521835185621
Ni 4.764513625256435 8.751733028656156 5.371490910207214 0.505555243272697 -2.6630481243263233 0.41920114405648445
Ni 2.576277806684267 0.7058869366636765 10.055315597227384 0.5748660138533778 0.31341824669169893 0.7039371923221425
Ni 8.36413790046991 5.425242573538188 0.19972125098520455 0.9359039193055689 -0.4620614337551204 -2.672183768079005
Ni 8.760009246866215 4.055886878672376 4.692572901026911 0.44274062193932145 -0.6045709971169783 -0.5458194901093826
Ni 2.5741459124546795 5.640247364945724 10.805086971484307 -1.285847000396179 -1.506073813234858 0.9883379687355689
Ni 1.1575627091753398 1.5553518294200948 8.250888699928044 -0.4247033048216363 -0.35492356502433714 -0.9768574788997951
P 3.7459243530211994 9.226726510673705 3.172905629560668 -1.3396668744301121 0.7847914447660483 0.08048812735373881
P 0.9928762073351441 5.017231532489558 12.505429020554473 1.0618180402025905 0.9653998718821566 0.08199042293087815
P 3.9489663318303947 3.7274448331708445 4.693526202202062 0.08020787710915865 -1.4688848628893865 -0.25986473894527506
P 3.564238554835035 1.0314271855217043 12.326975509165306 0.435301906273089 0.5341011732311899 -0.2232612287896284
P 3.631081352077127 6.99787298675791 6.695509872720761 1.3499713416799137 0.15054220385834718 0.1818052756376869
P 1.5909702893432485 6.290270294170596 8.455094376460812 -0.8462721777793489 -0.01462057812665224 1.7258668809702276
P 7.397589190432904 8.782706007266802 1.5414814835132715 2.7865999156387553 2.2192590065178295 2.1575093361138586
P 7.2727570082296715 3.381938324250823 0.11833874890568945 0.6631538397571934 0.5598320023383907 -0.35414606342836424
Ni 8.71631937953235 3.8666230809102973 11.862577262181354 -1.4530208992739364 -1.0262293444647035 0.09549694205774521
Ni 0.690192843684468 8.577178370120052 7.615327275053571 1.0659431181145576 -1.1392954057544638 0.17618870078185786
Ni 9.22650308071078 7.32242362707181 11.39915931415974 1.2004881752137002 -0.859900824306377 0.4746544399287826
Ni 9.149903841754243 0.7701258438794992 5.569210601107872 0.6448810095899346 0.2862823097068553 1.114676578764519
Ni 8.821508344161654 6.5710845192416905 2.0705468784753225 -0.8770189720439024 0.7803614340191528 0.33831218171990124
Ni 0.9833897434925688 3.3458357660746625 0.41305217958715196 0.14292556785335386 0.3113233118358832 -0.7201130307510566
Ni 2.4629708867353117 7.543209668770062 4.986215729802685 1.1143631612891582 1.0078837520779802 -0.5239733407685686
Ni 3.2820185829138633 2.8766980110021367 7.767101386952988 2.858741985020644 -2.807893277799893 -0.5030304199683143
Ni 6.34334421994736 7.419215348927803 0.5975196808117482 -1.009698693799532 -1.9752065520144628 -0.8972417268486806
Ni 6.0756471956163915 3.619835377276507 10.587610486111899 -0.04459141345712966 0.5221830816373652 -0.42134621542394535
Ni 1.863359342895667 8.800934168408865 1.8736576022702076 -0.28924370632802443 1.247938912496496 1.135804876102702
Ni 4.844427075329711 4.861947708255841 3.0643642845292933 -0.14953587408101987 -1.562709302340715 -0.7862186641308782
Ni 2.4189644936206367 5.151717751007562 4.236444355545764 -0.4441740119517382 1.1859331602176608 0.7195972674569027
Ni 8.476755911366508 6.8328234112279596 7.577966061419592 -0.39045106850698563 0.5140349986089341 -0.03920263834139055
Ni 2.9404407175086273 2.0049022244094226 0.9683948001056834 0.40259387451710665 0.46669559009302203 -0.4166979180186566
Ni 7.414560558033507 2.668619548445313 6.551951466749776 -0.3233658448227141 -1.2059209161934972 -0.9437833220536457
Ni 2.1182463826855322 3.432703473744016 6.017476273810373 -1.7233477140927997 -0.6527529561388435 -1.7623842591699712
Ni 1.5093438762208722 3.8230914764668404 8.65063469426476 -1.6606387650993528 2.369582152386835 0.6568250693256882
Ni 5.879894619347665 6.30214001095105 7.348103177477463 -1.3373089157208968 0.41601760412218025 -0.3928043992305106
Ni 3.068419538356404 7.589813435203755 9.70561698362796 -0.004484775244230985 2.4222856534281383 -0.5361565130983218
Ni 1.223735216528653 5.78992682094271 6.413025508676792 0.14629062767084483 -0.7729905954763784 -0.004836502156694897
Ni 3.8468867675184817 5.746115929045595 8.745399720165377 0.7153474910416132 -1.486853274442349 -1.011762004086464
Ni 0.14264234312298818 8.57904959605956 0.3978775612717467 -4.21614947126363 1.3428311310907066 0.28892360398444433
Ni 7.45957238598135 5.104657815066227 6.397655389143828 0.3917651593327189 -0.7002502303888586 -1.8617897922535032
P 6.947182313919026 5.32319093797164 4.013504076621631 0.14329066450225644 -0.9555623169664444 0.5762261274256979
P 3.5252965742133537 7.002239180616759 12.633617306992493 0.0031660564328074505 -1.4665140486643649 0.028144580755016045
P 7.884917868320339 2.139165012964499 9.542478665239209 0.028618435067641036 -0.4708926588935052 1.2155211582874228
P 2.2308271552549774 0.45655585528524323 6.677959449132907 -1.0972725243554584 1.0991764262463908 -1.9838698841164155
P 1.1295222488281003 6.699389175452068 3.3118176232609673 0.7665998614586862 0.5130860044321034 0.6354450609880153
P 5.465255156065558 1.367065537745818 6.5050386222007015 -0.45869483127573263 0.627314718571397 0.40301039322923493
P 7.1554469681116215 7.069873292310882 11.95016180764843 -0.6636032685897861 -0.4847164521504748 0.6187902260401537
P 7.334963633741044 7.89601488981234 5.89830804116732 -0.061591033338919736 0.6447334282684767 0.7656338980009911
