# total energy = -381170.4274113361 ev
CRYSTAL
PRIMVEC
9.18091100879574 0.00000000000000 0.00000000000000

0.00000000000000 9.18091100879574 0.00000000000000

0.00000000000000 0.00000000000000 13.43719128207682

PRIMCOORD
 96 1
Ni 3.138145469671075 4.259042864707356 0.5115722828899596 0.644530054008419 0.4833267708917999 1.2165521706550984
Ni 5.600144404390581 7.618944052944296 8.818962536934814 -0.3760140671460492 -0.015222473376709268 -0.4536223018488316
Ni 8.152171350050589 2.186231918135799 3.8240494765814 0.16182574719196646 -0.5574437046118722 -0.24091442309501734
Ni 0.7386400764232083 2.9942530552849367 0.09345157256396763 1.8784793370940422 0.2686509697783373 -1.4757245115190392
Ni 4.746062637944228 5.342803475707913 6.724051301974925 1.0349189018189016 -0.6056405760320731 -0.05842831934022196
Ni 7.0508292949391755 3.4538861717162286 10.601835731160206 -0.7197936997384249 0.2184581509740302 -0.3030227623899878
Ni 4.411372536084554 7.4508966623411 5.882291235863392 2.0908632568495347 -0.20590011180336154 -2.608170755562153
Ni 8.136435269003064 4.480706774165593 8.74228999688103 0.25233320645492024 -1.0995147834224162 0.7610390795414571
Ni 4.571221373376525 4.420645255955032 2.591966661751631 -0.4425675866965668 -0.5879107628524778 0.026240164643451587
Ni 3.3957434638551027 8.653908123240308 7.299324416101839 -1.1793681054056333 0.9989303995394343 2.041629202414071
Ni 0.9882148726915824 7.918021401954878 7.5875113687655285 0.5133408007553868 1.2548616077582582 1.3987919627270426
Ni 5.97225589851963 4.170254276719841 4.521615076342696 -0.9957170348084593 -0.9639497696991915 0.024015903298623152
Ni 1.804278487668976 5.994868481728528 10.675041559309939 0.5349257260150142 1.54416393523836 -1.1412445590610345
Ni 3.4653990338128415 5.476440812771949 8.668076104729536 -1.9385400498313647 0.19995932083889434 0.06390862572850284
Ni 5.341821118256288 0.7948648920259743 7.705396099142667 1.296567986358109 0.16854815351746455 0.17318822339263723
Ni 1.8875585291987829 8.121672364496403 2.9395329909562014 1.9585748569950527 -1.3076615251681092 1.3273695451199978
Ni 6.786180361289279 2.9466959375333768 2.2233714564447538 0.569735891715664 0.1910828442848709 -0.272051510819454
Ni 0.06323811333450659 4.714755732242912 11.590625328865544 -2.153583775807207 -0.49077628519130956 -0.12445013475698569
Ni 4.7103672568982695 2.7951558244817845 6.520665667754446 0.22679238187133846 1.0288068753838928 -0.11680007441089561
Ni 9.104644937142398 8.615614544448462 2.1805067021840863 -1.3681873504673083 1.705970913377249 -0.9366271706248386
Ni 1.4567075680090238 3.744911861987791 4.307398721695285 0.5519191752492173 1.378678222696303 0.24448362850351446
Ni 0.30647440881220944 2.4993744224350656 10.133093315070015 0.507448603640668 1.782643009419007 0.9536648428334157
Ni 7.022634717986465 0.6888887209993275 0.35750007464997374 0.036947523758626685 -0.5301113353455064 -0.00986506571953785
Ni 3.369210631750468 5.44371086590239 4.636717990758692 1.4436569415605331 -0.9283914129786075 -0.9204099374350276
P 3.9618751451354477 0.07645311628655199 4.705247062965829 -0.46682748768519605 -0.33101976182354603 -0.1702232272270423
Ni 6.803165046200551 0.4939926749612556 2.7179939418843406 1.6228114098389343 0.6347230952203262 -0.203911620618423
P 3.635851823035903 2.9911958120009077 4.027341465512098 -1.2586598984584259 1.1262041197881443 0.3378542682468762
Ni 2.7942560952270252 1.425786260559747 6.019794654449663 0.4404425699337641 1.1743616533299774 0.3913419557523712
P 2.9926372149906753 2.282861003914789 0.016796476240632956 -0.5450476449403645 -2.4698191802327267 -0.3749272618397737
P 5.907805904964427 8.038392322966596 1.8236951958413263 0.1967341290333773 -0.367177956911658 -1.3124046962800493
P 2.148755440401848 3.493162107959698 9.296963901529338 0.9495881016608808 1.5921877714158064 1.167746462006305
Ni 8.054247755854037 1.9821402718776573 12.117914412890425 0.5231287333800861 -1.6353064569821514 -1.5862636926218874
Ni 5.3377631556991085 7.649617475802976 12.10727190113413 -4.5734376798654015 -1.139174049685251 -1.0438486002083636
Ni 7.259667472061711 4.583826763853917 6.520706063761803 -0.6203393156948284 0.13861691317567093 2.2320854688585365
Ni 1.141012770517685 5.279216487764418 0.39369581533250747 -1.1241570074511285 0.19765689795796282 -0.8531951301514273
Ni 8.105091639658697 7.138929314619479 3.677329341680304 0.5843698395787549 1.1897515055224863 -0.8096951499862636
Ni 4.312099348005863 0.19097120668695383 2.4949501415384487 -0.4094381511324497 -0.5386134592792465 2.07895313567551
Ni 0.15605253069153247 8.157698258329823 10.072263354628605 -1.4097296926854688 -4.053540566048735 -1.848378403943604
Ni 5.240372054326802 6.104350842575507 0.3734895488345522 0.4449162894344014 -0.45726452658710925 1.1916160695350508
Ni 5.481646389174484 2.4512939927700237 12.407203074845656 0.07401794624836285 1.664867972689352 -0.32224304407218046
Ni 2.5513200155312674 5.734773279817005 2.3935671801664555 -0.09595716952361538 -0.07613653525326243 -0.04953924438070823
Ni 0.19942039886200413 6.971221617714509 12.320237815735643 0.3297676345839998 0.4573038644654769 0.411704064348491
Ni 6.874124305486614 5.4871641165429565 12.232157075967942 0.460489204171994 0.4293071221422348 -0.9592533926647866
Ni 4.336538932456569 3.2919257249488023 10.149446353320803 -0.2993779665485489 -1.166792582733468 -0.5175615237049538
Ni 2.375496393511939 8.444408920542847 11.549413138542187 -0.1430240411044311 0.2948916486424212 -0.7210404276613325
Ni 4.593778871120845 0.4292663359920911 13.178525357402455 -1.7944155765739034 -1.180831063104405 -0.4833979904493675
Ni 8.369951734256139 9.079516784384479 4.92442110942518 2.184830392526315 1.7029730070911897 -0.13045571752111726
Ni 1.7478158864774522 8.605185029821866 5.192143811998478 0.027996485212925977 -0.8516642953291979 1.2588774137858707
Ni -0.030595385117195586 2.63519681626066 5.75083528319661 0.6577601795454477 -0.20866327637079546 0.39950572251008615
Ni 8.936533280163863 4.081704392412158 2.377818245843864 0.9981274440221649 -0.3397370870918859 -0.907180069008315
Ni 8.057791587408497 2.0033757184721277 8.482172760783676 -3.035272899633269 0.8793123960637694 -0.2025491930532576
Ni 1.227258246223892 6.363325973373962 4.402628636674017 -0.7617358484981654 -0.6738707119540652 0.11766370796277154
Ni 7.710854150591182 3.667057738718828 13.413568608115392 -1.068569242883495 1.5222367961479655 1.5178700345388374
Ni 6.234536157192711 8.728429575902355 4.721788309887255 -2.1241004216361095 -0.7619536209359264 0.6323260557430593
Ni 2.709259223384566 4.172274077087667 6.518542123094999 -1.4321646246502173 -0.993524912253147 0.8592333659257073
Ni 5.386449525474499 1.7623400873042798 4.1444191938331825 -0.12754368608064487 0.4683758060089224 0.06525999755007471
P 1.6560159597597213 7.492926871813426 0.6617940171560064 -1.2215046295643672 0.5175442973137733 -0.38907835652917505
Ni 2.179346235063662 4.035230622130615 11.683717927818684 0.2979240077108417 -0.7486993270291815 -0.08475821548400242
P 3.9794015037817276 7.031145422263626 10.150238665919638 -0.7642010222092064 0.36038767346270195 1.3871952590283785
Ni 4.3443335256942275 4.621771468036774 12.063265041574564 2.552051801081398 0.5503006658091877 -0.8723835301544202
P 7.521635579768856 6.4500672182613625 10.373605634324381 0.16492752604574176 -0.07731204361860233 0.6831971315613137
P 0.4986694309038511 0.6388821362562395 10.973871941820999 1.0010556734125533 1.609210274115732 2.557397638774344
P 0.37522749524195964 4.850467955139352 6.207417582981407 1.607075487160916 0.36856095330211364 1.4884812969640753
Ni 9.09304944684892 1.6677767064469313 1.5512030101267273 -1.7760057066081478 0.03748488431933544 2.2591661271254124
Ni 7.512096613486255 7.141729492402148 0.8300121726993905 0.4612577069069024 0.030079850104515943 -0.5971633917989974
Ni 0.2975202665452024 0.3505134015594453 13.165276385080588 0.7770922763495779 -1.5104536874701082 -0.49118869013837985
Ni 6.886353278622729 2.3299223524851547 6.023328387002285 0.3562798219419155 -1.3065891180395368 0.1605445664866977
Ni 5.064429080467556 1.8991081149384474 1.347226125253121 -0.9355845882929372 1.8183265788635459 -0.001834482105577486
Ni 6.843065284375894 5.2481850093859865 2.3301702370757518 0.14143175691664675 1.2447476592527078 0.25969427480568175
Ni 4.138855561910896 0.5700675377243782 9.856018018702603 2.134986472420994 -1.9762234233147515 1.20924535258104
Ni 0.26853337699365804 6.385093912792677 2.1664920419045965 0.18182070225665461 -1.1195843004787815 -0.7951882146193402
Ni 3.7401377883911096 7.58699448348958 1.1432547489259726 -0.6370208901155674 0.4631965758008281 -0.20801484415351917
Ni 7.863863209364829 0.03497927000645617 7.455921374801608 0.28516259428011537 -1.2943884622082868 -1.0883777929689902
Ni 7.0430163398799905 0.17819872363367775 9.694986680104378 0.19104916283345807 -0.14187064422627826 0.10151023813136067
Ni 4.877661812818911 6.831295356777921 3.136119242665714 -0.2848818298149029 -0.7935159691232397 1.389951224506961
Ni 8.324855100589023 4.622000990805844 4.575981675607062 0.425246578919616 -0.10182956914399238 -3.036651525148351
Ni 1.9061682353150784 0.28144632798160574 9.18785428565933 -0.7658943507512294 0.21144932375636485 0.10912378881256045
Ni 6.76018002200889 6.242808157790039 4.926799883403834 -3.4816405768022167 0.7927855187151185 1.8679635251643831
Ni 8.777327106625291 7.027133364260261 6.1626046394568625 -0.8567257690125052 -1.2081341217947321 -1.1455544992902982
Ni 5.480471232596839 5.0733621066398085 9.271621833550645 3.318287080111814 0.9001941246087851 0.3294105083548972
Ni 1.696136539793373 1.4354537595930275 3.988279444489403 -0.9493497603978296 -1.374195504334601 -0.5878364579711166
Ni 3.254063648962811 1.898575622114202 8.29661920953788 0.17316688323639853 1.4734555129792044 -0.609287428756041
Ni 1.9735744821359187 2.788545568732533 2.3053781056517533 1.0843853839801454 1.1927969772170297 -2.394910603849295
Ni 0.860055785079739 2.6529618785867735 7.819114532215625 1.7188863358873365 1.0556401935266528 0.20016860863622302
Ni 1.1594939438833005 5.6022835565983256 8.518063695228882 -1.40265401678561 -0.5394385262837033 -1.4525336752248725
Ni 2.512732647595012 6.538800720784303 6.436213223920223 -1.5606027975206735 -0.6325654254473752 1.450499161293347
Ni 7.873493984755058 6.642857163370438 8.29739775077057 -0.10562143208625682 1.5927665267374118 0.014770473440955209
Ni 2.6788887705810605 1.8313897171516702 11.175214823396745 -0.6920137014116792 -0.7743077716259053 0.9152227368071336
P 6.023512923308617 0.7295197596713938 11.438179978012736 -0.21165784022274517 -0.8708676077305261 0.06169259191379052
Ni 3.013799214299043 6.438379918860256 12.594316462830061 -0.03979270651690566 0.1279694607641538 0.5448524982104229
P 5.398283719447812 3.9918508187761508 0.59084302068963 1.4470708523380886 0.13184437033852778 0.13580104099343063
Ni 2.264067679583236 0.47961536870663346 1.4489184833178224 -0.43993889082446813 1.6890507405831425 -2.23757554543883
P 6.408477692505656 7.757107579014416 6.673419497208887 0.7150171042853879 -0.4672794876209501 0.5139840907663406
P 0.7178407230899732 0.8265619864347118 6.703357529115463 -0.3085467775320106 -1.575887491593886 -0.2714403595980164
P 5.951461135641776 3.0797181535763016 8.465497472565112 0.40594093661246866 -0.4196994238491417 -0.49644479633099664
Ni 7.276560347865354 8.16351895575347 11.916611927322036 4.2592511875491095 0.6058105259510341 -0.6151693414581147
