# total energy = -381165.12847352074 ev
CRYSTAL
PRIMVEC
9.30010570121177 0.00000000000000 0.00000000000000
0.00000000000000 9.30010570121177 0.00000000000000
0.00000000000000 0.00000000000000 13.61164476282266
PRIMCOORD
 96 1
Ni 1.0931437372861625 3.1496203349300944 12.17092013512584 -0.5067785741568369 -0.15655087194627232 -1.5334082393837527
Ni 0.40912281481102797 6.576653526135948 3.546881794788087 0.6109894990488123 0.5294863001669977 0.19447824311966508
Ni 3.2125820512795156 1.5472772042076675 7.263718373243456 -0.02682406217137961 -0.4528322018473685 0.8305717363249567
Ni 5.9094174346308925 7.343065946023607 6.980255798136781 0.6134271619560274 -0.612522647863887 -1.399986754366092
Ni 1.646100128569403 0.2225254917925955 8.60814073946217 0.26902455106767215 -2.0696411142459645 -0.17671834803308273
Ni 2.5394775930068847 0.7570946438742937 5.268741515315248 0.8405830978143716 -0.5976593575988094 -1.7962986525292288
Ni 7.116217765049444 3.474407930213822 9.049743243812152 0.5978563041009639 -0.4787121549379239 0.31761480127154973
Ni 4.129674785538419 3.7072453793311206 6.111383182504187 -0.48659207190663284 -1.1861982409535894 0.03795693885974753
Ni 3.6273109698742116 0.37596049750544946 1.0127768729089803 -0.3009764213839204 0.7614550840329531 0.08559510956300098
Ni 7.15264627951631 8.36115782940433 8.836679679673013 -0.009796160154815388 -0.15641254659619513 -0.37028230686859454
Ni 5.401213152516546 2.7141056798448586 2.6212487733617276 1.46352514123937 -0.47961795458164497 1.0561772969770455
Ni 5.092152036161456 1.8194913013343381 12.617219192911044 -0.15935157461986105 -1.0897340498865682 0.9060729519870654
Ni 4.430477407932168 8.446793203724193 12.923413086644196 -1.681533092049859 -0.4826276879422462 -2.14115249202239
Ni 2.091770499201695 1.7945112171224404 9.937535064698753 0.9079727401129395 1.2769378708320072 1.2736975095178387
Ni 4.797617685085211 0.5564364908782115 3.096689712709844 -0.2026597504891929 -1.1643217525954723 0.7126007815344114
Ni 0.5794263524462719 3.6220936105134984 3.420497076840953 1.1334764850798413 0.3744778330071809 -0.763346387518395
Ni 4.645700456640928 0.41606162375760153 8.776013229438073 -0.02165434504498206 -0.13992894711887513 0.7672773471416849
Ni 9.016666487480046 1.2951978361646745 13.002319834408844 -1.141533293946047 0.8414750135010217 -1.2381450663345257
Ni 2.3668025283894987 5.13070097475353 0.7159946862578983 -0.33252051473878863 -2.9984786136230555 -2.4874703176555872
Ni 7.407971384487804 5.495739427992989 7.053690363641458 -0.60300288129891 1.0630812231857305 0.7025017454271966
Ni 7.524027404919773 3.306029514481729 6.67086266800419 -1.9049321319689319 -0.27370601570374153 0.13660991004797118
Ni 9.175121690310393 5.282534502245502 8.727119783150952 0.2949788090395888 0.6159278168906941 -1.1555990280104935
Ni 4.592950256473437 6.270800946286108 0.4865062052436172 -0.4328670715793513 -0.6948421719994098 -0.3109019080277484
Ni 6.493733782713282 0.5346398328858719 6.9339487112760665 0.5885306558246638 -0.55182867241794 0.9830492095328038
P 0.9330052153037868 8.026772524922285 10.136360166839227 -0.4063232596525518 -0.9357468249024141 -0.4250740578974937
Ni 5.930491474401615 4.55640084063101 5.13843680276822 -0.38022219169012583 0.404500090400884 -0.39251797833834334
P 5.944274231215476 1.1090934187542951 1.066051599044287 -0.48522578768672564 0.2985009632602343 -0.055810679211716785
Ni 5.324766282739257 2.3916803114374603 7.8630255618847285 0.16112049359482575 1.555672964319224 -0.13796848095839465
P 9.194317108707025 3.3065689206188438 5.418863823337753 0.7856707620472083 1.0623625998521509 -0.09253220300246645
P 0.26440944832896973 7.340080612057852 0.777456295539792 -0.17743851402855895 -0.2279483498526526 -0.08741673615277203
P 0.6632547162068004 8.81122715008585 4.043298192785314 0.7763605403898758 0.1918857998021405 0.5136611602092832
Ni 4.79308853355461 8.904488611171816 5.683324422248689 -1.867368057672229 1.1158209767816072 -0.39251669278676277
Ni 0.2935736501458309 3.21300055604107 7.716536805203098 0.8642308191402988 -0.39995103757762085 0.31132562582872836
Ni 6.673848931980527 5.78373580468317 9.439580429200166 -0.13306770122266762 0.43191936295410127 -1.911120005947199
Ni 7.945294297900531 5.347542241873635 4.729774343194902 1.644685069983574 1.0786163427068522 -0.729941329695388
Ni 0.21132444435223469 7.54388313082908 7.9543051704220895 0.11363967440504301 -0.5633744682740104 1.4008380466227939
Ni 3.0302255765115023 7.905638646716789 7.142656105852714 0.40935613294160467 1.3352468909855455 0.8461251106785234
Ni 8.818862536957766 1.045266792564328 8.055888366188922 -1.2626785326995158 -0.32175170625805877 1.0401130444253313
Ni 9.179604341311931 1.4226464862167376 2.4221920985865273 0.6941523450212368 -0.28256423742531983 2.433187902162939
Ni 5.789762273249555 6.375203934135238 12.00144151687615 -2.056328456297459 -0.15254046523529857 0.6191429813938821
Ni 2.112621336432921 0.7075399600639162 12.310289660808138 1.3199886792748945 1.22606499524154 -0.10713066964193162
Ni 8.826776927004053 5.289295679171061 1.5984835868103136 1.0658495299594868 -0.5533834184995695 0.5395945922455933
Ni 7.204187465928199 6.2374972673721825 0.2981223318986377 -0.13538040851624425 0.5781243728896752 -0.48077006590821714
Ni 8.210905319900451 7.8285500696384505 6.017776687492583 -0.9696959281543494 -0.12864951755031392 -1.1207657223813923
Ni 5.705187110992298 2.1634929152263234 5.4422080189372615 -0.1939138859757628 -0.9220191909036765 -1.4919252896486177
Ni 0.47341351628103 5.495878929580174 6.475208901945718 -0.6641660830717916 -1.5406762338000757 -0.2101987391787154
Ni 7.584561793652178 7.073520979265073 10.903921149794709 2.3659401847588737 1.6355699950561833 1.1399785478644173
Ni 1.9460006406993566 2.9326116659053683 5.907263530124759 -0.8741331658556751 0.9157703817804873 -0.13052179487236232
Ni 6.340988844851703 4.266358440662119 11.367030148835687 1.603158668605013 -0.9143765867567543 0.36097337076284286
Ni 3.2403614673409225 3.0390606770332083 1.943198518818104 -1.4021140851217402 0.30601372669751165 -0.7831186850493158
Ni 8.323204097584243 1.3536397010893073 5.803964464835552 0.9272999796866416 -0.930137963356069 -1.196574956202223
Ni 0.8585374080433605 9.165923885662005 6.5311118379835875 -0.12170728190452586 0.8498614377925042 -1.854449035617716
Ni 7.60023247194594 3.1255795614052415 3.9843057615965924 -0.8594992179925842 -0.49376673527820125 -1.0681840916299346
Ni 5.798457872184076 4.120560681842344 0.795906775460858 0.29402647242864843 0.8567108566141698 -0.47179640165469705
Ni 7.191576522446692 0.7511128158158081 3.822272808060246 -0.2723399885941503 -1.2589699734996769 -0.5042108134296607
Ni 4.33216598939011 4.791116911122398 3.059027074201683 1.4055966443537018 -0.29981145454154173 -0.8407579328293391
P 3.289921731214787 2.728390642372586 4.139342245530329 0.38755034992042287 -0.20658711056805715 -0.05784596447419069
Ni 8.59023803577345 9.379528715959422 10.57858949832096 -0.015749806635089004 -0.2235085689137441 -0.42811361605476594
P 6.269675633482817 8.022754879211362 4.533398888925395 0.772521883370076 -0.5402808196793405 -0.6810471750978465
Ni 2.1515794796807386 6.151964194216255 9.050777415578482 0.037559189200696605 0.7034216861383047 0.5955986184150388
P 4.814348575441579 4.9768121238770355 7.688564876951376 1.5173038776227223 0.5896832813718683 0.14100263979902813
P 8.121373201245227 3.76351101949567 12.702250990363687 0.2754268550495902 -0.6298480265162121 0.5846557462502899
P 1.0869126663919066 3.646515688376657 9.728296634080223 -1.447369871635746 1.122156946301964 0.049498878061076036
Ni 3.0306812816963062 8.113886616066306 3.6089646511382436 -0.6501060054342997 1.1879982702768057 1.0210061483925514
Ni 2.1951039748824064 1.096733578129719 2.8316032166777374 -0.1651255009891608 -0.39475535230929437 0.8509490144297279
Ni 4.77334440891505 2.778546113018439 10.44004954207712 -0.04161227622414769 -2.0638854427091102 -1.8085936678464984
Ni 4.388524630612783 6.402267242049095 4.809484620101735 0.9414824418346107 1.7903434633870585 1.7504178308367144
Ni 4.849196071920351 6.961650006448649 2.645314657172274 1.3002356650176832 1.2037732737228752 0.19109287158719993
Ni 2.650083751432833 5.070482789618745 4.484588213580002 -2.479772177680381 -0.9969894737629797 -0.32320695064734656
Ni 2.4455093238791816 7.343977356393214 13.59280680269771 -0.7652235499364499 0.3853273741271751 -0.11148046197019511
Ni 0.5687024004340832 8.378958231929115 12.371950292354414 -1.2963808100479672 -1.2089180511486082 -0.09719052771008424
Ni 2.977800880047442 5.5632023955555745 6.744801299243895 -0.5232279779621117 0.937243978273231 0.7584538353127841
Ni 8.444310075472302 4.860532900905571 10.661184668050774 0.4962540204764292 -1.5158640598524022 2.4574953685600516
Ni 1.6073093872262072 7.1238717521329855 5.619526626386741 0.12308333631644608 1.0855151267092145 -2.047873897772202
Ni 3.1551352976768015 8.22623189427916 10.240693403894763 -2.092542187213854 -0.34823921102562605 -0.3576738740759647
Ni 7.623306034466312 2.5073922279543734 1.3194376319539112 -0.7430009910928236 1.0574253104515337 -0.8379397466542537
Ni 0.7333449636613666 3.1094066773976134 0.770271963799773 0.05865586196999576 0.12233463107587962 1.5314320894939883
Ni 4.327469435954888 3.9856068463997363 12.250480680329096 0.06588091896352524 2.3329022804672985 2.4436880303633144
Ni 5.887441284596375 8.235755202630976 1.0126727117238823 -0.355347282825317 -0.49876650248563786 1.3171794919608735
Ni 5.505560339730801 8.287417290418427 10.716162243560316 0.2636838555810491 0.9399163828990716 -0.3437950592113434
Ni 2.889440574724569 3.774680446576269 8.448257970389633 0.18791961606554086 -0.6383321527278232 -0.4625337454058486
Ni 4.716734664835445 7.395230239524922 8.795232828109818 -0.40092008635910953 -2.092051877840997 -0.2550287510092124
Ni 7.559925813355336 7.3850838240836785 2.632002485712516 -0.5203740534530844 -0.544103021638908 0.736477588152009
Ni 7.44055895525418 1.8716741950472777 11.405169882772018 -1.3946447733278884 1.349065799146509 -0.3618704286558155
Ni 7.97044178401705 9.26186377722192 1.083253074754758 0.5517245427399078 -0.5362621854382507 -0.24608439733173101
Ni 2.510358961708504 6.369642470859468 2.326148045841514 -0.08261520099907062 0.9337503632976758 1.5658573610513935
Ni 1.0851828467108147 0.3871308545966296 0.8166767017715171 1.47499457533155 -1.8986085037437495 0.9015069298829376
Ni 6.516212138461666 9.082901841075405 12.626270985898179 2.7530634744442075 0.9259650629253021 -0.7172609060142422
P 3.8277747506588162 0.7037920174215504 10.926040521458736 1.8483722332960164 2.536099905737832 1.0406802297827111
Ni 0.7748903963461722 5.807395273869718 12.104291387054621 0.2420750190620218 0.31289245609521593 0.737497287665775
P 6.8447104759645105 5.095806977745698 2.6934175944653482 -0.45884806902414527 -0.3439128157361303 0.026675966629289543
Ni 4.573643236807056 5.057155737989686 9.802235265319927 -0.4320522889875398 0.12487822343333979 0.31729341337638906
P 3.5222197741949706 6.410860539819679 11.18372227324307 0.3710803772898577 -0.8776532631937917 1.3749557795393934
P 2.984524856549751 2.882856099809445 13.411472409558472 -1.0986130975437531 -0.8915549608765484 0.11258757899144481
P 6.854336085480264 1.2491623123936795 9.279085713165179 0.052273355482419646 -0.05091092791725426 -0.09275820297034347
Ni 2.601109394225144 4.4058972282702005 10.972156026139716 -0.43643164900215803 1.0661382648444993 -0.6262381976777667
