# total energy = -340892.5427596149 ev
CRYSTAL
PRIMVEC
9.07555199356298 0.00000000000000 0.00000000000000

0.00000000000000 9.07555199356298 0.00000000000000

0.00000000000000 0.00000000000000 13.28298771343454

PRIMCOORD
 96 1
Ni 6.415970639605906 2.2924209340816755 11.597748779797309 0.2847422189132451 -0.6781055759710192 -0.5599502730838097
Ni 4.599299222674331 0.32918025813134116 6.044463821544676 -0.1314687321666639 -0.830926291450898 -0.6418779610975526
Ni 2.6080141831493697 1.4330569048006032 4.751816598545883 0.16745929132865997 -0.7917046269461139 0.5679908840000992
Ni 3.2358064247956775 4.262187839554198 4.889574404021195 -0.6600834283619857 0.26273820383832813 -0.24828397608621114
Ni 4.845037947152561 4.492607032071012 2.3130859662357888 0.17936452740667821 0.4177541271973128 0.6487803446443406
Ni 7.4265061403806385 6.2201474517318145 2.560601683817126 -0.7452242239963875 -0.9645442087500808 -0.8394317578187479
Ni 5.058794425995703 4.6610402036775955 11.457413517522799 -0.2496962830527055 0.6639938191599855 0.019617002899979117
Ni 5.64896850414671 7.693263843545266 12.335339773534134 0.8128426944763097 2.0466451675714237 0.18666954570852368
Ni 2.1014531665863503 6.569982758909949 0.4430875126619857 -0.534325373426854 0.26455006023608635 -0.7737601266525512
Ni 2.953947002920271 1.6520136750026853 0.45890438487902085 -0.1770569623194241 -0.29971452395236126 -0.16251840238361687
Ni 0.37422403836291596 0.02983043222984429 4.899788937920824 -0.06423078495461196 0.8078637532044797 0.05514039261756955
Ni 8.580480742251448 2.386162311824248 1.4365283034826184 0.4902774911780201 0.49966227482702985 0.3635537298955094
Ni 6.889242531030019 0.5517336696345541 4.957875194089455 -0.3010458411692751 0.40170067327887593 -2.1343863769431497
Ni 1.1899863926426673 7.313588121029968 2.645466264041061 -1.0046894135103988 0.11882044727503406 -0.0678077036725929
Ni 7.725681715681627 4.065856420761955 3.888129883794892 -1.0879201366062812 -1.4094772103550306 -1.0503599189643202
Ni 7.786996145735729 4.094163067792557 12.571086315139427 -0.7053975789177529 -1.8879355974109355 0.9427510241343893
Ni 7.890366684266845 8.864736109883852 6.916093459502202 1.1628659939855521 -0.3164873725353259 1.2085033322086929
Ni 6.902166117234436 0.7423665492570257 0.45163577519424725 -0.0687412712304558 0.4605128583210778 -0.3269085678686499
Ni 1.8077047714470489 6.64634445436217 9.406932281806174 -0.3758392321310817 0.16815348918220718 -1.4619691096061596
Ni 0.26834320211821683 5.064085472875742 1.2337859146799826 -0.7576930458873596 -0.6334164605937607 -0.11762745540819743
Ni 6.427551044098066 1.7812313859426356 6.868951411622831 -0.4526560812808204 1.6688817218344356 1.018094374062395
Ni 3.2077538932241514 4.2773712382339655 0.22727632882117546 1.1607216939490397 1.0355467652108874 -0.2269070530723318
Ni 5.867244607940553 5.529606842798049 4.697926877672843 -0.04874991571019346 1.0190809063453805 0.26081296179115726
Ni 5.234923665791434 3.048350895966862 9.418369292574997 -0.06493475300017204 -1.0279152168075587 -0.7398760723105967
P 0.02294753350973905 5.674761223242884 12.385164554617175 1.5132230226851293 2.374387544195278 0.3483502826821936
P 4.035308112360223 6.4716400762476844 12.74914501731371 -1.318514151611897 -2.3619930271856675 -0.7922728407447581
P 2.594909085902756 8.686274453195892 1.5060915028493571 1.6733217598836603 -1.085378086910718 -0.5254470971006175
P 6.455966597753986 7.599095914853532 5.808212679242077 -2.224674778216762 0.6499591954437903 -0.5321247662311094
P 4.9150649072321135 1.0515297696548962 12.657558175642015 -0.236276924323006 0.3266581424207406 0.3874235945345715
P 4.097675306459067 6.201506267698196 7.942787980808513 -0.32209597697135495 -0.6534942051802423 1.6605158663682436
P 4.82888346439704 1.1454526584396656 3.9445289948263027 -0.7526835084879102 -1.928161791920834 0.4005904709338327
P 0.10964809792549508 5.581346565376266 3.5440076366699045 1.9809568242346787 0.2034583351310883 0.2695035475866197
Ni 1.327308571616708 0.6740358098668038 2.6904156585306933 -1.0376550698031421 2.185359782667224 0.5564908537802996
Ni 1.7140541492255748 6.449196235880042 4.991933018492065 0.5047782558973565 0.0078040694254510766 -1.0740798882890792
Ni 5.98569871407823 5.75556993922893 9.112687453966464 0.13339114600035737 -0.8929107035734946 -0.17566882372264583
Ni 8.562157202541673 2.425967683378021 10.110731364817207 0.27995251083408557 -1.0280913373741067 0.734949581543257
Ni 2.3505316942410026 5.135891241168823 6.979373654143296 -0.5951928983361878 0.07261412392230075 1.0070196043054722
Ni 0.35410263178018214 -0.04941002835162045 9.53608283366051 0.6503219780998478 0.8175956357802628 -0.6308024200096813
Ni 1.7057137168366288 1.2161149071669066 11.481602586561165 -1.1410748662523895 0.15393863113440587 -0.07126403765230953
Ni 4.1857626152372065 7.0027686123720505 1.8049321902774917 0.25377405266650493 -0.18414832194856673 -1.058001751780294
Ni 5.648841446417172 7.938721225908091 7.93925486837215 0.20598727220052912 -0.04922685534661199 -0.1540273341934702
Ni 5.158507517026552 3.1070969447738785 4.7087658095576295 1.057979640293107 -0.07626483330101058 1.3423909582294944
Ni 0.8840286572499935 7.452462219414792 7.177741626828988 -0.7371288485827627 -0.9947431009309642 0.1683668907445939
Ni 4.774339396216881 4.259465173921245 7.041325187955509 1.0781468592696013 0.8049720334789814 0.14623226362908362
Ni 8.302669016617031 6.97440751202879 9.233018384280456 -0.18622808729573087 0.12352916560461305 0.39632886744400125
Ni 4.876003730951346 0.2899357556979563 10.566589994408165 -0.9647131302277773 1.234744268183093 -0.32353270941788154
Ni 8.303794385078652 7.095021599568609 4.938429008583694 0.1343437397216138 -0.3523771444533996 -0.8940748990849248
Ni 7.3679960559284785 6.150247549381801 7.0745988846558285 -0.011647611541257359 -0.9100177955674262 -0.10045685716618183
Ni 2.2474243467210715 5.13602737445047 2.5927990200372175 0.3307549381979336 -0.48253512822843997 0.43290486679582213
Ni 2.5432238166371977 5.412205500705116 11.155039717658303 -0.5524454800663324 0.11283697599808955 2.957173841336997
Ni 1.0654153643829567 3.260174282210607 3.9617044771941816 0.1510533391668108 -0.40205728528734624 -1.2217028616181023
Ni 3.471680024130508 2.5110600599599127 2.8039453700935684 -0.10738880839932473 0.6341862488802498 -0.666930018970174
Ni 1.1170461803358558 3.3464464805667786 8.321778499139517 -0.5927349237139985 -0.21273744644016912 -0.5493611847140538
Ni 3.5424239528267374 2.2956790572891093 6.934118413547562 0.2398124482800902 0.4821263228257955 0.3220209007590454
Ni 3.9906926981882327 6.971349050967772 5.976733883704126 0.5295333513548494 -0.19936462467768892 -1.0375308855204517
Ni 0.8616991688389347 7.610939510356877 11.509695958117184 -0.20413890613788072 -0.9094727216972337 0.018194411520839632
P 0.17210241732459344 5.41481018416064 7.967229350195532 1.29751363810083 0.5398997821908379 0.4659731101047007
P 8.62843595959986 1.5333962089270319 8.071327748005857 -0.18859555908664294 0.14512720349036295 -0.41331460336872045
P 1.7486592294204075 3.320354268250979 10.540781846873404 0.5328855556565338 -0.6585412806858465 -0.4279387810397985
P 3.9557336714611155 6.004412502528727 3.726980750311669 -0.1900376908498082 0.3472357094617761 0.821068681930528
P 6.950148561239178 4.013617542817697 10.292535547347223 -0.7378495287988712 0.5859466971475715 0.22929946456390835
P 6.439294808528203 7.897772334788478 10.154963790690163 0.2854060777494891 -1.4982139508708068 -0.16666482045182265
P 2.2523160693082773 8.437831214188929 5.756089968364824 1.0853588036370083 -0.08563444744136865 -0.13480859517317428
P 6.950166712343399 4.072899049199194 1.5231871203586693 0.24853748685791388 0.39351376659270937 0.4299678956546853
Ni 5.321195864147605 3.0429963202220542 0.424701351642654 -0.055322683831704716 -0.4682459652992775 -0.4421605810661353
Ni 1.5873322151158313 0.655365584066434 7.285413069504958 -1.5963023078048122 2.485219059727565 -0.33466327211340424
Ni 6.821783952197553 0.7395086578976362 9.157690394213544 0.3356819431859058 0.5094286101851743 0.10904022795981866
Ni 2.806605414416963 1.6720524940612196 9.25274318923599 0.4235897600424834 -0.33252797093795633 0.31415203953392995
Ni 6.0884248884095475 2.2701495292041196 2.7078298279190607 2.1501752643462906 0.015750320855721263 -1.144404444846255
Ni 4.2348613521514595 7.07757838841349 10.103452772025113 -0.5007323679627569 -0.5004737149847316 0.5807070460151871
Ni 8.27545143583961 7.5341603395076016 0.2637800145173876 -0.8164944322962842 -1.46169811533296 -0.30814748521106283
Ni 7.597190048910464 3.823275988417951 8.081316300657951 0.2995826263601873 -0.4664623910362934 0.3602863719981472
Ni 3.234381563114432 8.584619194013536 12.421905112223453 0.4212032620881778 -0.4460802278355156 0.17077112931071234
Ni -0.0495289180842594 4.728870880146565 10.388120169723305 1.114632355790145 1.0514202419080343 -0.4081955369746002
Ni 8.534186350939137 2.5326326473250105 5.76355460997517 0.09200846928851251 -1.3269769376672695 0.7574953280542567
Ni 3.769948044220511 2.743121927408609 11.528504132309623 -0.6429120587890218 -0.6278333100790284 -0.09557356093195152
Ni 1.1967476789645008 3.2774269067714195 12.663509015160438 -1.4118040587159943 0.27662910288780745 -0.18307025839303956
Ni 3.226857930415372 8.38732576669765 8.173925957052425 0.4265455002366977 -0.540269763935747 -0.015485754340424943
Ni 5.8928558159945315 7.828961498691645 3.4724650593880093 -1.2860930549687142 0.39060430625539827 1.338458713054624
Ni 3.253866773494266 8.182853577662879 3.751394893042358 0.35217454152429023 0.6455073303200237 0.1984626816887098
Ni 3.2271301969786674 4.31712215647508 9.32828354722227 1.0360784693446414 0.16304239320788694 -1.7769778407134298
Ni 7.037963603454023 6.040669333207552 11.375231670502535 1.1550873784813978 0.7138459667954222 -0.3819515156764067
Ni 0.9525064205843949 -0.16186700965511205 13.497773697526528 -0.25515087840937345 1.5761420308068534 0.21036560377388286
Ni 4.754318728262566 0.35454733383356446 1.6029512402968717 -0.35657061370945686 0.09602967463276364 0.3523578611796899
Ni 5.908747107738868 5.690706968299879 0.3659634708325365 0.47056998544676376 0.16672935514117093 0.47768782743846766
Ni 7.831357444448644 -0.031987690966354065 11.453455669247695 0.40120059371400585 -0.27380500317545103 -0.024477930536706233
Ni 0.12057597022095752 4.789404812719221 5.6468774969406015 0.030309449616818765 0.5307962772276729 1.5987859934586144
Ni 8.069872029447438 8.63134013627501 2.6406843556343844 0.7796502668847411 1.1582796601664502 0.23780544515239047
P 8.467453816275459 1.6746208753083052 3.652104722739828 -0.4211765226153004 -0.4194166025014003 -0.2803564311407236
P 1.8068970473092727 3.235162060595879 1.4686730015004728 -0.4702653097221514 -0.08770058594177799 1.5138629702619735
P 4.770473211018087 1.0287319827549697 8.233977977808049 0.42325834484499364 0.4288358389327711 0.33580715590986043
P 8.494934588064064 1.7430051604559753 12.491108919726642 0.5069541805027528 0.0890676414926337 0.1695961351660047
P 6.4179944877264 7.918019891545538 1.3667926686257927 -0.14243834380429016 -1.0272004501287213 -0.11223816607182606
P 1.7269958865342114 2.955081446934001 6.111635612930471 -0.7948128335577925 0.8627771174129076 -0.3713907094414249
P 6.848157506628758 4.152373659025093 6.06096136016995 -0.34855237139067075 -1.1188541071809763 -0.4961321501865842
P 2.5002873796055285 8.65048955122678 10.287169173384672 -0.2145513597204563 -0.28876728091223813 -0.4154265075054007
