# total energy = -381173.94512407307 ev
CRYSTAL
PRIMVEC
9.18260882761128 0.00000000000000 0.00000000000000
0.00000000000000 9.18260882761128 0.00000000000000
0.00000000000000 0.00000000000000 13.43967621153554
PRIMCOORD
 96 1
Ni 5.741518036131425 5.212388563918263 0.6051697381911554 1.4280176923613794 -1.0800111661718497 0.36740498532079946
Ni 5.04477840380326 3.0267807257583668 12.75706153261917 0.1495443587214521 1.1290277052798683 0.3920112139052539
Ni 1.9508177113872833 1.7090304366385765 3.195148451107002 -0.007118870432968385 0.50702077207463 0.7310741577482506
Ni 4.504372687870096 5.571456119442121 2.3585016714316507 -0.8181507369527846 -0.9977127250822494 2.254890382568194
Ni 1.1239145980077758 5.386913228529328 13.42868305658276 0.4473804347041778 0.3929054435847491 -0.6799565131368289
Ni 3.9984660335460953 1.6121630954314778 4.881599770739784 -1.3230696321930633 -1.9141539076775165 0.7801570313178305
Ni 5.091444422195002 0.25358417239291586 0.4637603160291538 -0.3111944995675028 -0.1308940906101165 -0.7770673366489134
Ni 2.3015658232545255 6.493619617472538 11.522533227892206 1.236366120057232 0.20399492436084865 -0.17752130355035234
Ni 1.210552512908617 4.204303394480622 3.9844203149841104 -0.3501582824252098 -0.7460906857617409 -0.9804734783858274
Ni 7.043097750991503 7.2510562945801995 6.883815298881118 0.8760735774114977 0.9687682741337573 0.22406238453468505
Ni 4.944935897314988 0.740183473259523 8.774832188116813 0.22276243477633892 0.42460148913644935 -0.3179896681124652
Ni 3.871103248206968 1.291993071176297 11.91552317718678 -0.3164251518388228 -1.8497552296864725 -1.1288001626500945
Ni 1.4077490388752907 5.767495636688339 9.386861335150675 -1.044638957320143 0.3999070717135629 -0.4991678516891145
Ni 7.7336207570994375 5.686110174074014 5.3379038083482175 0.7726746068978564 -0.2729439407267364 -0.80990392356296
Ni 5.925243674852784 6.014608824594702 9.595996170938502 0.5348465360376465 0.5233837868136857 -0.5889122075337987
Ni 4.278912091732273 4.777784867644611 10.897413353621182 1.151137135584398 -0.15055248827099232 -0.3422482835495138
Ni 8.824129023956258 1.693713845005868 5.023428838128172 3.4739552923428167 1.0871426350103084 -0.46158783655281144
Ni 2.097858827583062 4.219050664361994 10.96681642989167 -0.35656135773807623 -0.6152346474784114 0.682919709530211
Ni 6.911005922072733 8.458688737860998 8.86663807530236 0.3792600848871726 -0.29524671798899477 0.9630871645885801
Ni 2.508137792900453 4.182889550543286 1.5840404374372736 -0.5028514711882888 -0.2897548416364881 1.0901860498223226
Ni 6.957433192633268 5.582888467513297 2.7203653313632783 -0.662395107214298 -1.33293675479513 0.22579170852096597
Ni 8.225992245915878 5.94208457956165 8.643727489653987 0.6945015008305394 -0.13628800793217818 -0.25984699833346214
Ni 7.288631530168354 7.322019496101524 11.261857326651606 -0.4155514631190392 0.21933695403455772 -0.1672047521156927
Ni 0.7770066531793814 6.516640417966062 4.64682158135873 0.7675485985252006 -0.8118196525284341 -0.8935012859696418
P 8.175846018753875 0.20613946876709008 10.620045305935774 0.9050293412138996 -0.1942771828524525 0.44516980020610425
Ni 3.2341056693334798 5.331624740387519 4.6552484615393865 0.6013632888129579 1.153024068194466 -0.01081097457257493
P 1.8834265447251453 1.1737669816852179 5.602987361857226 0.2338688291021456 -0.0366184225539821 -0.7927562081390799
Ni 7.551162318405244 2.8183355038983673 6.631996023917344 -0.09074425786410824 1.3936726392226062 1.3635207982295743
P 2.6553901091007592 8.705847838811824 10.614400756249546 -1.1807978958736243 0.3771165561816086 1.900188960856992
P 5.240092494946969 2.4851537228424982 10.586446139998076 1.0030858164687049 0.34764477197473675 -0.5196384608386406
P 8.252291237784029 3.7394521845150375 4.194025300347234 -0.7721403316609412 0.3535801636225652 -0.16336943753000252
Ni 0.04782945493842202 5.338667801408075 2.1292881430394592 0.44840039132826004 -0.7864518631876068 0.31938552001872733
Ni 7.9437096659511965 6.561809671108324 0.5414617159558033 0.33099636478477834 0.6762242997879063 -0.3280917895434737
Ni 3.7851081159286024 3.2012962077605382 3.506828235180167 0.08370534873945584 1.874961553748771 -1.5829945349523125
Ni 3.619178373240928 5.054254856180332 -0.28550567568595187 -0.6402977610946263 0.3992678954676672 -0.2857130674669466
Ni 1.1936289647197191 8.949306348378968 7.157891381278562 -1.1595631548645642 -0.984851038628233 0.1053920896842701
Ni 5.2324433817395075 2.2367733349089685 6.632708594367402 0.5716037981623382 0.6516031588051164 0.18731052172663226
Ni 3.138358606411268 0.056921156002897155 1.9430143303504277 -0.3549101952878984 0.6877981206684348 -0.13241001303401068
Ni 8.284154890641041 7.50546965655611 2.93041383673591 1.470063970799152 -0.9312563932312284 -0.0744851156927685
Ni 8.968865305320017 8.592130410286968 5.390210703382628 1.5033317317133466 -1.525962581738985 -0.036151253109576446
Ni 5.0385985080186 3.5338260235850387 8.480368877456216 -1.3971688253013228 -0.17364845085850736 1.2993933716220458
Ni 0.1676625009856905 4.389681902802634 6.532045162644139 0.28149337295864424 0.0822606458731293 0.4742376641063381
Ni 6.519569670202774 4.765314884768581 7.312164720238082 -0.2716686735587386 1.3054699168334292 -0.7977138092546713
Ni 2.9538708111518295 8.45482285951725 8.529557358510731 1.091546934725591 -1.4701868695302616 0.28183815789257266
Ni 9.073583777130212 5.078937708883402 11.448266123691356 -0.5791630985668348 1.0774315783701314 -0.4084871000730901
Ni 5.091104665665978 6.649760699080795 5.8506000836873415 -1.245486080080629 -1.4545769309071466 0.39748586386657997
Ni 4.505355227021595 7.681647190767825 10.342784694774409 -0.027176817525108032 0.5046232183767309 0.3343549968443661
Ni 2.9748622550801094 1.524974223997086 7.699362279843258 0.3501377135999196 -0.1150524955921696 -1.9294774254084641
Ni 1.2823421492302678 0.7615651780657349 9.264076080344463 0.27012729721354767 1.240540563149896 2.2103215948188835
Ni 2.6797883009281613 2.829795399796221 13.016541858181968 0.4002145756516527 0.5924073651712507 0.7157095023667222
Ni 6.638438542316329 4.968342367381998 11.895457340234863 -0.3602472912300957 1.0095431420582741 -0.9729943963999631
Ni 2.349251111233335 3.422450160327773 5.78739343189752 0.878463417799913 -1.2096973525167942 0.6168397871820022
Ni 4.287653935397944 7.699029869401349 3.8312755186574794 -0.4044309277258454 0.4590702123372804 -0.21809793942113406
Ni 5.0853930829348375 9.138587465480297 6.191712884043672 0.6541169263659057 -0.5917823299927422 -0.10619478809122355
Ni 7.228228328873417 2.7772984247577353 11.800277762542208 -0.28214077673465604 -0.7100561607356868 -0.7365644914388606
Ni 7.49310986498679 0.6023121103038059 6.61090999911747 -1.2214966591445673 -0.8837177242203169 1.8337405994257707
P 3.891341718206062 4.783909667775915 6.920183021399908 0.8671497925593066 -1.0672482100792267 -0.7789496412732908
Ni 8.433298824273205 1.0588007183509802 12.91355338988712 -0.28727989773343426 -1.9884909278281946 -0.5932041500409333
P 4.183679254908042 2.0345263740514135 1.2657207088739337 -0.23098096603138932 1.2310202823642864 0.981732033383277
Ni 5.406169159376923 0.9561666987593849 3.098490473382653 -1.1531634219858076 -0.5759384209819501 -0.9393931634057499
P 6.47055290393455 7.059598899171345 4.2245602296975004 -0.8670657174859326 0.12182503842931279 -0.06543868921978407
P 1.0144028043556896 1.0286633959657592 0.8581799975282893 0.24688246775299416 -0.16382426567923397 0.5386371134283304
P 0.1084851779779034 6.899619487046019 6.678067927513738 -0.7469718028151137 -0.6091298201322543 1.650569039568177
Ni 2.175543698813705 3.6907108965135893 8.158837990563166 -0.6404147462884648 1.3431802869000093 0.6107714695007352
Ni 7.291101651960441 1.6513820180113923 9.24245195466349 0.36254277213249175 0.4675556241004722 -0.29467361909434414
Ni 0.47808977720591717 3.0859167270261376 -0.07517434595943051 -1.2962699955017158 -0.013149135787448321 0.5322474078519027
Ni 1.4102742563207311 1.159873694430849 11.830462834493671 1.0802988726155978 -1.643195629922241 0.2296509343660561
Ni 5.963057658272145 4.3123643359276915 4.766300178702748 -1.0969161694573044 -0.18658032842882705 -0.12322346143873618
Ni 3.688846826908409 5.918301622530046 8.765921384447521 0.2725240795804984 0.08176647984553015 -0.14822358302749955
Ni 0.32241609039028907 7.670242390523327 11.71859111035621 0.4451109219437108 0.6487726313348569 0.46171022106328863
Ni 0.23339069717739497 2.821485138748498 10.96834808905494 -0.8011431466511945 -0.5369003332428818 -1.8377456068201057
Ni 2.9303725149958937 8.470635312030154 12.867172950631936 -0.8746520144736227 0.6983923512445133 -0.8350912214618651
Ni 5.246878442918535 6.859023173132228 12.543330801080641 -0.9130092740955824 0.9063282625309811 -0.6219002324240451
Ni 7.25168071198489 9.0663662465407 4.257259499963732 -2.7569468686590133 0.22028311999791095 -0.8056184088137286
Ni 2.9542564807253147 7.938484761491358 6.243993149512294 1.5830310446172027 0.8028130781544496 -1.9948104422883193
Ni 7.275316747274214 0.3729837993004579 1.6450570370062307 2.40041584993824 1.7180473849258089 -0.767145192439195
Ni 1.7899016731549209 8.556419244303994 4.0320780551362425 1.5209491876847936 0.12010445619378025 0.1443820977942223
Ni 6.84659910330066 2.3809494771302835 0.6673470195241259 0.6749575172603408 0.8684808526659044 -0.44749587723611967
Ni 0.5662116017037883 1.9069799365344358 7.425757265282 -1.4321065177187724 2.056114026293807 -0.636909818459
Ni 2.0724964618219466 6.008759502730173 6.8064297807003715 -0.6852259890658844 -1.1657497432912503 0.7151747129091748
Ni 3.237053286787976 2.442638243670172 9.78971524291758 -0.29134301205921437 -0.2724531171332469 1.2701398740735674
Ni 3.7296176103911582 7.198935806506307 1.019242039242043 0.043652703692944175 -0.9539214389289119 0.7073405615767366
Ni -0.010282685437833812 0.3890212257312283 3.0619886847740325 0.7056742296179073 0.5627023819076503 -1.5765773185720589
Ni 1.1425185636240032 7.426324750511557 1.1612795518522923 0.31248905000921023 0.9803847753267632 0.6795497646167136
Ni 6.718382335334529 2.030219730480826 4.6706238218690075 -2.4799513835707225 1.0495289384225923 -0.8629501526556621
Ni 9.061637202961055 2.651570143801475 2.2802557427976757 -0.5910091992721435 0.6401964596300717 0.17961880950932937
Ni 5.931634770641972 0.40339476343067576 11.027147088576356 1.0762303589731788 -0.20249391433529 0.8162746029759941
Ni 5.933508022856044 3.2086331122656544 2.490587072524197 -0.3404639379555814 0.829718644296042 0.7052726233041144
P 7.910395160889167 4.460792026066239 0.12991646887213482 0.3423328728435201 -1.0894311739341689 0.2514371770032121
Ni 0.15717687989133222 7.994094640944405 9.242035064219769 -0.3872292191355783 -0.9014071710802798 0.0027230553581178906
P 6.781090371461487 8.220344941446983 13.304042914780263 0.3473223556383115 0.7319689016483781 -0.49059502241843894
Ni 7.090057612867804 4.071954452512861 9.608670007731943 0.1782178153967447 -0.8933387922498486 0.7530938565524514
P 9.056889794163627 3.5914009813410828 8.948042821395358 0.9631226458122057 0.35366578135783605 -1.1324763259501012
P 2.1211000106900073 6.080659330358533 2.726883147155182 0.5359161149527415 0.3410434646081352 0.0026348665196857845
P 5.076458404482424 7.7076064261069535 7.911399738302007 -0.7292659008949182 -0.018647439897858206 0.6638596075749664
Ni 6.095626982853327 7.907842395617049 2.153277708771144 -2.4734812024653463 -2.842791632338975 0.03926048816251948
