# total energy = -381169.86339336354 ev
CRYSTAL
PRIMVEC
9.26261225657219 0.00000000000000 0.00000000000000
0.00000000000000 9.26261225657219 0.00000000000000
0.00000000000000 0.00000000000000 13.55676931669118
PRIMCOORD
 96 1
Ni 2.116228968113149 9.321614858143432 4.224967261886065 -1.0247771853992094 0.615477873837469 0.22394051424484013
Ni 6.054376670029353 8.338416380101211 13.342734259747417 0.9950747732387701 0.8969720181270616 0.8048298514741623
Ni 2.8933528539437843 1.1837247656540815 11.123410567333954 -1.168374325398291 0.7367740363465053 1.9000213249308762
Ni 7.541340827980403 5.6027965462388325 7.395569545061082 0.3699064115864145 1.0038676889400517 0.5154033397113704
Ni 1.170284715613673 4.428612270964917 3.985906655750354 1.1171764623682372 -1.7104425759953574 -0.019473535343579366
Ni 1.4579629197177486 0.3016693795596494 1.6282217700332309 -1.044085398809518 -0.8332114879406489 0.7982581117939155
Ni 4.0942875527302425 7.234952147596779 5.020288475290364 -0.2450014486801974 1.0613732393556883 -0.4005655312331682
Ni 8.856705835656738 6.000412692403288 3.4821104092218618 -0.9207490659420013 1.1612130317631615 -0.438088982099923
Ni 3.532500871130774 5.310616712693242 3.481473141514915 0.8827317061579635 -0.8888208497748369 -0.49706623196507943
Ni 6.09424295216162 5.530955727414979 3.908498080841533 -0.11200830944920709 -0.2466212436718075 1.1737566727561268
Ni 8.013947081055369 8.170800152994914 7.16914499424248 -0.676705353189383 0.1017444656293538 -0.17102489719273128
Ni 1.6107774928167584 7.908899798141326 13.577510907824074 -0.3782182738862196 -0.3149765923177543 -0.9884426126342332
Ni 0.04140387572751686 2.520199266123036 7.535326613996091 -0.06743926458958063 0.2250723138564382 0.6211543553969561
Ni 6.616543118721625 4.71722599888297 11.31095437793917 0.7634888266335302 -0.752717189939323 -0.7818570447280728
Ni 5.179939782321026 6.540654538445216 1.9022311375800145 -0.43424981085949077 0.6819012955680256 0.10278344841682945
Ni 2.7623239443148235 6.035480941509412 10.417590268830036 -0.23799159302126754 -0.059142571798427176 0.9243797207160532
Ni 1.1482767494551538 3.211125284499471 12.613177591682128 -1.1091433076511157 -2.0362712805362673 1.0987277687447465
Ni 9.208184911351672 4.809046271833054 10.954682826785307 -0.3566865704620309 -0.5538804127406461 -0.8204037946530193
Ni 4.674256741724145 2.6195593052570567 11.859976253914459 0.8262139735768932 0.0059970981236993496 -0.4418492204733036
Ni 7.56889709873865 7.7540474503980095 1.6557428428658034 -0.6558483072347157 0.7487738890208588 -0.7990196725502885
Ni 5.314451434069347 7.14148312970721 7.221026736686544 0.5509565542256318 0.4876855620811279 0.8480290125694555
Ni 1.9972877671697389 6.019012017338603 1.3305056732835379 1.5216071329837666 0.7676771536832651 1.7708894684275052
Ni 8.603706850953964 0.018711402540750963 4.961709864356145 0.28789464849929775 0.20939758343365875 0.8136618479434955
Ni 0.8198273060244985 0.11155426785779628 10.947430201573978 0.32511290942080784 0.9004023839648494 0.0025196810980601765
P 8.029461956188163 2.7691782772093116 4.183931111855726 0.8760720347496008 0.828532594407741 0.4980882454716906
Ni 7.037760400311967 7.953758628152146 3.7561605322615317 -0.7677499159027293 -0.7607940534101866 1.6959878340226082
P 6.875423862056831 6.748655753956877 5.621870116909549 -0.49877781533954746 0.03797030859618623 -0.02170422444631101
Ni 8.751899380655205 4.6632064455847875 5.662119871179427 -1.1769656666117279 -4.628044311466687 -0.861828123236077
P 7.890670977686795 4.129226125268094 8.971924392829479 0.2075530740257522 -1.003566098539233 0.999527409693485
P 9.24977403931958 0.22467854845291113 8.478619906935563 0.44149955044336864 2.3295032820880786 -0.019378918747244043
P 4.01761165043217 4.702674435400212 1.3648551436969436 0.07545827823931521 -0.1874395911053288 -0.19540923957436668
Ni 3.506102426874975 8.846044569222203 7.232671692517559 0.4203046615333084 -0.6428359541354478 0.33588943121102155
Ni 9.030537275428172 6.3970562643056885 0.7891411986648362 1.2887703446905612 -0.5072681121987458 -1.3926876496015177
Ni 7.42465970436977 2.8986695932430226 2.0071478176645807 -0.12237602583677631 0.8819899428959326 1.3141191078679948
Ni 1.9211305711447628 7.8425702334691225 9.181077877276374 0.6324517826876462 0.06088089464577257 -0.2998171109684965
Ni 2.298748737958948 3.869345019834774 10.98128134346073 0.8612182575662201 -0.3150262146087672 -0.5582937113169933
Ni 6.106710427939974 9.05037779037411 5.917340030244494 0.2573694833272471 -2.1493998196328468 -0.27551401544675774
Ni 3.1589582536052037 8.109074106496442 2.463251801165464 0.9174032893982201 -0.9349628955485381 -0.42515427631612585
Ni 0.8822906564397295 5.772413497541359 8.293692784225877 -0.34892235313557973 -0.23311215344177916 -0.1396317275934305
Ni 4.851607974063018 3.142757945182961 5.287546324936077 -0.46646959012514505 -0.9600445211075143 -0.46652204062963526
Ni 8.498455790575491 9.185093219586863 13.635398527901632 0.16148507602309609 0.4156584210105487 -0.8506525662352319
Ni 0.8345835732328893 2.1288909587439133 2.830802434975569 0.5176134599888118 0.2260850713916687 2.7391260384275085
Ni -0.01699967183953282 6.640153516759531 5.860563923609285 1.2497821363528219 3.119753435975853 0.1262715042364406
Ni 1.8159906621105248 4.217952685803638 6.506449564779317 -0.06561609533791281 0.4282164601812174 -0.5895297865131396
Ni 0.35698384601816957 2.4409113072354423 10.040807589620016 -0.3869597675242755 -0.2467806520678072 -0.3133632250840474
Ni 3.4932922344518973 1.382407793474045 2.1739359672563268 -0.6944351663689783 0.45823563225112696 1.3856970772162973
Ni 2.770465780280033 1.945574604264431 6.593795069862742 -1.1236273601999036 -0.40477699821135454 -0.4281663236695723
Ni 7.3975017259283655 1.4787482210896834 6.505595551951112 1.5467946879929875 -0.8085324971367301 -0.7030586463719312
Ni 2.2155519567990916 0.9066994916337234 8.810463171410193 -0.867494577493235 0.5356569477540839 -0.06863534178021083
Ni 1.5706796453840022 5.3836246206315606 12.739295464418307 0.3497114246957784 1.230166161894107 -0.577243770056935
Ni 8.2089250640675 4.396322805464666 13.190248509375103 0.4021932966445783 -0.26788606658785474 0.44745473958553905
Ni 8.81993326593901 7.689301792381154 9.321525937068044 1.1362363072131656 -1.1618848610192054 0.8975605436406799
Ni 4.086173504601092 4.890733247233719 12.638203316836625 -0.09915202231182924 -0.7404789960019184 -0.1508219398822951
Ni 8.222467002840125 0.6849970204227028 2.6804711681590083 1.2094209589269558 -0.8119422941492276 -2.1412072565197255
Ni 7.208942733045801 5.418804021081921 1.8286859981445596 -0.10816245334055566 -1.5459549657005118 -0.4131099435570821
Ni 2.0310685132051427 3.356279677458289 8.743356473589547 -0.41401497186985475 0.31928704676765013 -0.0856709571062589
P 1.6234116956114637 1.0054843225613284 13.200103928563934 0.09117774585710103 0.226501590103797 -1.5315380189442334
Ni 8.368686596181194 2.1925621537664974 11.948000708458919 -0.21809074033228243 -0.16931897024521805 1.1278305996479738
P 0.20821240306570604 8.2322020080727 3.3323080375516194 0.7467157209402495 -0.7560436832093947 -0.5557647742475524
Ni 5.753508506409398 1.1086420326233766 1.8544712574846627 0.4361933077391068 -0.9230579165808361 -1.7866233342229942
P 2.1433962091665735 6.475853304756244 6.437092978499114 0.5156738197639377 0.13129646825485775 -0.1099192881306623
P 4.7352695670971094 8.169466336864094 9.489955421509661 -0.5178633712160887 0.09944229985873843 -0.4533546500097418
P 2.7861566450411996 2.4484325481953397 4.33470883657163 -0.15542524298226137 -0.04289165715720355 -0.329522094232097
Ni 6.185257377866001 6.015649689175495 13.209037717856818 1.2105527585385538 -0.1033002401522479 0.6127314214405835
Ni 4.4282973421562515 1.7285516046457017 9.67496405520512 0.7776563763831639 0.45488394217007466 -1.7035736167896662
Ni 3.9595443356814317 3.509992723923198 7.655114417678091 1.6165415176698226 -0.5275258340065172 -0.4983947209685159
Ni 5.016732558536048 3.185403010921101 2.976483870558301 -0.2291079173783925 0.7937663945711491 -1.136888596085184
Ni 0.5571989098661714 2.1785292965568357 5.210734262241317 0.4908868426272449 0.2570892330826669 0.4497975287861028
Ni 4.052716949986373 7.089881118146137 13.346232748307212 -1.0065213245128148 -2.140431297585649 0.09291838269729158
Ni 4.661316872732793 5.195056365136978 6.115878561316952 0.2200614909054081 0.36948629332986044 -0.38752463888881
Ni 6.968522375465616 0.6741023361652744 8.724824765721976 0.07070662248694273 -0.5214698576204245 0.22051837593716864
Ni 6.004062161539002 3.438179692935404 0.16778295412264888 -0.6383907738799005 -0.2613811755898015 0.11791567607257758
Ni 2.8873784691911557 8.20474762604667 11.524338097295407 0.7517998203313762 -0.6987901009035642 -0.5342058171298542
Ni 5.134478882528933 6.501482952214419 11.108972007717835 -0.5408207513432106 1.4981329611212264 -0.7115306883986843
Ni 3.2594390687935935 2.8413247622298106 0.21313918639891996 1.2819489508933535 -0.9271863369269129 -0.8376175874281445
Ni 9.218920278682363 2.190070511133231 0.7700352088520511 0.016148070514772187 -0.25479169529774187 -1.1282337486236633
Ni 6.549981988748933 3.357391190900638 7.010069821679437 -0.01884515773096109 2.031721970602688 0.646089685186055
Ni 5.357365115556055 0.06637680399350304 11.413362742688836 -1.1463656823376838 0.3952369199314032 -1.4079813425357945
Ni 6.725758577044478 7.101283393542238 9.216637044819537 -1.6685310233632362 0.043681757158666706 0.7721565296108573
Ni 3.476174927439716 5.667440315523472 8.177294170281842 -1.8598576082277969 2.0628708854016664 -0.6718338840296946
Ni 6.580168841320739 1.3011005851661832 4.010892551673168 -2.1762688761095488 0.3807143008351959 1.7924862207616743
Ni 4.287635316026929 0.7817320353103752 5.197854600228092 -0.7380747574357999 -0.2569246824803446 -1.6284680939040792
Ni 5.5758145574258 4.929173087114971 8.561234996060591 1.5677898021874161 0.3303769860332246 1.4793901332960846
Ni 1.8754936817242984 3.7417432766530574 1.6752637976970652 2.3672797295059036 -0.27350829787063863 0.05298426550651521
Ni 3.705498675820446 -0.1501071116056868 0.19981584526995794 -0.2784103631579463 3.372320355708134 0.17903902574645938
Ni 5.102717385913797 1.5749497095250278 7.3480940271547315 0.2056856817997103 -1.2801694903954275 -0.12593520394294438
Ni 1.81565720807782 6.658539801618395 4.106237248496702 -0.1594222799567964 1.7412413065437689 0.5485181199874682
Ni 7.826444025943036 -0.11890322423413002 10.999690784849642 -1.241704758661326 0.40711850186033754 0.5034279125170491
P 0.008169623801268427 4.321666152586861 1.8440054321637405 -3.0634161948367047 1.4882871786753982 0.051848609240175224
Ni 6.663226683300302 2.4169767177768504 10.383021274511766 0.24309163325199423 0.3023331925221309 -0.7991441139432947
P 6.602880765992746 1.3124750727262258 12.829475328779724 -0.35332073931359154 -0.03819913677754066 0.3100223336362725
Ni 1.104520170274664 9.46481483996612 6.597157398025849 -0.11601485950543891 -0.5789373557092738 0.5984116623838017
P 5.094158732407706 8.770313453350127 3.319998952438801 -1.2060296738572198 0.41352029162162335 0.14591164706487128
P 3.999216102961287 4.124085375597228 9.80048634198844 0.8649895516831941 -0.4743700759191443 0.3456632227683337
P 7.450557967576512 7.071059490522353 11.5370139818442 -0.3320448606539507 -0.937379732520147 0.0664136515385437
Ni 0.4705768147814751 7.115399614260077 11.433385731091558 -0.42987173639645326 -0.40379586524500777 0.5210957621104575
