# total energy = -340862.29009747243 ev
CRYSTAL
PRIMVEC
9.32051333169725 0.00000000000000 0.00000000000000
0.00000000000000 9.32051333169725 0.00000000000000
0.00000000000000 0.00000000000000 13.64151339286343
PRIMCOORD
 96 1
Ni 4.836945740695208 2.231116567596924 10.660556383563668 0.9156027458543716 1.4592990189731643 0.8515732782772882
Ni 0.055016195221572514 3.830460766497514 6.9579217998920235 0.40806132538958106 0.03642456137562114 0.48371912123421207
Ni 0.3511438229346044 6.590945220621694 6.253188451272185 -1.2658834127900584 -0.2108633693459078 -0.1031706565529191
Ni 7.363308215425097 6.199632780520977 0.11459291771404062 0.2552704347063733 -0.058943568413743645 1.3652987160656036
Ni 0.611837654355456 8.495610801782652 8.864323792723875 1.6705056305911035 0.6673977026352119 -0.8357249983911219
Ni 5.676528279086797 3.6688617028907538 4.017398578190636 -0.2420727050691767 -2.406233999281914 0.68592095825038
Ni 2.1929583851995265 5.164207611808403 6.7004929443612085 0.05288219271101215 -1.5299603900444683 0.6613877489957061
Ni 1.6213406108346053 2.704468167800692 0.5064291706752199 1.2682179744605062 0.4745801350474214 0.8972980340079127
Ni 8.87886099767874 3.8880615401213334 0.2184719051237802 -0.7035188738378013 0.7153343784154906 -0.033756013404522514
Ni 6.333596521507248 8.777015746321544 0.33714720776455753 -2.4814035426362167 -0.4829341634390715 0.17412564760524207
Ni 6.01055684302376 4.856919601192918 8.298337472634602 1.5962292884750315 -0.2810277461761354 -0.2439151575945541
Ni 4.943749505251089 5.836337804095535 12.806243920286184 3.219953439936222 1.2500449030959053 1.2033894080208953
Ni 1.5091495894575968 8.71699163917957 6.290565574635654 -2.2066230629213734 1.9034601754090958 -0.4686833099470122
Ni 1.804637829942377 4.53805551277148 12.580067678677379 1.860599628600144 0.917824950316671 0.7722807138935474
Ni 2.4727974834651496 4.564712181471177 10.38236515209039 0.8195638152502274 0.22066570014831027 -1.5868416766125444
Ni 2.5493188995576346 2.204376014275445 11.657873700651916 0.41550441193118764 1.3647472144375077 -0.33059630113288224
Ni 3.714271244815551 3.168154395472437 2.482196289310175 -0.43227417519035877 -0.70591976996981 1.5402337469460181
Ni 0.6563067564649389 8.059764948029086 11.046106882199297 -0.8713350342852478 0.7591961127954474 0.7449128634035559
Ni 6.286798223066278 0.12230098240447727 7.00314399949484 0.4539485748399989 0.9808303475046138 1.9412829026838245
Ni 4.205816487432538 0.6108627286400755 0.45153414212955506 0.1090055180671413 0.6997810040619239 1.2079502879187005
Ni 4.796839570969755 0.3010805486035978 2.800357611011348 0.29295869328576646 -0.0894507358636653 0.3316224284045514
Ni 1.3965111834310828 0.9726887921329742 2.74325362075875 1.147555588880727 -0.6012067086304356 -0.815516641764047
Ni 3.3516846274184933 6.937230259852399 0.4998507522247843 0.527781144550433 0.4085783742353157 0.8131396568914383
Ni 4.2187906422681944 7.280709824510164 4.104131548908081 1.225710440115599 1.3192733983754246 -0.8180324662073654
P 1.6381175351910575 6.827835392534799 8.043513700635803 0.38411432765568043 -0.5601927281119191 -2.1986901812275423
P 8.615985234040195 8.286327990949442 5.285800235184496 0.5869340007615053 0.017179597103080087 0.7931357029656856
P 4.585962952322683 4.532043781543752 6.5603543631604095 0.04420523376230451 0.04139887466176096 0.9165098310496732
P 1.5562088622774453 3.683168691161395 8.435966971592757 4.136855621328308 0.19127721968386413 0.1575021801159481
P 5.883546205131886 7.366626318242263 10.973642685647015 0.8412420715546093 -1.2368564294300892 1.8372316432981648
P 5.030365037498039 1.415832607981597 8.636128727884175 -1.0177591022101633 -0.8305339411084858 -0.5720768811440147
P 5.2184063979932755 7.573784051990321 1.8235295788190955 -2.299769245358755 -0.3465988472087257 -0.3659065463984021
P 6.204274396259595 4.500204907320618 1.0486342004892208 0.2684234271485635 1.058535769906893 0.23918998420474288
Ni 1.2485387106071741 5.754652823506676 0.699991071335081 -0.5913120752245429 1.4482790137135766 2.157828152905858
Ni 7.920991822060631 7.170215136595863 9.494329924106015 -0.3090010914606097 -0.9291506597421352 2.0415448702303807
Ni 7.461005838260837 5.0430968589818805 6.156251382340605 -0.3566253782067923 -0.4930527399303122 0.9017015623922471
Ni 0.5342499715149833 1.2235504138295918 12.633637330198885 -0.7932357188786597 -0.4928087422403062 0.4078047292940848
Ni 6.446439978831452 7.864863689574768 5.192492574222028 0.2278694169856011 0.42257160319061415 0.13015258445840164
Ni 6.556608448772154 5.730466090892791 4.253055646163542 -0.5867697072694991 1.9250651552733815 0.46794591756035536
Ni 8.852558508493235 1.5504860669691887 1.0161074723674726 -1.378376118074852 -0.28835153353105825 1.3213043127625244
Ni 2.3625917314703213 9.171031135346356 11.797262912564792 1.8125986752408332 0.7766217644710626 -0.4261096982508597
Ni 7.70150304891058 4.691508447551831 2.6637645531578795 -0.16372193577341482 -1.1684396314185876 -0.7182160708386598
Ni 3.6331827770926988 5.015787754334989 4.688247199867207 -0.03719743498590368 -0.2579842340931105 0.08599568743552931
Ni 5.004910715043889 5.400706322153192 2.587712890947375 -0.8767109538851804 0.675625746971959 -0.9973620266110501
Ni 6.610900440092341 0.17086738226234702 10.886282444368907 -0.00322622024678154 0.8188480201301254 -0.46762864343025273
Ni 8.041962767184184 8.110105041611973 12.169431017872089 -0.35093526980055045 -3.1371762594379904 -0.5541778893764069
Ni 6.946895632384422 7.9304707843220275 2.9365675957586768 -0.9286220409321749 -1.2237101218561184 -0.3505316066042286
Ni 5.069585758438012 2.3916158106069836 6.542019980992867 0.09715787469993589 -0.03210999316066728 0.5343649684155377
Ni 6.189743715664202 3.930600363878471 12.621483380553988 0.16267086880108114 -0.23040143937883548 -1.3579271061918807
Ni 9.169316160856585 2.8446486913123814 2.92074322788513 0.4302903119911106 0.7371329623478208 0.10522856752321232
Ni 2.6480231378547616 6.246487002043136 2.779349173511657 0.12665459860747222 -1.3109617931859359 -0.5581877818667484
Ni 3.9800829702164737 5.799027788429492 8.525045915566047 -0.8555764858994104 1.9701558769644327 -0.751863583689776
Ni 3.9750312518824757 3.4950993691255654 8.645159373444713 -0.8381014690430986 -0.919182749896146 -0.5509416418272963
Ni 3.0782860040030418 7.239252180322664 6.135653047436294 -0.09266255793274364 -2.131494657217652 -0.7787400963656459
Ni 1.5975080577349117 3.3406304983702975 5.049324826123537 1.9376039111703405 0.8488864754737444 -0.45874676755959054
Ni 2.6684443830019764 1.4304751347393672 9.286269032596765 -1.4660139690994944 0.9122304869480289 -0.5621269690201545
Ni 7.233874244015069 7.0420487550261 7.3928682240898125 -0.3652131198758033 0.5169681130953291 -1.473670714313804
P 2.5738691321992424 8.966865286441864 4.1921731197253305 -1.2008334743682612 -0.9592695906147028 -0.7444053276395179
P 3.3508364606871393 6.383498550954162 11.792843125048218 -2.7073060657034342 0.1606093582863621 -1.196649003973268
P 8.172030533514345 4.5774999260362055 8.77398937557791 -0.6859212153606962 1.5732976193795227 -0.2368330539367921
P 7.776514541810983 0.5695076101014208 12.97642158454721 0.1664665883980875 3.5511351812589296 -0.3098305293404406
P 9.414371102623164 6.197899165004143 12.651180400767615 -0.5081011496230023 -0.0920300665550673 -1.2398023994322906
P 4.1577878812054285 2.457660969490217 13.015927513201245 0.9195918124091067 -0.10136111414800608 -0.6123838082931775
P 8.556380550007134 6.496602982657245 2.1159765357385925 0.2570336972543832 0.9014678491148862 -0.038077266487695716
P 2.108635699281291 0.5954577838754398 0.5256974682986052 -1.153216129600614 -0.7444757758661371 0.34589642182506236
Ni 8.601529117553053 9.220271408332543 3.3800264449646598 0.4226808750749688 2.385032682613951 -0.06851655681415943
Ni 0.3920907029805854 3.749120644909315 11.215861395145998 -2.465035128580522 -2.1246586081324246 -0.1910206235883678
Ni 4.127048827578995 0.04899048322354675 10.26503479955219 0.7341286283038584 -1.290485270499139 0.20826012739510583
Ni 5.989772097848823 2.4722009705991423 0.7074670552385868 0.09240210518250538 -2.723001107841188 1.6717410456601016
Ni 1.332488575984155 8.00904271339141 13.376732048411103 -1.249128819039539 -0.41796470054622215 1.1642667309878207
Ni 0.013122351000805044 1.0756152230598086 7.4568470251231425 -0.2471370069659615 -0.3551225684090207 -0.5456595674927506
Ni 4.906066669043791 4.951783787915124 10.683855803289369 0.5106671105779657 -0.09208945903809301 -1.0333286745136463
Ni 7.644023441962668 5.619831595275519 11.501910751577569 -1.233522994181482 -0.6071289876521414 -0.9673587953807404
Ni 7.004859906035964 2.4707842525423755 8.779705646526695 -1.5977020163658162 -0.49609204097726817 0.48797301141455957
Ni 5.610194184284091 7.963856863791367 9.04785682082399 -0.2592641292467987 -0.028857804771956753 -1.9866075947625528
Ni 8.401166038169357 8.475264120743688 0.9700249893657109 2.376050276609682 -1.1382381681345428 1.1815555999752554
Ni 4.129723814962496 0.13555195649201512 5.551809555472284 -0.12025152329460581 -0.15982825714596344 0.21401734159385724
Ni 7.54120885719821 2.313202330267632 6.454904869220635 0.053783107258726724 0.36729494210549646 -1.2823276743890109
Ni 0.5200194114552993 5.339806086739269 3.9873054361519262 0.45250721440778197 -0.20321588010297906 -0.47049285235192523
Ni 3.3250372792323284 8.660770301558392 8.036120669302726 0.1865391907782465 0.6795096554073974 -0.016479999932894198
Ni 0.8801631222557871 7.620246811944163 2.872888915261056 0.44865647320312413 0.8784389923198808 -0.10692189606523521
Ni 0.39595405583933513 5.944931107249438 10.4177924240231 0.31002799006322734 -1.0344242215706703 -1.0708328421066913
Ni 9.242985499808473 2.7184582586112667 9.15025011837683 -0.03908025383091334 -1.2061232620122904 0.9480459539847415
Ni 4.496700394232826 8.419527449826141 12.517903581628605 0.5795881019193954 -1.4631582448182543 -1.5447501467591331
Ni 6.175296919690591 1.050058374956813 4.800598534076955 1.0186055093708586 0.5384409382571242 -1.4385928967740644
Ni 3.8804000779985537 4.239053438685377 0.43092275850630035 -0.48113516255711974 0.5972142996415908 0.589134865067566
Ni 2.495353126211046 1.5301021038760994 6.841641869228806 -0.17394052817762948 1.094975500791166 -0.4307266281975808
Ni 2.4965088698889355 7.240780744541808 9.821739991384359 1.3395748289369382 0.006277091257963383 2.64489047958069
Ni 0.40072056645927384 1.5141360641968757 4.882215474917035 -1.2080819284005582 -1.6782806465508322 1.2467757454263302
P 4.960134968039225 7.694708394546217 6.764403705645759 1.7595660729948857 -0.4031965410981121 1.2307246055007386
P 7.992396276224398 9.159510980621592 8.884308837837821 -2.3042925871504054 1.7456754310557228 -0.9230316913285909
P 0.8279412169909172 1.3195051006349672 10.628839608067796 0.3713680837336056 -0.49912491426632105 -1.9601326884004757
P 6.995772405342885 3.0036380111303607 10.905558198403119 0.3307490246606626 -0.1466752647037732 -0.2951670137909949
P 1.822747587733814 4.260984607024672 2.0773299584321516 0.16265287107895213 -0.7311955138174633 1.3179688206313882
P 7.115783337572707 1.6286665344702562 2.828526999057184 -0.1862478847900728 0.3574887546483521 -0.1933328166613122
P 8.65918581425806 3.7380478748340566 4.939128394642239 -0.24569358965121557 -0.8079689113237762 -1.0766890437771521
P 3.8005792001159664 2.1619956392483406 4.762689209390845 -0.20877846179242107 1.0844404055877968 -0.6637338806303795
