# total energy = -340873.604376322 ev
CRYSTAL
PRIMVEC
9.22218798042823 0.00000000000000 0.00000000000000

0.00000000000000 9.22218798042823 0.00000000000000

0.00000000000000 0.00000000000000 13.49760430239978

PRIMCOORD
 96 1
Ni 1.6587396534823877 -0.036602864857178743 1.7375331070105433 -0.3070843340538711 -0.17950208142580698 0.15364706803591602
Ni 4.446127584284242 7.392247817913448 7.203793324824519 -0.259878622902346 0.36754408200182503 -0.9401277275789293
Ni 5.112670456649435 4.653423930028677 5.374232924258093 -0.4633888943172923 0.4461491334002381 -0.7949347038476374
Ni 8.556401519697552 8.34988905994779 9.338641353782506 0.02180424035928503 1.7419668718558836 -0.6521474613443607
Ni 7.776130622787453 2.8326873191058257 4.719343208867838 -0.15467113842505623 -0.7196196360544058 -0.8105058188130171
Ni 4.122069114086106 4.0295890110909465 10.218550616147361 0.7343458865209869 -0.5585960730487606 2.049317315086948
Ni 2.3953896003359336 1.2128468553356022 6.2778035548174715 0.9076462100114561 1.275706055307435 1.0549413676874153
Ni 0.6390487627661234 4.85913405940742 6.670205817125353 -0.17823195646413173 -1.012293965330534 -0.8789526987315056
Ni 8.069700538886867 0.11258355099268139 3.966554432712185 0.3299085310372383 -0.6613887774369706 0.4984127186906449
Ni 1.2160469546315058 4.667579988873669 2.0097933128994545 0.589404830899501 -0.7136459349694741 0.6141807522926003
Ni 2.604364384327788 5.816397191726683 5.6865543155689195 1.0583681339807773 2.4385399105034713 0.6432830689751954
Ni 6.294733647864789 2.2717753900699664 8.855697492433352 -0.44329006668488824 0.011708803796495965 -0.4439963487232934
Ni 1.1579195025794025 0.1808212879384417 12.061999632101772 0.18900590715118415 -0.4081081194671165 1.1594669956063322
Ni 0.4921900272110358 0.44137208150456114 7.705337417499056 0.358118417812551 -1.3683537008418436 -0.21923076747399664
Ni -0.06873665732589973 7.109329529153427 4.471635234550926 0.6037585285180117 -0.10088057496716175 0.801228250165833
Ni 3.8213981130937658 1.1733113346395263 2.5912430549957666 1.1274691025434969 -0.29271675247828943 -0.03635025649425998
Ni 2.4435847557261114 3.1085506339137847 12.941476373841331 0.4060139559422491 0.5314853328748976 -0.5539950839416395
Ni 7.906569252301169 9.33811107796258 12.14649424235825 0.04947290991914706 -2.4189349917883503 -0.7015445237202498
Ni 0.3438778747999412 3.9543082890377463 13.289606599607673 -0.8546786566754894 0.5534512956230274 -1.3016837103181196
Ni 6.967787385079862 3.962285481807074 6.632088668970228 -0.13748588489502128 -0.9826692004855656 0.6637485359183988
Ni 6.608859821401001 7.6450925510425165 5.426860263284038 -0.27421766523283747 0.23208139818441967 0.39469030339931377
Ni 9.077501262392156 2.0178608831128733 12.06078414770062 -0.7247975807109195 1.8448163976239582 -0.008113630246069897
Ni 3.975842098420843 -0.09206233787093934 5.054987514067253 -0.4644975540004388 0.22585855720315942 0.8119263533096276
Ni 4.133227961774991 7.7042897769226455 1.4286811028902606 0.9297967779665665 0.2977368314007001 0.6676663829155662
P 7.4487982757880316 7.36832546179364 3.175676174965925 -0.5917697315872519 -0.2992869494966394 -0.5530046950039121
P 7.660853270629547 5.778171221751121 5.8095441836956 0.8453563508332989 0.07039577611474326 1.017322786003693
P 1.8620981248771091 6.6605501861086065 7.607884710641213 0.9478538925785934 -1.6978778519564697 -0.02011991067832664
P 8.393832786590384 6.243661169764751 9.505647803838345 0.053449892289024074 -0.9681288407775456 -0.44158928194369756
P 2.026382184984386 4.75911942867522 11.616200900274348 0.003207194083388025 -0.8755770973910534 -0.8513164250714758
P 6.652130328306994 0.26167774496081514 10.288589446443236 2.022994103811387 2.2579685072728855 -1.012363642226205
P 4.560233718544225 0.5458557846252193 7.180024057028376 0.005956474693751032 -0.3605869339577015 0.6328780715917875
P 5.43920969546601 4.469496609113693 8.245848944078235 -0.919842494967332 -1.066205370637009 -0.6800593572632804
Ni 6.646486349145341 8.684479269039073 7.912632841024674 0.3023697021870212 0.856693373112673 -1.2243343857036786
Ni 3.6098780051662644 5.439514027675707 13.509347366072259 0.4220820651487054 -0.7093933303407073 0.491175063291625
Ni 7.105197988852087 1.4207795320639491 0.30953536826387473 -0.1846715414418884 1.6127594249195707 1.1830697226269367
Ni 7.0053493575069945 3.841419483616551 13.167615494460088 0.21678719102951052 0.3748437009870318 0.1936827438015632
Ni 6.685053540083292 6.186336048083667 7.716323810269113 0.2690554043056076 0.7363850284382027 0.5819283200167978
Ni 2.4601293613078146 7.277108798578131 3.790329483358984 0.273851025922038 0.8650067780743748 -1.2632524029251149
Ni 6.320020887834148 1.2930337814966426 2.867241935969863 -0.20647603891148958 0.52480406419998 -1.0318394915626294
Ni 4.682722821853131 3.2652724997195026 13.303846580365036 1.955023649308685 -0.19708739860773797 -0.6520142782006062
Ni 4.877098881967708 8.870315582905791 9.388596102676022 -0.10247337337557835 -0.8334428872251645 -0.7643606877155222
Ni 4.740416831061121 6.3243460940871135 9.468718473519854 -0.01031860831718868 0.20417567291308708 -0.6368285715991032
Ni 3.419698040670235 5.017764918164874 3.031008631320655 -0.48775652452837925 0.9207701489879239 0.4076188385355238
Ni 2.8163087129112303 7.6175919859117265 12.952854709608726 1.9576407752165574 3.36762860665942 -0.4818715265025121
Ni 1.9970464044072416 8.145470036913215 6.131408695327466 -0.40913913183479217 0.6436309392329174 -1.0780018490513048
Ni 7.733561002182582 8.550766762724072 1.2920691406137852 -0.02985950656359374 0.018831787994522408 0.40069485772218094
Ni 0.08370057985481338 6.683660989669224 2.1315151301523976 1.0268027004696705 2.2172738577670006 -0.7169402894500297
Ni 8.502497829828513 4.083631033782574 8.428660380224331 -0.36754639599467026 0.8639469693512927 1.48854274632963
Ni 6.07592801128091 1.1732006683814546 5.456257832521938 -0.23127947110841457 -0.1891401187362033 0.48046744706613376
Ni 1.3098827192880422 6.1659273456576305 13.098547760578791 -2.2291587821300447 -2.345065141082077 1.2687139402603183
Ni 4.351913709912628 2.9882933001426557 6.905010105751117 0.20356169347817202 -0.7293767154411697 1.1094271574401215
Ni 8.647064851622703 1.9608400936414863 9.494863376989269 0.12612340869435051 -0.31601686065681056 0.7313312680643792
Ni 5.328349771442794 8.36554833546492 3.433426189984016 1.0170566768265001 -0.34081849308152273 -0.9681728066416034
Ni 8.22815617606904 4.991260349356727 1.2544011130226673 -2.213573526097278 -0.7512359774081062 1.792581865799274
Ni 2.5587053306850844 8.384933375003794 8.532794562413246 0.14345727198710778 1.1743619104402936 0.7816094474936409
Ni 5.741679023152013 5.956675896020597 3.0279985091011077 -0.6617248206201506 0.2235715609411956 -0.8430590701586899
P 2.392493833249727 6.563025546183017 1.5857257452820213 -1.1296931067780094 -0.2496237779435572 0.7476531451528543
P 5.28633348212828 0.3174913500004049 0.9205154791077735 0.1817116874826161 -0.11373686210453961 1.927667883003551
P 3.4224831414983705 3.4515145898658175 1.4992732644764943 -0.03584349206117053 -0.5637228527523646 1.2967567053301472
P 0.16420474928899229 7.905139813134411 13.498819316054382 -0.7739946112608606 1.19941165432007 -0.4630322823088219
P 1.2006827891359 9.077012486419006 4.195325565835413 0.4281614385735658 -0.6583559041479178 -0.7007778207575543
P 4.123655330451799 2.156876147627137 11.29206865257083 -0.6591598881064519 -1.0953907339517135 0.14309808887547612
P 4.466462509204897 7.540282382460547 11.232153018232054 0.6426652328855383 -0.24621063849695018 1.024792612018177
P 4.266230359600699 2.2991191780018223 4.852496850579577 -0.7299636982928913 0.0037913487216321797 -1.4437651850036233
Ni 5.515744635110688 0.44741169253881824 12.292646558299314 -0.6027401145558264 0.5918394084829226 -2.2342667927805713
Ni 1.5597763522018675 2.9507866608445585 8.21348090802993 0.4044247570782583 -0.2124057741323632 -0.2406539703447791
Ni 1.9132904914233926 2.4191459570686353 10.549538638538413 -0.15706380702694886 0.8031306093948685 0.963284882421683
Ni 1.2800766071140939 5.29281668041364 9.093552480906622 -2.1316995741396063 0.2920978879473679 2.0033981839573305
Ni 3.172008510729669 -0.058871682637634655 10.933086677981752 -0.4645554038215677 1.394017938377167 -0.014799012686045478
Ni 6.900640632994923 7.421297710657242 10.766972013522206 -0.6622724655935046 -1.1492558594012852 0.15417877216966996
Ni 5.255070264223056 3.5939881749448186 3.1797118045102692 0.6260620771112186 -1.4504387403690568 -0.2040409471074357
Ni 0.44711934917374574 7.250419786006533 11.053417789258262 -1.2389325952328276 -0.00932513405566781 0.7805439823436041
Ni 5.435530042385129 5.717332446376264 11.89551976899059 -0.11634370359976737 -1.8122852577654722 -0.3189767146160829
Ni 3.543570472205036 1.6223488989531796 9.01850508021419 0.4728824356300243 0.3193983755345338 -0.64714332326155
Ni 5.845871305126416 7.623475741965866 13.097980596006176 0.47764437579504193 -0.013100027717067761 1.3149578017192063
Ni 2.542501946065769 6.5939936540667174 10.767956943219044 1.3779387734271173 -0.18220508217926684 -0.9968904862912703
Ni 7.739804423575453 5.012480604341955 3.8657540715476766 1.2184599292007725 0.134834049094471 -1.1122296598859231
Ni 1.8236047114445406 2.3492141041555623 2.750866221200595 0.09345780014052937 0.8801215222286263 -0.08890746176568559
Ni 2.480113843077909 3.7684350864183367 5.350707122229706 0.7565926137343293 -3.9558407028024 0.09146982317622313
Ni 7.9822096396931 6.222062805064445 12.811764452755618 -0.04737206152606035 0.3067146094192782 -0.5999291274695926
Ni 6.665041391748678 4.824357187808422 9.97312328896554 -0.09367917212271608 0.5150855513606355 -0.1465325684783218
Ni 8.95578682288975 2.38157476245333 6.983296338929777 -1.362366372910157 1.2443049152883345 -1.0442982861512724
Ni 3.1960138665430318 4.673675855255778 8.371187703532485 0.8320125825365414 0.3355616155579576 -3.0099850716007586
Ni 9.101727950721662 7.073768771559755 6.89159366639757 -1.418205591366964 1.4969584811971508 1.144404444846255
Ni 6.295037980074487 2.4497636218017753 11.379209108614036 0.5015211824126395 0.4173471215668812 -0.6483183174062577
Ni 3.5000232996538654 1.0208408975813916 13.2145195435061 -1.1713722316843505 -0.41631790897141846 1.112841068217677
Ni 8.800678840014243 1.716950105228045 2.475460326925999 0.3315039005488162 -0.09731548332372272 -1.4642856735544783
Ni 0.6509499966029058 1.783764858538768 4.868181026004773 -0.08000116041499124 0.26047383328418366 -0.49526260309743736
P 4.459628867768976 6.625874758579508 4.754004803114677 -0.2311411457583374 1.1789348745229569 0.06207054407849955
P 1.0322948552918014 2.0060933710045945 0.5639487956011072 -0.8787087010414996 -1.6107398233863808 0.9999693823269102
P 8.048876837993062 3.953247737397894 11.222906852370173 1.0423329348947854 -1.577576963481167 1.1478162987412814
P 1.1562502865201558 0.5357999106417807 9.844289320193866 0.014766616786213277 -0.9358116167020786 -0.38808873892239615
P 8.125826776105509 0.6074673793689431 6.033968899533066 -0.091353609313333 -0.1661480287164042 1.227118119096403
P 7.344947214776017 3.258761634869624 2.362553077128458 -0.6285403634483819 -0.0168972899759709 -0.15595746133664753
P 5.9138664985232365 5.6873050016861715 0.6464956797155242 0.22117349302266426 -0.3035063868946257 -0.2372763121217978
P 0.7730056570676981 4.146978244340387 4.259290663000792 -1.1082393077796076 -0.341956720451024 -0.9994461628335884
