# total energy = -340898.41660948034 ev
CRYSTAL
PRIMVEC
9.01318502746054 0.00000000000000 0.00000000000000

0.00000000000000 9.01318502746054 0.00000000000000

0.00000000000000 0.00000000000000 13.19170735439687

PRIMCOORD
 96 1
Ni 6.456613009139317 1.9375553386626543 11.367676622643975 0.1645151210986715 0.01737063006796363 0.401922816592011
Ni 4.49733589493611 0.4702322758470874 6.00287305897028 0.17796816127978382 -0.625813194325206 0.05843037622275099
Ni 2.698033799018905 1.3658039563328046 4.621107653548362 -0.7969080255239243 0.8633676998090549 0.6623328865177949
Ni 3.4593414723833424 4.373278418363428 4.8565933320516415 -0.512809096621633 -0.5092789719811874 0.09262270583374371
Ni 4.907751268064347 4.494388583483097 2.6733124355530844 0.7100826430982481 0.3253700197369364 -0.37299122115932537
Ni 7.033862434240842 5.954524532682051 2.5819728200643053 0.591664059247323 -0.006386620252634163 0.9748980411805791
Ni 5.156118590386114 4.407618652724218 11.539775275900764 -0.338941587773784 0.2967137894528245 -0.18127331439361685
Ni 5.70241673863857 7.663983201799162 12.345986636295505 -0.11429196327706123 1.4521032725556733 -0.2520598981888756
Ni 1.7260249029111094 6.501480643430134 0.25323354083394384 1.4478465541618482 -0.08970681773852938 0.9880939710455628
Ni 2.8542683455831925 1.5796417674114784 0.569654915528716 0.0820367027877813 -0.45612938454140156 -1.3362442219018085
Ni 0.507388229161765 0.10051593900655344 4.669930273360837 -0.3609463741796493 -0.49079479713407087 -0.004597903783327565
Ni 8.737183124460394 2.366069187013061 1.3146090662621253 -0.47186633566068414 -0.1456113422156331 0.25154670599788287
Ni 6.83244479191523 0.8249542783352302 4.8246821510137465 -0.4297023006981245 -0.2972614344261784 -0.45470499339004916
Ni 0.793010649831798 7.314686235285235 2.4543965961177516 0.040077327636860005 0.14010095392036517 0.024540151233209347
Ni 7.618863198331941 3.8396257684858255 3.9619049436833405 -0.7580573712053138 0.0392939125036162 -0.5175481539685151
Ni 7.6117247559136345 3.769440097890688 12.658234906394727 0.3777665310607817 -0.21463080680814006 -0.009011459469990933
Ni 7.828816326730956 9.007731894751167 6.9643374300967915 0.8923003236830052 -0.9365423242205161 -0.20164622162301402
Ni 6.9981431825946965 0.6190706029057418 0.4839070799342767 -0.5365005267013019 -0.16613877274502356 -0.13557169859144394
Ni 1.8653597278411505 6.423291264669017 9.229854625363814 0.22585778587221103 0.5901118842688546 -0.6460601174997002
Ni 0.09893682901704938 4.815122767138929 1.4920218933192082 0.01172423041546368 -0.47474622831164043 -0.27954653364491855
Ni 6.2506707480081625 1.9746085416697956 6.982041127821586 0.47783669431150605 0.5256808103779784 0.5748657567430615
Ni 3.409732902850064 4.258459456284135 0.27180610958035967 -0.35209509443660647 0.6325628543442139 0.47904151325288463
Ni 5.899309762158639 5.6355208805215655 4.875404750197155 0.05086310539845433 0.043520034769821817 -0.6875916610845835
Ni 5.276020988732989 2.9418224234259003 9.19111054887476 0.23385983024108112 -0.4410951159160984 0.5087650084592463
P 0.23681422195335286 5.293362356425945 12.501754299883446 -0.11926293412909136 0.7749274074877751 -1.1087229322842456
P 4.112941586532178 6.180449024673539 12.50858809665309 -0.9293164958960383 -1.323882357902346 -0.09052648542634732
P 2.5132184432267777 8.350923086788042 1.358996297799286 -0.2926943838807863 0.5160368595303113 0.2794963971332735
P 6.385300690435229 7.930764460813607 5.850798998542722 -1.6715906361251662 -1.17501831307737 -0.3749887112053284
P 4.63953691265532 1.0664760867470189 12.54251642846525 1.2443668788745215 0.41253607333148307 0.7948118051165279
P 3.9361659916455167 6.2185297307560425 8.304694461581613 -0.2737258131980834 0.07888067365730286 -1.1970454680807385
P 4.707027640973848 0.9830230080208885 3.8159913951155198 0.7822522232839625 -0.906880021269393 0.03532027256784885
P 0.03669087297530311 5.550760889989054 3.5328313765524073 0.8228355440229634 0.3765180033656612 1.1121237304356781
Ni 1.380297157606335 0.9863849259779948 2.405995793357268 -0.053450920730288586 -0.21770147531366374 1.0014143423035529
Ni 1.7898382518020268 6.536776275387313 4.693978351916748 -0.3342873768312243 -0.31419806228051694 0.4979887437793488
Ni 5.960076654562957 5.545794625124803 9.205965178861641 -0.8289084896899208 0.9376399281600691 0.31599346361804287
Ni 8.639417108158165 2.388250634982065 10.122036447019322 0.3118537304180564 -0.05952386639724588 0.39187134589327993
Ni 2.2900339594362564 5.367414683330998 6.8613500757984465 0.3696511010424989 -0.3635077071489224 0.5693345425121873
Ni 0.5665579852068348 9.09745815014793 8.963039116246858 -0.25959451600302386 -0.7078861496675615 0.9155207276635265
Ni 1.6098359367313333 1.20073648859435 11.415417660271858 -0.6681942303945783 -1.0225349263322518 -0.2762634920182726
Ni 4.1722303166175525 6.817744287389653 1.605998122613007 -0.21412044283062479 -0.37298993560774474 -0.6039138231489535
Ni 5.509985241629943 7.9728560341639705 7.897875349217143 0.18076346463673384 0.20736538349497835 1.028149701415868
Ni 5.31543564617649 2.8934847129595176 4.9005740689510935 -0.2839004397382401 0.001111487896623892 -0.3326428992492658
Ni 0.6727648491413154 7.36021183207168 7.048184385001811 0.09079773680986299 0.8551185724263853 -0.7242463361931398
Ni 4.893023723984155 4.724098613120656 6.963955271058236 0.5177661835165922 -0.14502333092264702 0.4453127535418718
Ni 8.169388530289176 7.093800113636972 9.17495080971847 0.7774414321588805 -0.072246713280553 -0.15963362463665412
Ni 4.653173861366048 0.5321898099729425 10.46822656870801 -0.10896463752687686 -0.8487625483013704 -1.257614745023363
Ni 8.02026538658858 7.118027554571828 4.770556173222824 0.6199101985772099 -0.09875812930752025 -0.28053666547232975
Ni 7.164860063164654 6.115121460724192 7.090292182084945 0.385333287664446 -0.2105566367387664 -0.6472201992460723
Ni 2.3337569192483807 5.225276757905889 2.5545610209143126 -0.36668533354595556 -0.5003019652935577 -0.5250069242394055
Ni 2.3037610399957007 5.31848210266309 11.350593032038347 0.5243798321783679 -0.927722154825725 0.42241450878745956
Ni 0.9718106060406201 3.3436752709261186 3.65542240794648 0.5207203810489097 -0.21868209405937822 0.4882699738296881
Ni 3.809891271594422 2.487260470796574 2.681820882071873 -0.8046434464949691 0.46164002994698555 -0.4878627110889404
Ni 1.106098047442566 3.4594496306018017 8.041612213638473 -0.5431195746797162 -0.24836059496041743 -0.01023144792002109
Ni 3.610267253058259 2.7591792451878288 7.032710549214251 0.09797702816712159 -0.3757667270219335 0.230744424540551
Ni 4.201487114710761 6.927434747277006 6.01793769616467 -0.5984312027678275 0.5871144922034276 -0.3219787346672003
Ni 0.8495341347985663 7.292180312660854 11.320661146398258 -0.24932527286653186 0.1525386654630857 -0.32009720137377135
P 0.2317695423807192 5.509318265949444 7.919839579430741 -0.325985027613116 -0.3540180224909322 0.3700277676556272
P 8.455989782836266 1.762447182977239 7.941909263907338 0.11417137853879691 0.8688552052861874 0.3706085798597617
P 1.7348488109004045 3.251524468798896 10.324925041115979 -0.052996863912005504 0.3983494974184559 0.10950302652885012
P 3.8744797543842964 6.13134519349307 3.7454947696423124 0.9994939853523884 1.0451768321014838 0.5806425113258388
P 6.955907398286386 3.9797086877602093 10.446961761640447 0.03776436323296722 -0.23922109455299445 0.12683406160812996
P 6.360271076046801 7.702343316612686 10.04552442196281 -0.921540194384729 0.2361720233140255 0.8835678289060138
P 2.266040861308061 8.404218048933803 5.796278243254423 0.7489448673810843 -0.04065788273067837 -0.09575019571913188
P 6.9666961805776895 3.933939734982232 1.7034585919480885 -0.7919488817464361 0.18778077649483144 -0.9268644348111198
Ni 5.298617043206087 2.8834169854579423 0.5135027737786574 0.34571927281724973 -0.5244883327317742 -0.1446536062880541
Ni 1.338223610625713 1.0530644676580803 6.922295429263221 0.3699465207957306 0.891404037120981 -0.6299513848632957
Ni 7.035421715223627 0.6898673674351736 9.207798460664524 -1.0504990156453458 -0.40570413801131416 0.4772977910889005
Ni 2.482699799251545 1.5981458359528702 9.094402680476458 1.0557965165988592 -0.03840842457486933 0.09658451869496915
Ni 6.350861311040852 2.093483436941308 2.663115819507845 0.3211534105524275 -0.6855219230397483 -0.22860500960004498
Ni 4.114627052103167 7.068166615862145 10.34436918483948 0.3971323371819031 -0.23563491986363289 -0.30479142425463635
Ni 8.224828630434379 7.0128076343807875 0.44882776441401534 0.36344137268736115 0.17472831418624749 -0.392663245666956
Ni 7.4287931557596725 3.890144669691135 8.30623751883163 1.3227675275716122 -0.6438800791292459 -0.9007343133829713
Ni 3.292155906200062 8.25116515662919 12.413185337424196 -0.718624362020672 0.5592977271014755 0.11374046164896541
Ni 0.11382751174341724 4.857124208640578 10.184169738250173 -0.1939460247652789 -0.0934914815919422 -0.06105315855757873
Ni 8.578019292812836 2.3865020771169747 5.730107946519582 0.2369397547179855 -0.08354388346092709 0.33593211152349883
Ni 3.5745570145969854 2.6239273930046223 11.31465926659226 0.4410249247997953 0.5900422073731838 0.26562606690908447
Ni 1.2150494261704483 3.2006720797533372 12.632128216414142 -0.4409038258408987 0.8153546622648861 0.15691185483011685
Ni 3.065726675855765 8.465300402808627 7.937568514073176 -0.27259118537300797 -0.7016023735413789 0.3121041558659657
Ni 5.5989093235731335 7.894062772016458 3.4889687123747737 -0.16774571222082726 -0.08729923673830127 0.8873879739830524
Ni 3.031539665637792 8.218212952738625 3.524547358336921 0.6841258140231702 0.2653057074551882 -0.06731867985131633
Ni 3.3798992609250735 4.331961978912021 9.264060563270018 -0.0998037969632152 -0.023084135512973145 -0.17271334063874771
Ni 7.3034107410108655 6.085062489177412 11.409665445686803 0.33080944558495284 -0.9965690983961095 -0.09327448048512968
Ni 0.7635708840856958 8.905702642004671 0.18119205547374428 -0.6156372822334688 0.058051909837409696 0.07423623290675602
Ni 4.6433585030408775 0.22818499875728449 1.5464371943445099 0.4607769106157419 0.14231415952160006 -0.16663088189009367
Ni 6.03757201808896 5.59861188847237 0.3765924955790764 -0.3164683463719324 -1.042690061123888 0.1653083064239282
Ni 7.871412638434131 8.508644808856143 11.48411976063713 0.0650180567425977 1.2525149619029525 -0.17261486738767046
Ni 0.17893335134492172 4.779971346139695 5.661933117469298 -0.2209942871323226 0.37905465374458586 0.6808294026600855
Ni 7.8573791095890515 8.677443735131439 2.727029214750837 -0.1261966851344472 0.05943876288260732 -0.4498476652977479
P 8.429554111607867 1.6420851122019127 3.4769252947493436 0.03849635630298531 0.014689226581058574 0.2542175679618267
P 1.912624869307813 3.1488012008172883 1.7194335608145097 -0.031090807867533553 0.54019982992976 -1.040544475535795
P 4.567746895153038 1.1303074620076792 8.220399551388475 0.28746038917535655 -0.15117598078760416 -0.18963891274949277
P 8.552394808222882 1.4797666658492956 12.365101798771192 -0.12440231223818575 0.4788054859826787 -0.2648107700966407
P 6.363687073113136 7.5755458318390385 1.319975516534675 -0.5087076728587496 1.552653717876926 0.6419836334374813
P 1.8722998801922812 3.1164438671282495 5.881799847908585 -1.0442442929848854 0.2442272895183342 -0.6299822381012311
P 6.852679391951969 4.016608666624533 6.072037535719465 0.12893362444963602 0.23020089333225516 0.12941879161617065
P 2.3596337730147394 8.507518160747193 10.187929137660117 -0.18370249266039973 0.03918978282558412 0.15123280216746857
