# total energy = -340892.59070865833 ev
CRYSTAL
PRIMVEC
9.05380619874958 0.00000000000000 0.00000000000000
0.00000000000000 9.05380619874958 0.00000000000000
0.00000000000000 0.00000000000000 13.25116054462896
PRIMCOORD
 96 1
Ni 6.4677946262492485 2.228684909980521 11.825163474027807 -0.5809983520033607 -1.0184453296439104 -2.35405191796172
Ni 4.455640542995629 0.09620574363606199 6.055554916068004 0.7494999685536059 0.5265554996734481 -0.3572439856273976
Ni 2.937380636392754 1.5881643435136623 4.843590702167384 -0.18441725933923722 -0.4143168193809897 0.034727376178856316
Ni 3.597729038222212 4.235651162337899 5.0579812091318574 -0.12756194091309 0.43924263608839187 -1.2906084263405644
Ni 5.166282837719715 4.32948480877533 2.652696378855122 -0.5412205578847905 0.9617609895779887 0.2818561556147017
Ni 7.107400758299841 6.179086857280046 2.4188401887721156 1.290937527545209 -1.7308309098437225 0.9030441924630705
Ni 4.993780670065105 4.66765352047781 11.501383976362668 0.9394170746651499 -0.48627891154158837 -0.699563488734479
Ni 5.372519486909049 7.9967470778581635 12.312726324071672 0.03226143113686702 -0.18170397417313225 0.8155768055780213
Ni 1.8431285771420403 6.179910753635295 0.3888437698339878 0.2339883853991454 1.3600204983857997 -0.5554107333422434
Ni 2.69918405166462 1.6860903103090368 0.30814900681126106 0.5870026492159117 0.23217935721486463 0.8881911866106382
Ni 0.7344637639581201 0.09487664490034074 4.7556954471520205 -1.6371054578641033 -0.17711789746434659 -0.7096962062931068
Ni 8.838370785454723 2.349643759498476 1.4136205425831316 -0.7915444472191658 0.07497156841088379 -0.5719275000503441
Ni 6.998374825223852 0.5726532359289404 4.777003579812238 -1.0754333169931802 1.2492445186817969 0.5112288966187067
Ni 0.8094039278226423 7.394614649262272 2.3867462569030105 -0.08495644753773755 -0.24851511826041067 0.819871319188317
Ni 7.817798600259183 3.805468619224418 3.703262012904187 0.13738818297489241 0.4343498267724648 -0.08480423823058944
Ni 7.516750493573441 4.037454292966825 12.635643899395934 1.3107974996939296 0.4770514794060494 0.15522572537694557
Ni 7.922985719548075 8.961122288580803 6.943409168380775 -0.4213459583136292 0.2258762978149723 0.24243265951175672
Ni 6.862250850485644 0.6886261544267203 0.36029802457611654 -0.3406485431625617 -1.3496103587960693 1.0420706823723345
Ni 1.6762669306887537 6.588617668675678 9.33557503361623 0.5181505634392044 0.0407445289072137 -0.8598673999652803
Ni 9.084589042388915 4.830612976501289 1.4128256184074075 -0.03935973274454512 -0.2919204818292392 0.3545276151374991
Ni 6.399193937417096 1.9367177708147272 6.966758028936304 -0.0656790873653643 -0.168792922538419 0.2669031338492952
Ni 3.4102337676632803 4.449565439101426 0.22498979776766714 0.8768932450993155 -1.0715514654402707 0.7788066879375233
Ni 5.9249736814252225 5.553061434381918 4.825966563209925 0.2790230570412808 0.1870456981010198 -0.4225577192335432
Ni 5.124689652488766 2.819183197735801 9.056121159863517 0.8467429467681804 -0.8058834895496573 0.9189652345687012
P 0.15000527025324698 5.545899873755518 12.443157265533166 0.20520951349424013 -0.3522794425332707 0.3404281996216395
P 3.8963869400971203 6.286926741756719 12.394950274944966 -0.17317125411177273 0.7309396890529153 0.9109122823572376
P 2.578686946257849 8.46685690587989 1.8167738529607667 -0.9741076840687998 0.12142574610836505 -1.214098052687651
P 6.26935330411343 7.820197858876119 5.713714885991308 -0.11685972400423744 -1.0467467476917651 1.5215842501656311
P 4.674308067962518 1.033003060973097 12.59606246988077 0.05067052977167403 0.9274352197129253 0.2551470217546315
P 4.0747016512689855 6.0300793164592 8.151702969287788 -0.6744029303084514 0.4966430283847318 -0.2398618134607869
P 4.82748035959012 1.193889195399299 3.697816148534048 0.00542477055999711 -1.3726122190078813 1.3610594811732752
P 9.175398717588397 5.675079579213764 3.5324411370426514 0.19408255034314317 -0.5855921420216302 0.29578484988065185
Ni 1.472375217279746 1.1981806994914779 2.6429970363784316 0.7330922166195439 -1.1322991769422885 -0.27423720561686316
Ni 1.6360680315974574 6.678531017071098 4.852694304202586 1.0282219494147002 0.15937214344515133 -0.5129222251607295
Ni 6.0513014379614525 5.611775366951075 9.363985877163186 -0.7982992494444962 0.3936019554311415 -0.2299802926810168
Ni 8.515240445687073 2.5159259623612575 10.201233880270824 1.4324343333718363 -0.3849843889654596 0.9395299460939304
Ni 2.3874796151972437 5.1835665535677515 6.8040466472000105 -0.8719418146313113 0.4681269232229099 1.651973119004555
Ni 0.5377245573694106 8.959537872513016 9.33171901759754 -0.5555187196750174 -0.18252492741253082 -0.17702868018464996
Ni 1.554167301601992 1.261484911754168 11.482766634875858 -1.158892868270417 -0.3258940105612065 -0.9308280474445582
Ni 4.066453633910388 6.783745297778295 1.4669565143279124 0.4188987823247172 0.8448652701294933 -0.049079016914838056
Ni 5.680720100415089 7.644381998188306 8.064139083575746 -0.6183130292934189 1.2353291941522853 -0.4138421937374163
Ni 5.548652230810418 3.004541770054744 4.812357787258545 -0.8467565736149352 -1.3614721432306618 -0.902303457642304
Ni 0.4338674421968498 7.33901522599208 6.989828032263901 1.60573568530357 -0.7192357703524258 -0.0698239627716733
Ni 5.162434970126516 4.388370763660419 7.243084718061508 0.0680946387853924 0.5445820181578558 -0.7267169092208194
Ni 8.033414992569819 6.860965210019211 8.94408302549751 0.7687513605840502 1.5067885799136953 1.7962438880318938
Ni 4.580872788993559 0.3947260276582254 10.4246745718145 -0.035207401139068395 0.4256399577032928 -0.1010978331842904
Ni 8.114772494199187 7.1960375200349285 4.7754264067893315 0.4034572509586664 -0.02048269333438408 -0.21314882294597484
Ni 7.193828391346129 6.127987175642371 6.983917707640749 -0.19897715943128313 -0.89294155681143 -1.4065415247654742
Ni 2.4848623536265193 5.204471791856446 2.5605883878606637 -1.3219488883250587 -0.5991603676243681 0.03441550136539234
Ni 2.4434774059359077 5.242769391666398 11.231272725126242 -0.8176486005053853 -0.180907703524082 0.0814890578144274
Ni 1.25686747064233 3.272081740358305 3.8384634048006365 -0.6052387126079641 0.7467437459647075 0.23632937482749622
Ni 3.5533110654875495 2.650891049918455 2.697856763690119 0.7749135235307041 0.11380319656610077 0.09992129637768597
Ni 1.1693533808638454 3.3384189776650453 8.075866478619204 -0.8965557565252494 0.15663160458553668 0.7301986971218327
Ni 3.6968138921985965 2.5480579202159896 7.082493737714221 -0.07823866919792978 -0.34659833298809334 -0.2028176162232959
Ni 4.0997625865583345 6.73666550604975 5.982236288876286 -0.12066187135914704 0.2526049720590682 0.0059703586508219764
Ni 0.8588404252794453 7.360871113921448 11.49715765967442 -0.1457308985126329 0.7808522576126423 0.09535681693545513
P 0.3693744651930139 5.3665349210758615 8.064749310106995 -0.4534333257664771 0.8282680278924446 -0.4812302933740874
P 8.619893390415967 1.5485901570433795 8.198916757346637 -0.9114776679424044 0.5502489866356459 -0.39090178289115907
P 1.8866954921031478 3.1336490450641783 10.191825164969995 -1.5372854629509718 -0.19186908763159216 1.7174030664735906
P 4.033108466038036 6.062663964619015 3.6374969761430704 0.8283873270791282 0.01910586759151548 1.5944621692722798
P 6.789630271744364 3.8935440449812044 10.290321521549773 -0.17490494897342782 -0.801967956545335 1.325944125527381
P 6.211798258725283 7.8388758608638085 10.2277760182384 0.5108938818767911 -0.19303842534934498 -0.8209475829716313
P 2.259603657817633 8.552107544132964 5.966692714560986 1.4381313837566134 -1.0923812577014285 0.16921458345686988
P 6.922503930092081 4.005349496530398 1.588311015172509 0.9384251430655257 -0.2803680011049494 -1.0160917418100694
Ni 5.263095186364587 2.8145657566239626 0.5295254305637623 -0.373974153897885 0.362749231716343 0.5440623982089597
Ni 1.3579351081549744 1.2504302145040616 6.957296801560086 0.5652845408125297 -1.5981941255108862 0.19936436756737277
Ni 6.787330604994547 1.0740168026135413 9.507217089691183 -0.5004873418314865 -0.9420210879469001 -1.442654725548264
Ni 2.6420545351632505 1.3618916214213925 9.083100596665803 0.3403919470670654 1.6451545534208247 0.7507035019434039
Ni 6.506309517405639 1.9647845697298216 2.6696052671305512 0.6311577464665711 0.02515181667527926 -0.8945448967428078
Ni 4.116865226284339 7.0254094902433595 10.162938091222092 -0.21279658181287867 -0.5889260914908696 0.20483773197711821
Ni 8.41054223192767 7.158699623671753 0.4154094476974296 -1.1267013711395368 0.11886801268351786 0.22833632931969064
Ni 7.5070538672385805 3.873209196476913 8.20465505965386 1.1394650985631085 -0.26738393014045564 -0.22926835421565678
Ni 2.8936779143401217 8.594950154605941 12.460569545427846 0.8922033930938247 -1.3776232990692274 0.25540258940886335
Ni -0.06788000586646067 4.960127672785296 10.39411707084084 -0.0909615160812369 -0.46978939852699736 -0.6629615212407292
Ni 8.774577667662545 2.5830418269927398 5.879566127683651 -1.1996672219743016 -0.58720730902755 -0.18261363047159518
Ni 3.716406328602553 2.727377603865137 11.367388551438957 0.03675237702868509 -0.6925574897302912 0.19076119927939406
Ni 1.3499134359489184 3.456154672210815 12.516357287864954 -1.4805044494061859 0.27845587168390107 0.23665384804645048
Ni 3.003310452424921 8.419360639070671 8.068340049606908 0.46886791515399245 -2.062195199490881 -1.2152123687977523
Ni 5.768614450049842 7.671163156636967 3.592827307598782 -0.6815917347474068 0.5387587266078593 -0.33124087669541663
Ni 3.511066006217282 8.261335507372587 3.797848936009275 -1.1676716429043117 0.5131934765442452 0.38714103029714614
Ni 3.3670018435279334 4.254102819173048 9.246739088146905 0.4795706462834773 1.1503256954266963 -1.015859314084289
Ni 7.226983429290346 6.490918047032845 11.638997302204595 0.5069680644598237 -1.1515616247163265 -1.2594309722964954
Ni 0.7904190018081063 -0.09958552945380544 0.5419898054238947 0.003533209964239076 0.971846655948765 -0.7149168312620978
Ni 4.465871343890486 0.4256674100105915 1.6321187613759205 0.9515295416579677 -0.44906476438513626 -0.3688813127560098
Ni 5.997340753595657 5.702123298039374 0.20951684313995872 -0.8994294785286187 -0.13672972345528708 0.920464187711731
Ni 7.776830127649246 8.804563873471187 11.262651406313315 1.3235486287120108 0.6064797841039169 0.8484887258146936
Ni 0.08523253064087027 4.974115803212335 5.71240298948718 -0.416630812226147 -0.24887173026888104 0.243780946009535
Ni 7.799591396188778 8.708910412007326 2.770486396237502 0.6557596041756514 0.15209977815345416 -1.652244884608703
P 8.586629706798531 1.5947102453251505 3.6205482511207934 -0.2096438951165099 0.7334208036035562 -0.05430478409015163
P 1.897406144721392 3.2560112345278878 1.624194870275762 -1.3911015360613201 0.6249647302819817 -1.3550775525582277
P 4.726095838863919 0.7541005640119743 8.128858405732123 0.8394865223160832 1.8077130650137578 0.3410442359390836
P 8.587915347264964 1.4301663732338847 12.519961608074018 0.5533181124792729 0.7918300967803846 -0.21302978086960728
P 6.20847551188598 7.628284330939585 1.1949512068550217 0.7514434654332219 1.8489281057994866 0.07175511835611512
P 1.8793981243852231 3.1623496104063875 5.981189668890936 -0.021238083443169874 0.7231183932362837 -0.6181117119158904
P 6.91847498637685 3.987169453878298 5.961908683416876 2.0157790741201866 0.36922712613120284 0.8472273426037666
P 2.5191762787517478 8.558997490576315 10.226503958481118 -1.6137441574303433 -0.19388740361320156 1.0427648802258815
