# total energy = -340893.5786020309 ev
CRYSTAL
PRIMVEC
9.03748296555378 0.00000000000000 0.00000000000000
0.00000000000000 9.03748296555378 0.00000000000000
0.00000000000000 0.00000000000000 13.22726984286897
PRIMCOORD
 96 1
Ni 6.473440695788934 1.981522394896883 11.636346929549955 -0.43187848241383686 -0.25626210919568126 -0.9063891976759035
Ni 4.728230409029404 0.4192831835131855 5.982363746517636 -0.45539790569201577 -0.7981285281945867 0.33855875051306855
Ni 2.817833006141126 1.477285062733217 4.868137877426711 -0.3905361720216242 -0.4191353238155556 -0.27286192253589137
Ni 2.994163338933994 4.099718646737364 4.620391545669371 1.959287823901677 0.5425518751017043 0.42124722795223585
Ni 5.107443199967273 4.418289926064339 2.528683253051001 -0.4219658512858152 0.5702346857289534 0.4244019715311336
Ni 7.099232175667431 6.103771487006222 2.6446341612429185 -0.1611120089543935 0.23382049236271343 -0.37434876362848435
Ni 4.831881302720215 4.739608600254161 11.205151439560716 1.1235692532684585 0.13703594184179627 0.8403182741887592
Ni 5.776822460844181 8.013373591381571 12.336929004583014 -1.1954138460145862 -0.04969222501880474 1.1702823410542813
Ni 1.9395703983398385 6.514190707093482 0.28848820932709646 0.048217697355807276 0.5275407464048528 0.014049536114530643
Ni 2.6438795314039454 1.5443251123799546 0.41295784909046357 0.04062137306578811 0.6143704997059032 0.20622767034610937
Ni 0.5639796142059625 8.808373867368974 4.61738839003475 0.6001430432526116 1.0686975409312434 -0.07407373918696275
Ni 8.69066968745537 2.6094376833042268 1.2588138499864838 0.6545362732915114 -0.6071212743426577 2.081915303627627
Ni 6.940895471729599 0.6018502833943811 4.776222155543164 -0.5059313956651932 0.5191486656864156 -0.35331328311442384
Ni 0.9069746916146718 7.648205049183395 2.3610677652128853 0.22740738974751804 -0.3291829657251234 0.25073963671555527
Ni 7.455995858581236 4.010256601515868 3.716254623748562 1.4442616650240676 -0.6161471319903518 0.5706733159282688
Ni 7.65976399007018 3.869054965538431 12.617122611919578 1.1483171496370996 -0.05025632505239087 -0.050601624206951565
Ni 7.9449869567527145 8.91738398853896 7.052066455109145 -0.083269803863934 0.36079416487250127 0.11957660871476827
Ni 6.92245900620259 0.6759992172487385 0.4101480955942151 -0.39966435957513746 -0.16871810343642554 0.7869974512784318
Ni 2.2034287549704867 6.26195455373133 9.27693302374464 -0.6482216439273932 0.47627757735450227 0.09175187319301617
Ni 0.040407490695002435 5.133462113816418 1.5829205877131114 -0.29874701783276936 -0.8511228210034308 -1.2605008083219065
Ni 6.448000180858283 1.98070902141775 6.845442478960135 -0.8389494188656907 0.24829914559486269 0.60015178500336
Ni 3.4745688281590716 4.527995933433137 0.49650305412542384 0.1625130030669782 -1.7066419713023446 0.20574276028989083
Ni 5.828200552276064 5.557500820937599 4.913573823719373 0.04035037879258857 0.5416828422331897 -0.540963704678978
Ni 5.301351437392508 2.6302961943024292 9.532813994041616 0.8515303408544947 0.7425173665881858 -0.7235045729311088
P 0.3030982045089401 5.54432417057565 12.489122027508463 -0.4700429092987002 0.040132349244511534 0.18618232165946
P 4.08853928014084 6.304024037568693 12.737252452297616 -0.01138690168070297 -0.25515370662285086 -2.461333768469535
P 2.693070551925271 8.458379259298173 1.0730863422647028 -2.385584698462679 -0.015341515453076805 1.8637425451044998
P 6.338800272543167 7.895642299018664 6.043036889319383 -1.157281300808923 -0.7899745316288846 -0.2640250409705518
P 4.510806640574132 1.0747013404949362 12.691935800781891 2.4575133662821806 0.7933398485566918 -1.4306332756073556
P 4.050672225945662 5.892610694340272 8.17855347752384 0.19000143829523405 0.3768576460932671 0.44751490339951316
P 4.727624897661606 0.9314210834041602 3.7378144434354397 0.44831580203425375 -0.7696260498795197 0.4553179443836997
P 0.12121524209852612 5.970712623303214 3.553625115337529 -1.6229497351890114 -1.3112070764275225 -0.7202469852257596
Ni 1.594410843728326 1.2416598033115753 2.631763881558109 -0.9885382576718331 0.01616272580279152 0.4690430072792761
Ni 1.648391730293433 6.391823185899518 4.739952928360328 3.1037130946835387 1.1386037790040777 0.9272758113169256
Ni 6.059234770282157 5.665236656990276 9.232846373679028 -0.25418491495167833 -0.7468830997560492 0.2537820230863049
Ni 8.613923380957651 2.2008711472527693 10.192974118406712 -0.1450359293281373 1.5723529960780664 0.2742644593103728
Ni 2.250694791591198 5.216462358620359 6.9267246982264865 0.9913363892422604 -0.4318872241645852 0.7002697707728843
Ni 0.3266860354037884 9.230885239846009 9.062253938907286 0.8581902693731736 -0.5626303910191343 0.6065975406287036
Ni 1.336499150978448 0.9895140247804379 11.447765384664727 -0.6211335294613497 1.2071131367293855 -0.17160673783813027
Ni 4.067075257774838 6.709906441139013 1.6289647566185035 0.5702969064254566 0.5640085023135836 0.8564421763338154
Ni 5.695936987085984 7.710030471080581 8.10781348229536 -0.4494074924365357 0.6131075738330796 -0.11768016302300378
Ni 5.3376640444942325 2.7666085519219688 4.717651131310818 -0.5269637908554603 0.7368825368999115 0.22261253946203596
Ni 0.6544782587391973 7.375010972508923 6.826858702458574 -0.19783713228956895 -0.5088696523579107 0.6174689361255689
Ni 5.327795112947423 4.436129917706649 7.0572648153891135 -0.8269490519707049 0.09135412353396524 1.0433233238325128
Ni 8.066333242356212 7.1680254970358535 9.092306281464618 0.2259194923480819 0.1455663479103106 0.10185348040339232
Ni 4.5627540934414075 0.5386231478681557 10.45046918318561 0.6509004763111371 -1.0254911807470983 0.1341017989141368
Ni 7.865881867165508 7.293565174798435 4.754131835598231 0.36078285201859156 -0.6726095858534544 -0.30350998643905147
Ni 7.35439647355446 6.034327466854492 6.896315375086645 0.09335624156565857 0.291806067738562 0.35095172486078263
Ni 2.2651095771380496 5.258486655042215 2.557558915308522 0.6714934699711403 0.8130154726087482 0.272641321884653
Ni 2.452393339449905 5.097276031478114 11.465821372153163 -0.5168783815950001 0.16288504169441625 -0.08484049078516356
Ni 1.0435039488286464 3.4880346779802687 3.6514405061897177 -2.1265182870489827 -0.5766488167854134 0.31850851673041275
Ni 3.789995063366733 2.4317065406306297 2.545733368670243 -0.7788586242213811 1.0083246962701409 -0.11625577187165138
Ni 1.126106544376123 3.2283877884749073 8.26707020201292 -0.2112184386924814 0.6307047180895524 -0.13789571873893025
Ni 3.681861578057591 2.7729709400254063 7.088017562886811 0.10448217627549103 -0.3586717192128597 -0.1369652365048609
Ni 4.0507083758780675 6.882549480826479 6.1718842858971055 0.6153413482596048 0.038640852300649585 -0.8764885534617293
Ni 0.6273775581628058 7.237885241410251 11.133551979689285 0.5359901627237866 0.5333930914205717 -0.10154571935498641
P 0.39883858924103 5.618359232142928 8.184585093745763 -0.7144332067574599 -0.582982472312925 -0.5619148530093484
P 8.305230070660588 1.9388293247255175 7.89175979627827 1.1156299438167239 -2.41915147867453 1.0510649154511447
P 1.6988751108982694 3.092970141682414 10.480336257339363 0.4235882173805866 0.11568138742542014 -0.5614024321493041
P 4.013446833050689 6.001711190341271 3.854915823226175 -0.994184657324333 0.1595462071291704 0.004062085884515585
P 6.844348039756547 3.978318136235257 10.529595058983949 0.45735091565332847 0.0340995127868703 -0.4685138742486834
P 6.2901605384910315 7.789921821697615 10.3310008865706 0.5746644393655329 -0.7351113039321017 -0.9706508358684508
P 2.372203751890522 8.29402359161476 5.890076584078618 0.19369997019274382 1.2470626805391298 -0.4027203727926419
P 7.0093544062232676 3.896836188592364 1.6083303752012168 -0.8089914390510197 1.5145142306927273 -1.1492111222062789
Ni 5.378368868383275 2.8292925347137956 0.44493246430348016 -0.6335622421430057 0.525361736475663 -0.12604936092330551
Ni 1.258785833788869 1.0253386077946827 6.987358076102589 0.6226129422203536 -0.3053503820818999 -0.4896375436011761
Ni 6.946769835745556 0.5919705068678491 9.393411720949684 -0.9000509141627016 0.2755649232893512 -0.9495307660603839
Ni 2.791091093643863 1.489413365055396 9.120149863151951 -1.4897352239758344 0.2659340850678065 0.5676011047608482
Ni 6.398221723935361 2.011852188185431 2.5040145391772164 0.7171899435669906 -0.9319151098611498 0.7851462570023059
Ni 4.14290877847931 7.019503499746223 10.507796649743193 0.40989683593642307 0.2018719644805749 0.018160730069426787
Ni 8.212839880914215 7.372100902950249 0.3886144846083319 -0.5692448110118583 -0.9752104302146754 -0.2702777067484829
Ni 7.719872290178087 3.916628276584593 8.118897955319317 -0.28816230033838763 1.2152077408120618 0.6922186183336336
Ni 3.033042591236537 8.679273421264412 12.143176211867123 0.5118601024448023 -2.05154800418968 0.44395495396239676
Ni 0.1763077390851144 4.845066990565266 10.33933344599016 -0.28297355704859656 -0.757457789948102 -0.6489153275603082
Ni 8.677429774711712 2.3878747475884783 5.641351492901389 0.11035920388155832 0.22737139430326 0.09398307651638006
Ni 3.661599540944085 2.728199248740702 11.50705037006209 -0.474947288578853 -0.34797284473811685 0.4055413871812048
Ni 1.219924656452529 3.2530239674095265 12.673047461099811 -0.5267586168231896 0.7576922745564112 -0.23380506574374574
Ni 3.3061101431475874 8.348230415257403 8.09089621767771 -0.8399729750341984 -0.33770591559447 -0.021853862650297845
Ni 5.48469485707212 7.709912983800262 3.6162431245027156 -0.3433667134246732 0.8085438099906398 0.4907963397959676
Ni 3.016982983765217 8.446540156435242 3.424262582223024 0.3989349376082807 -0.5324687798340894 0.4824201999171304
Ni 3.4148672147907315 3.963794900891188 9.305781573552856 -0.4530466318510198 1.105289224012348 -0.5623087460136574
Ni 7.3409938861149735 6.05637892562209 11.46677301912375 -0.15341361186887129 0.39400304752430204 -0.5188650730077258
Ni 0.48999606629236225 9.293153498415165 0.7350483243371522 0.2507962009851036 0.023623295845894798 -0.7781451430941243
Ni 4.620404198145713 0.36750111658666734 1.510475219423382 0.7202464710051273 -0.9014516511649701 0.47980821621558006
Ni 6.131471372712241 5.507794663879489 0.23737401240177727 -1.0247810420539512 0.8758915433076786 0.9909113858897
Ni 8.011331120200639 8.961875517847519 11.502553318470797 -0.002191351224363968 -0.976961094357195 -0.559400828338243
Ni 0.23928815132266953 4.832188577145666 5.85300121340313 -1.461267969774077 -0.6936538081182634 -0.4420639075872709
Ni 7.661128650018503 8.704424736735815 2.566222246609596 0.647015282324118 0.14039714500454528 0.15375145482426425
P 8.524009461581082 1.6088165917920765 3.58899511295177 0.41584534021037417 -0.3453081534217602 -0.9251001438218455
P 1.815539980255203 3.3408411907065543 1.623052435173519 0.736781492545673 -0.44278458780337937 -0.29557479075237486
P 4.653842885621168 1.0788405077554113 8.14962539786433 1.3292325664706657 -0.1935585595188731 -0.2995648857483744
P 8.57475492919586 1.6501721144644235 12.588988023276377 -0.5118441616052023 0.6989114569727769 -0.9674444131160113
P 6.106175457511214 7.638381305052092 1.3996169329591457 1.2631037931623923 0.11851679999168621 -0.40164899410533406
P 1.8331540348199766 3.008587161963947 6.056198175960061 -1.1594140308812095 0.796447540947738 -0.08855907728733135
P 6.943805541288272 3.9539892317260885 5.823848100414394 1.3058692091543767 -0.17713383830394655 0.5392937731757229
P 2.2147075338811266 8.552369083553508 10.12450976142318 0.37113257068403177 -1.2736270612912195 -1.25049818858324
