# total energy = -340863.3525836429 ev
CRYSTAL
PRIMVEC
9.31009815786028 0.00000000000000 0.00000000000000

0.00000000000000 9.31009815786028 0.00000000000000

0.00000000000000 0.00000000000000 13.62626973317213

PRIMCOORD
 96 1
Ni 3.390700547919349 -0.023163524484682257 5.03859911303918 -0.524840059644238 0.4077792753727881 -1.7012665659230444
Ni 9.348269668436275 5.597789683143108 3.461835284727091 -0.40222157877935244 1.5127831069342335 0.35197193859518094
Ni 1.7559962540614509 7.407467963803706 13.289509843151205 0.7379814263910451 1.099664678736719 -0.8860075486957579
Ni 8.341689774260074 1.2784999342180492 3.389806778485856 -0.4646394788949417 0.23025128695421637 0.8226537670294607
Ni 7.101947779121498 0.7944939936673765 0.4246726843043382 -2.1710569928913066 -0.8698551073056116 0.393381097669587
Ni 7.184053535725362 7.1545963848131695 2.0200539161180426 0.6211893223999495 0.5459524161428211 -0.5405692974540368
Ni 5.956191225973626 0.609832849619374 9.785201890136687 -0.30242523801530496 -1.3260456841022517 0.2335268723816946
Ni 2.0309700063343974 9.552347022417077 9.879236675648196 1.9920616758985885 -0.7418825612176643 1.2858590845810371
Ni 5.41553519949675 1.9422820102567915 11.747384235436085 0.12314144324789113 1.0203626012712812 0.5015924019702072
Ni 4.235117150506244 8.882187529066435 13.535124200543748 0.5137879155951345 -2.283147577641674 -0.581348793364244
Ni 6.859447649598781 4.567031463771279 11.185995551131663 1.23143114464946 -1.230057404230385 0.913482099966943
Ni 7.636840854772 8.363494024397985 10.507530519118324 0.815180598580867 2.425892654053106 1.5822283462102493
Ni 8.66766424483169 0.3808156044048234 12.493014178356736 1.0433333511348417 0.7784225651252271 -0.9085170426521838
Ni 4.92310548203541 5.541696341093184 10.325510649948257 -1.4399386121686812 -1.4721378226090451 1.5677334950281838
Ni 4.345050790825829 1.7759477946445192 0.39662973731868245 -0.06264518563504695 1.033835953167368 -0.13028679604342078
Ni 6.285619743001759 4.357665973975646 4.104082172467796 0.7599985540920846 -1.580376123492859 0.5442822275292497
Ni 8.551809382015216 5.784391982679478 7.245564423956008 -0.8273776548676912 0.5640059312104222 0.5881136228919033
Ni 0.9061136927828525 8.05987309976195 8.588474411004595 0.9151697720820109 -0.8960471923199471 -0.5115253448132029
Ni 3.914747359090488 7.84188645897242 2.442781720894708 -1.2131151199490915 1.4510038688439075 0.4596697935944922
Ni 4.004869110300988 3.474370401031824 7.0894080077676325 0.3799313999225844 0.3628417914301493 0.7366907326040797
Ni 6.223633108749745 7.111620971219402 9.266176945969983 -0.2063261435971866 0.4645728873230644 0.6659167472143112
Ni 4.774488383422474 4.164760737913501 12.614683197540044 0.47791742695077044 0.11811159413346757 0.33891587674217116
Ni -0.24820535773984406 0.7283401594317019 9.860337176169136 -0.8269385104477435 -0.33146841932519044 -0.5674501810052808
Ni 1.051138024475113 2.2890273100588434 10.961080335212912 0.5642185614418606 0.7221711988316659 -0.21101686420463658
P 5.433922643571207 9.227322181868548 1.6223982059704969 1.6376001381123344 -0.41183647616129715 -0.8755336457476276
P 4.466817566040925 7.285133272594412 4.520528453944696 0.5020292323973097 1.1304011885886276 1.107965999513563
P 1.8988876422410743 9.406364681613292 3.282745303481192 0.3836692696984618 0.15560342043133846 0.2903181703391258
P 5.532116249977936 8.548969802044224 7.999178707149192 -0.9328396785579482 1.093742142604697 -1.3828256692057734
P 8.279898652071633 2.124406152527432 5.738158965702595 1.1240068550265092 -1.2928013202268251 -0.9007574533114228
P 5.8387908868450715 5.586589634929654 0.9427498604676086 -0.7114702674743941 0.06485813412596572 -0.9469486071555046
P 3.031628678013711 2.8260989487034838 12.366752487699035 0.3263930616848121 -1.4245816700966367 0.23811629152458993
P 1.3282810296439316 5.563742653786001 6.590072990422735 1.6421291363309394 1.662292755763008 0.28690708777504775
Ni 2.291326904330434 6.914898594868383 4.758429394924232 0.3523195517425868 1.9215730829597228 -0.5232374910438086
Ni 2.336052616398124 4.508778178923748 11.230430788133468 0.18960214597428637 0.3094500060725703 -0.9908900457334613
Ni 2.6073488798561795 5.543297677994858 2.387636146848217 0.21024990413162498 -0.16099013866454853 0.2704309444968956
Ni 5.009624225217143 5.776012894240485 8.07398720873252 -0.2359614499651162 -1.7005628549878005 -2.516436365870634
Ni 1.2168484635035934 2.036751577357302 4.165087522362622 0.7922880102534097 2.6689848015257325 -1.7672205042163498
Ni 3.799795575805773 6.499454079964855 0.5557104553722666 1.2819340384950182 -0.5037760398850872 -0.9437771514060584
Ni 9.423402161439244 7.248879749948369 5.551151676891674 -1.1541471260553156 0.33988723951650496 -0.37437498888072945
Ni 2.374596423217491 9.517806557851896 1.1013390053327716 -0.37721631498426644 0.9888383054107549 0.8155752629161244
Ni 8.351800540976457 2.710933033158661 1.1871250437810064 -1.4411334038077308 -0.5890279071760566 0.7385514399619022
Ni 5.895154221744696 6.420271694216374 12.415371682861377 -0.6132638969052858 1.1422552597137359 0.2280259971681234
Ni 2.4933560366928154 3.0225792624995993 2.350804467099884 -1.2326063959044837 -2.2475971913408905 -2.058546804105016
Ni 4.4076705117599015 3.8970395521894163 1.4146107778308743 0.8909798050993688 1.4874513130376639 0.31668174793431914
Ni 8.140060976123111 8.055832517114702 7.6846305201788825 -0.6482180443829674 0.10075304825036197 0.009541620941848085
Ni 4.1319519516257115 9.457104717160526 11.356541655199267 -1.048696415218968 -0.745322954357781 -1.1661585486938946
Ni 9.346686951731133 4.076091362032426 5.873644170711976 -1.514891668636804 -1.5248852895144063 -1.2433052703792264
Ni 3.973819932585387 7.6036596645535885 9.671217426061762 0.15710957266321973 2.5356800445915946 -0.4482898338923247
Ni 1.7198358323980643 0.7905753733074076 12.43033301077411 1.5169359527603423 -0.5982908205352211 1.4750879063763047
Ni 0.8193500940167353 4.339585763143953 8.439089229284752 1.3374999486857804 1.3621090054837122 0.5441572719156111
Ni 9.160401195535792 0.03732232192692694 1.4685851415155595 0.5260132540167327 0.6282452008054664 0.5241183509868651
Ni 0.7399973334699941 0.43184239097863636 5.412926509962744 -0.6723262502850809 -2.005049089297192 2.1738672086465916
Ni 4.297271366527039 1.079943468508717 2.8475494151073057 -2.506392608481387 1.4002415506893755 1.127365744196413
Ni 6.195693503854836 9.014819188957425 3.6854703621343288 -0.2271500223210733 -0.2271217401862992 0.012860400902435915
Ni 6.438445006030723 2.977248394044648 6.352321942025275 -0.6895906937924833 -0.2397875085794257 0.10201957366761139
Ni 1.9890745641394334 4.818106193796565 4.5625933399280925 -0.28091487474735494 -2.741380124569008 0.6601083680626503
P 3.7343828253920357 7.0293476328467595 11.739045180419636 -0.010601429664930127 0.1239323145803027 1.1348216862538263
P 2.4040535741296836 9.66323029275975 7.057958495826613 0.8169343480471801 0.3833514813477269 0.16084178601214233
P 0.9757820891137712 2.035792637235951 0.8851212832136959 1.4195469358862067 -0.8744393842421843 -0.7494212927968706
P 9.395658068607913 0.7568067158884401 7.640549066911169 -0.5656357535043612 -1.426979223794536 -0.6837072384285129
P 8.291126630579885 8.096545576829941 3.687445964986278 1.2530417809407 1.6209694715341891 0.08120263692226015
P 0.38563544227689733 6.123028186892238 0.7537232113428908 -0.4811585595958875 -0.7669685576520145 -0.17818336261438344
P 8.271882657464998 3.8194398831460776 3.0741953782936213 -0.9854354503767931 -1.0325650568747442 0.7055207347591784
P 5.220321059064749 2.1284560452729453 4.551242468122737 0.2957295711626842 0.053670235829946275 0.4796711764170836
Ni 3.9990223685902238 1.9331581139565548 9.531344371739829 -0.6671704171157543 0.9488931324763851 -0.16503191283408997
Ni 1.9103483732059634 2.824236929050375 6.463743336047695 0.21959149324752503 -0.8565694459402989 -0.36128858801041647
Ni 1.4846068896207403 2.1046873644010025 8.679320487860155 2.036566957399815 -0.34023922353928504 -0.600769878203333
Ni 7.102767067768866 4.844118608350504 8.931147473825297 0.18939877171422867 -1.0184093341996525 -0.9097771403115299
Ni 3.8281634452208957 3.7058008237168045 3.8054356333350414 2.492523049588146 0.08219662540441328 1.9712491100286116
Ni 1.9218463445639145 6.750985004805154 10.453937869462527 -0.6899377927192569 0.5296135697734814 1.1837556929503676
Ni 7.642790007563685 5.194262094019481 -0.16301795861008414 0.48424054095532093 -0.5118403049504604 1.201059731446454
Ni 6.204882570842932 2.438789550758441 2.244369561708492 0.34135173987717343 -0.23620544765512222 0.6538767853306418
Ni 6.570946324545996 8.667394251981987 6.054941576256636 -0.9771783525743236 -0.9631714967722702 -1.221944031094631
Ni 2.810346262438178 6.263731701979458 8.36655704672735 -2.6679568744818507 -2.2715411037509976 -1.308061074599373
Ni 3.6483575174183764 7.68462027907079 6.747019833953857 1.0519673726607561 0.6591233784415615 0.6971121989805091
Ni 4.435759078227059 5.4590785290847155 5.720498640302678 0.23938718781721352 0.005346094803261761 -0.9553028926574708
Ni 7.020456489003161 6.67653214897557 4.537807065315725 -0.6636523766601667 -0.8749996276210286 1.4120362293314586
Ni 0.16331308872510203 6.083758192408158 12.13123679389513 -0.12841940381737885 -0.850223192007297 -1.5480684124990887
Ni 8.419540815956582 7.769900779183206 13.525667002725605 -0.9927060158962773 -1.7714551111229877 0.2800676962557112
Ni 4.634362094427718 1.0478701799839056 6.793963211428401 0.12243773231264721 0.01707058232904157 0.11364301683915268
Ni 0.08709317624471749 3.598073676686154 12.807876115638594 0.45554780100631864 -0.2418359064680222 0.16542400606618607
Ni 2.482249089462017 4.568297637135394 13.665649916207071 -0.701381001559192 -0.15335061984141976 0.1822606180075506
Ni 7.756643199253066 2.1185128603253407 11.363627570989175 -0.016963367327215945 1.5276775075475626 -0.43774291161441387
Ni 1.350578714989918 7.52800580604775 2.107534392450607 -0.13227862966246895 0.21335502541950999 0.8489139862775702
Ni 7.113268858612404 0.8212167687189775 7.67153586696839 0.22514404763463805 2.4885728066911463 0.3214048644416013
Ni 0.7213817919880318 4.1742849684391565 1.705845547734426 -0.5091007945321103 1.1451436370051247 -0.4127798139111729
Ni 8.599616736608802 2.651674257698451 8.449023104134092 -0.9434426508847751 1.0793696759331088 -1.1304857778826338
Ni 5.311913805801206 6.053723815403502 2.9413533101818294 -1.0679421508224574 -0.9860723126298439 0.053460176701669214
P 8.2031089615774 6.766244255862385 9.529518661469956 3.19902234621051 -3.8479631276921147 -2.355615148683782
P 9.455615101438038 4.1497435494111725 10.658836374110349 -0.7846441205549067 1.256030945476011 -0.23297897029802458
P 6.473208912954277 8.663558491496582 12.157752884765237 -1.3972778400753614 0.6845585306852147 2.2399733562470456
P 6.812096489820208 2.889910362215547 13.352109081869093 -1.0875141594171143 0.7125354755141148 -1.325100546580163
P 6.583701159169795 5.14636163844324 6.3793286750739755 -0.3256045043452457 0.5045993071173309 0.1689639008986445
P 3.5166754875504718 4.183939540340529 9.127080353843398 -0.014125126547472448 -0.1064639825922102 -0.1999688339205911
P 0.4982550459460931 8.389320236986615 11.233742390086523 1.7256005146827182 -0.678382998002122 0.2223960525758557
P 6.734152347141043 2.511240735460932 9.365267114839686 -1.0756624022848509 1.1876761110506964 0.7671459637701432
