# total energy = -381169.0160861091 ev
CRYSTAL
PRIMVEC
9.25800488886939 0.00000000000000 0.00000000000000
0.00000000000000 9.25800488886939 0.00000000000000
0.00000000000000 0.00000000000000 13.55002596833235
PRIMCOORD
 96 1
Ni 5.580929091799584 4.555771681829226 6.09683419798227 -0.3427095394566485 -0.20400855120760347 -0.05678101354478608
Ni 8.543740658831554 1.6393519778663017 9.3934607255998 0.8125423896270716 0.36131532748329387 0.4582268905003786
Ni 5.647845951959843 8.959971305752564 1.2788119342391506 0.3491210994099471 0.32031034582584195 -0.003983924348412493
Ni 2.0089593115931974 2.510132154414924 8.956581024320538 0.39542872422723513 -0.5937114286946549 -0.1370624242043575
Ni 4.96408673447284 2.75171053695806 9.179560074813043 -0.5850002740739022 1.9190893973059209 0.688914236550749
Ni 8.974182343431867 2.72849146041103 0.47948226290065965 -0.30191770225126713 -0.07946688517807604 -2.1082308015937046
Ni 0.8242272241925286 0.04425418971389762 10.245513809628752 0.18290750756293014 0.04821306937011697 -0.35005929495350036
Ni 6.51603388710768 4.451221031332573 8.778099649073503 0.1702957323361906 -2.406607323460933 -2.6673336390755544
Ni 7.120618645810714 6.4907410174400235 4.774961430874083 -1.0032817345295948 -0.5641524840906155 -0.5376562375722999
Ni 6.8572191454759714 1.6588215623871958 0.6752085240664143 -0.21096518503109477 -0.7214425481957575 0.7543786368021459
Ni 4.135374932656954 1.119033580698779 4.904879015078415 -0.18116224273704928 0.10284309801017127 0.03942632431642243
Ni 8.625609197071338 8.983236672324608 0.7725666304763887 -0.22407652560207214 0.7534802933575927 0.8360304454466828
Ni 2.832912498837643 1.9793614695992368 11.148527582195634 0.26989872614250937 -0.5640092736445319 0.7443312798684729
Ni 3.5348729541601562 0.4720703040954158 2.473692646723892 0.5382555617191955 -0.5431756247286322 0.1805716603409019
Ni 7.166112482394487 7.014151588278482 0.9953753336768424 -0.33458691034951404 0.6321499351765112 -1.2985533922192538
Ni 6.6183996484236705 6.636295372094089 7.561347825570142 -0.25755743096833705 0.9079220893806621 -1.142639125415716
Ni 7.419985495581345 9.01611184808956 10.287599774570992 -1.3106856567064136 0.18863361141342996 0.10345630611413796
Ni 4.956708104485607 4.885430723969027 3.5794558030516535 1.437027094948841 -0.7621539098721907 1.7887928310704868
Ni 8.55789614848084 5.083172452823892 0.9581063087375595 -0.4833069733974579 -0.3349841457879328 0.7499103166181472
Ni 3.175949358206495 0.1231842371657931 6.973968143364317 -0.5669519012126236 0.5949134194225562 1.17912924992195
Ni 2.499457674646692 4.376731123080022 11.034734665304684 0.08936948900376866 0.19332073247645415 -0.27995328216503396
Ni 0.3113772596607671 7.187489215945958 13.043119980587706 -0.16231322835134626 0.22139692188738003 1.5541138473622202
Ni 5.739833489667692 2.158179836228373 3.256084797909755 -0.6102575059787941 0.8557047839471584 -0.9876504557502411
Ni 4.720749330979171 7.2411393549372 5.041747509438851 -0.32642880001875396 -0.21800537970732778 -0.2045705943586606
P 0.9174905149897633 0.026516777929027756 7.744219346789505 -0.6040644897942048 0.713115773497617 1.0767679766442035
Ni 1.2241119374805907 3.4429779965023357 2.0589127291868206 -0.25577771336009497 1.4498419873253225 -0.8918447242028255
P 3.8049474761019195 1.0470433337969844 9.396915813066846 -0.40622864305621653 -1.5736886841703541 -0.4014972990188182
Ni 1.3061008297854124 6.969611326209998 10.800942264968903 -0.23567708595547798 -1.0547135679473256 -0.6185806811325089
P 2.2597771831291307 7.884728088717043 12.558462492890481 -0.9351742402283959 2.3162867833978042 1.199678020607579
P 0.930410986771675 5.354182033270939 6.779132502279832 -0.07513534768225769 0.43750071369662075 -0.19156338346571522
P 1.8875220599714333 2.7112900871158225 13.331355930943468 0.7274692140058117 1.4016893388794958 -0.41727538778868134
Ni 5.892766474308991 9.188810673411844 3.9282742865447555 0.3002817093097409 -0.5607601705796149 -0.08642197633967053
Ni 4.301898668642368 2.221495332442541 7.041027576801619 0.35387301227263573 0.4298977045383822 -0.48546875693546715
Ni 3.8423775903282507 5.551599731950706 1.815093909433006 -0.34413830148337504 0.412831750195031 -1.6722233846131587
Ni 7.154290010005908 3.0677880857587496 10.536310524168288 0.4528609982027749 0.06503245492030091 0.20765566104188754
Ni 8.89002707795639 5.144099383747337 10.355390590403516 0.45021404749823113 -2.5537258463497117 1.7772907439681587
Ni 5.6576131472378 7.495753008524283 11.335301352523677 0.28230635577824287 -0.821794761463275 -0.11426213848039032
Ni 2.4322630743363494 3.6915276568125823 6.64891681031441 -0.2684650790197764 0.6790599694644887 -0.7444197258172212
Ni 3.0420971218759725 5.980754553855629 5.866022875257395 -0.45685829228762614 -1.410959708437828 0.057354626660068964
Ni 3.1055144561451713 6.064335823020932 12.758243760247463 0.15878156104900396 -0.48444005856063665 -0.47803209815176384
Ni 0.3002009960213836 2.947943210997468 11.569066904644949 0.49468179089330283 -0.42330333915031615 -0.7919856485216424
Ni 6.331234849246734 1.1784236827917591 8.317750905112137 0.31327992134162175 -0.6105372420027421 -0.004848843451869069
Ni 3.601188043995233 7.787370908107568 0.8599834911143535 -0.6238889807192997 0.32114286902946626 -0.4031556605578477
Ni 5.419367646495672 5.8372925083321965 13.014434052086523 0.7953602214208302 -0.07182813768589566 0.5230852817366604
Ni 5.171049436310496 8.174762869444848 9.156416913907037 0.47644547039093427 1.3858150908514004 -1.130640558292943
Ni 1.577980662702722 5.013876285377914 9.051972730467917 0.9727082326181118 0.26105875925337624 -1.0032336549004786
Ni 3.3907998803065396 8.160264833610459 10.866280635276185 0.301901504301351 1.0462073302485273 -1.1803780347273867
Ni 7.540802460867922 1.4928255326869417 4.58660269008956 0.0020406845791126147 0.1486264748928731 1.101435911704529
Ni 3.95180720946138 1.7801014279239125 0.4517323187052586 -0.033828775623986895 -0.5346105087674405 -0.43021497866848485
Ni 1.3638244909778876 0.7069181170015141 12.63492528200913 0.7486072815360075 -1.3028558762493496 -0.7401660927471897
Ni 8.838987696375938 6.186643327112959 8.53501221171491 0.27428065726028894 1.5904095964694611 -2.1802432873762645
Ni 4.6208924890189405 9.173192418972116 12.518286454380318 -0.4331794606134475 0.21479278630730103 2.0960941662311705
Ni 8.079988672231156 8.65180935122927 8.145543679855502 0.21571246990809304 -0.2499042852984535 -0.8836344204778911
Ni 8.248919489517299 2.6990880365221286 2.636239143760102 -0.16036330371382707 -0.7280042605736753 0.1780571214491643
Ni 8.430654127722319 1.696316482648547 7.095132283838498 -0.749813900249599 -0.864747353765401 -1.1458648314418651
Ni 3.0792680119622253 7.063422690903399 8.857272256256472 -0.04491228713165814 -1.3016914236276034 0.5852589270519275
P 3.93307826534071 3.1201883940746136 4.374572156313369 0.5643206342373636 1.2817730874371216 3.063136973033389
Ni 1.3998473884437934 1.677124638277737 6.385422878328639 1.7961644409442097 -0.7860481999912851 0.9956080200344207
P 6.488639450304388 2.4981708119513026 6.519215863427144 -0.05423459297384853 0.8244573958971025 -0.6061933632117495
Ni 7.913150164075647 4.941275010145934 6.601911141513679 0.6962786473356202 -0.821266656873947 -0.27159539711864195
P 3.403622217235421 7.425040366312875 3.034569438008193 -2.0641577225338903 0.46666062309002854 0.824850003349831
P 6.5289117720665795 2.8575480501501014 12.61504741946761 -0.358022515664635 1.460072149693763 -0.6035600393539605
P 4.561020970665815 7.01097609256252 7.2552670705714775 -1.125015755906998 -0.46876147148311526 -0.1563827217995242
Ni 5.4873769512462625 7.171926509536246 2.9363308953224525 1.1532490397210782 -0.1801407434510704 -2.098157990738735
Ni 3.931272954365163 4.099870483471205 13.406477235137212 -1.092040586532558 -1.7896199549574727 1.7010153691441867
Ni 1.1854967986139002 7.833253580901459 2.1679229606933226 1.7016468320805986 1.4273841725424385 -1.110471539544236
Ni 1.8954283962438268 7.553365573656725 7.048289555925816 -1.9800091156094288 -0.9612431694013059 -0.900885751359171
Ni 3.4522915495351554 2.92667757350603 2.468760907458899 0.9448421023354631 0.49306970921117665 -3.735936306300147
Ni 0.2924224202180287 3.305468848195706 5.31402173336928 -1.2907081851432223 1.5783212978463592 0.04596052589051439
Ni 2.436549530652647 4.817143679068353 3.6972463265028135 -0.3815115999255107 0.6759376217854229 0.5559028424873136
Ni 8.797141513763268 7.204283237021042 6.161860573520957 0.7635237936365238 0.1774318291603396 0.776234813445289
Ni 5.2858024083202375 8.943547604877592 6.458796271177852 1.8269271760483632 0.6899542477794892 0.8111192840272999
Ni 1.485632062799764 5.709893101488627 1.2920832844106684 0.5807327570467998 -0.02150393551004684 0.22978514595107521
Ni 9.14991779439507 4.968549092884191 3.4401894853954915 -0.12178827165410638 0.5156067139714281 -0.37824835579320665
Ni 4.701761162718422 3.69872112669976 11.36167000237266 1.579800453495047 0.6832894341648039 -0.4354829119356435
Ni 6.033534440376608 3.8854921196263037 1.3912624404046945 0.0901343921942512 0.3323935022426211 -0.3205692559141834
Ni 0.14202057414449565 3.5580549986871746 7.871711333683102 0.013584423552654025 0.35025881255881613 0.7458202057091735
Ni 4.072827850858018 4.74409801959624 7.9356137874144475 0.28569712662734664 0.7207982297435394 1.2323683117517485
Ni 5.457649497182262 1.444174716397213 11.120520265461154 0.5472114853609027 -0.564787546571453 -0.391589552986803
Ni 0.9593607684154393 7.06006203508738 4.292743427495096 1.6941695498669467 -0.9342334735816813 1.512224406217286
Ni 1.845185203093616 2.3655313742761472 3.9581794943048094 -0.14268439837682523 -1.827256277253008 1.0322475256343255
Ni 7.350957810280447 3.870401571471735 4.501752148438372 -1.244494148481005 0.2864260343735712 0.003424452300516683
Ni 7.699790180781054 4.809635437011081 12.331485835837766 -0.7699703205928159 -0.564515523856989 0.43786683878678784
Ni 6.807559206640938 6.185791590652702 9.770666104032495 -0.9164720358332022 2.117432265587315 1.6209728139682984
Ni 8.45530819504478 0.8120446154093405 12.111161981180063 -1.9799363533899643 0.08038271212412608 -0.04134848103979975
Ni 0.1772898700031732 0.24111363069199535 5.127817330348908 -1.4330200306719771 -1.2803880341641367 0.35647034068616673
Ni 8.415461741512718 7.501011555365875 3.0420619414569616 -1.6338123889351284 0.7815117455735121 -0.5213071067903151
Ni 0.9297258944014676 4.983639641038759 12.598800546488192 -0.40736969863919514 -0.5676527839343901 0.5841075870563037
P 4.269366039062518 5.667037796330653 10.29360266501481 -0.005995812572118706 0.06733719179407757 -0.03631734637379552
Ni 2.2509913363814706 9.162110586983761 4.4903157348584095 1.0795167430339343 -1.3281182503605642 -0.6221550287473285
P 9.142511390392826 0.5394491387053142 3.0024284220399626 0.0534465498549144 0.07595707225260466 -1.0694531881503453
Ni 1.4258068344716524 1.2076974946106214 1.3101734261861453 0.30199586378737026 -1.1749987726933442 2.1024054531611793
P 7.245620229358558 8.654133110484974 5.601445756686296 0.6922787821476077 -0.1406748241459642 0.03819270901963746
P 6.9910991558215025 5.594797583293783 2.5899657831550926 0.6515219119452198 -1.4231940457204908 0.6893412967858386
P 6.776942984096669 8.566793091288533 12.832511476379945 0.6792121787716368 0.4948342573107672 0.7898580606556783
Ni 8.14801649299175 7.096001610508262 11.264706286975805 0.2680457320941706 0.8197929005418979 1.0412096199236196
