# total energy = -340898.4949702385 ev
CRYSTAL
PRIMVEC
9.00288276394366 0.00000000000000 0.00000000000000
0.00000000000000 9.00288276394366 0.00000000000000
0.00000000000000 0.00000000000000 13.17662895037107
PRIMCOORD
 96 1
Ni 6.3083200127891725 1.9307942674794023 11.333653595279268 0.2917029665017944 0.8314477111720068 -0.09833081196211452
Ni 4.420361461908673 0.2725307681848829 6.136355947476933 -0.24716657465231626 -0.26585078132538087 -0.9771608690728267
Ni 2.6044619853572217 1.5941764777288856 4.687625543626478 0.4973796494404402 -0.36341257633195473 0.5192329978701057
Ni 3.2615013786116345 4.3286941087329645 4.639530342866777 0.8370357467827455 -0.5144296629441913 0.9191228431924879
Ni 5.069712393209436 4.489404570483071 2.658859204111717 -0.06226080571243471 0.03679042935547212 -0.20158194404398186
Ni 7.226695089404858 5.983441982274673 2.636459131293363 -0.038280640747753426 0.1996962969854948 -0.7178753996697895
Ni 4.959688161903175 4.614346578671294 11.303913472073548 0.17714206583406267 -0.23394879041046163 -0.038568604301817445
Ni 5.651109564760617 7.742920392007014 12.334405049969764 -0.22766681405649178 0.1942455582835687 0.17569993407089743
Ni 1.8288996393864267 6.769825793430815 0.35085674926561233 1.0479806200988662 -1.2363568640858513 -0.4835512281977802
Ni 2.7736801714003003 1.588918794144657 0.31883709612234706 0.48447708244615917 -0.21671340036878162 0.5227551520907513
Ni 0.4287965066720893 0.1821967419592153 4.895763192228837 -0.07478490632137443 -0.42762870599854735 -0.15634646924495008
Ni 8.510560201070069 2.5650923786554563 1.3854041258856222 0.3360892059266534 -0.43538880955994047 0.5599129920879711
Ni 6.59651129569112 0.5968722268815404 4.855706665565639 0.9350125178395511 0.24802172356375995 -0.2922596103362128
Ni 0.9246951003761792 7.371137341845545 2.432761704512479 0.15483028971073978 -0.20657065550782486 1.084138815186978
Ni 7.592734300308215 3.8089756875851215 3.7870554684226563 0.11443774482630613 0.20899109202385946 0.2312625018275501
Ni 7.758558399516955 3.852099496435214 12.411014181291055 -0.37240938051392636 -0.4170625004469269 0.30066968877677896
Ni 7.96407620921005 8.675339965868242 7.026898611762752 -0.3664670468875624 0.30997476822778874 -0.5328595875146049
Ni 6.9203990090921526 0.7193393425743795 0.5585847666983096 -0.5996884722136963 -0.31739420062031143 -0.6474729386868269
Ni 1.860643804314491 6.43192959431564 9.188616824337121 -0.11137736073342752 0.6331351819079161 0.1823536919419892
Ni 0.36326722327393235 4.903861285352148 1.2945533341843816 -0.8426764900082907 -0.09528919692231332 0.4935355931040017
Ni 6.389237923842333 1.7262037547198277 6.939721896552477 0.5207867155104708 0.908535554594945 0.6336751135717861
Ni 3.501572252681901 4.099174613362552 0.3906629957855885 -0.34486695211928353 1.1258346522638676 -0.08002121501964929
Ni 5.893998341162842 5.464866927248743 4.8435176624754215 0.18084368305536597 0.7428652368459077 -0.417436595956894
Ni 5.151278511827775 3.153493793063708 8.937232927677911 0.8484984960067063 -1.584925176316122 0.7629962032678279
P 0.284603634086339 5.581085141955601 12.391196135273995 -0.10817942262142015 -0.5153328914847513 -0.5821473780061394
P 3.869763152586338 6.11809810105773 12.618282151410131 0.15724069892444534 0.09715118983171656 -0.14164053049334316
P 2.4671500161335023 8.660125093852239 1.3763256188199784 0.5140766504801468 -0.2579634081575041 0.590240439426919
P 6.284273312697608 7.627611468467977 5.7584239283291145 -0.6417692034338301 -0.11847694789268629 -0.08093395664190577
P 4.824077737538051 0.8871719849468884 12.463272315080461 -0.35120112186742736 0.7600422628458265 0.9981145885063584
P 4.069240027887279 6.1669027289859875 8.241269570422794 -1.254351243780743 0.11972444714654219 -1.1577785521603159
P 4.659613073639616 1.0201796758801638 3.9227352149857246 0.0748512407829356 0.13981401880756567 -0.40400026794633004
P 0.18912175944720935 5.554058487640783 3.5509431619414054 0.5060424673217607 -0.3140419963186269 0.42314933007095507
Ni 1.2664895477652771 1.00956527700036 2.6172478795803746 -0.10256156221401047 0.2295995123028304 -0.16621590583986212
Ni 1.9482598602078325 6.489358984013917 4.676069443200595 -0.877595670482979 -0.16249423401390078 0.37664938673720294
Ni 5.927254990409656 5.583101787713935 9.071028370860535 0.7283788703042745 0.9056199236100467 0.23870918791358242
Ni 8.453328874794485 2.364211053629961 10.17226550247803 1.0181995321816915 0.4656866892125335 0.517939732979979
Ni 2.3165047774093677 5.316967567793769 6.989160327433353 -0.2772022017824581 -1.0371326216407686 -0.3932466289742518
Ni 0.5019197217539735 9.154671454552304 9.350070023922328 0.029497495238484682 -0.5927686051654113 -0.8326389032666304
Ni 1.3782243268129815 1.0725044310026564 11.424110960999975 0.5390145513724072 0.6943909433946042 -0.6192041736491207
Ni 4.210891386644557 7.119902893041642 1.529885991010848 -0.5494676283849311 -1.036383659289886 -0.4958508715007395
Ni 5.7080257901364595 7.94442291594914 7.895607484561464 -0.36956754018975707 -0.5812981426319667 0.7083741450475736
Ni 5.223301574625425 2.8726848740985207 5.026514760719976 -0.2894576221110434 -0.08827214217453185 -0.6191182988035338
Ni 0.8318213608986095 7.309854718287594 7.020349914777876 -0.13205648634933387 0.20395275826900358 -0.3818725828093552
Ni 4.952332806614966 4.5138293916543235 6.926624502582723 -0.01332937011905446 0.17778124207995835 0.2023558460955289
Ni 8.136229335062133 7.1042918941802515 9.09149192357792 0.445641083415568 0.14144769775624672 -0.11360007941635918
Ni 4.595125423787171 0.1965347331856575 10.381167495834331 0.20731319010080423 0.5407140505620172 -0.8063084929022177
Ni 8.141568044592008 7.14206799061762 4.716284420601948 0.2695210310881164 -0.03999299545316983 -0.08267896435747052
Ni 7.32903986164032 6.0983187674369255 6.880717002355502 -0.3309362009708043 -0.687296755551984 0.7248353759273903
Ni 2.3214743687424053 5.128924353711954 2.6427710524592922 0.5365174959821664 0.858141161302793 -0.7901228842812908
Ni 2.3538037210557006 5.112133977197252 11.308394206867845 -0.29468004685224736 0.35568435444976165 0.7819948558575177
Ni 0.9810711527810397 3.2232391265003826 3.656238178886715 -0.2595330666374691 0.5839502355428331 0.6301943541120373
Ni 3.623984450789357 2.5943517479170017 2.6609280665905795 1.1611649521340452 -0.14462918080802187 0.41425074202974466
Ni 0.9999321923511744 3.2322150007015398 8.182054008767137 0.29602010581990956 0.7625015230195965 -0.2436755307799223
Ni 3.588008930921931 2.4806993548223097 7.087827422024709 0.24824052444278538 0.9350048045300672 -0.9113845940079659
Ni 4.038207090704342 6.714440058139422 6.011560686279161 0.6352434865001705 0.9087078185067511 -0.2841243828235881
Ni 0.6914907250553832 7.373009941478285 11.238202330441826 0.49246395730637765 0.04410624629059501 0.06423849826409582
P 0.19040647082986245 5.50511881646978 8.021246315882253 0.5093684463712002 -0.9255768263479478 -0.10009536006170504
P 8.556609946846317 1.5251153633887888 7.95471771248778 -0.3387803796055714 0.8808000363528895 -0.1512438579110621
P 1.7600996086489717 3.138846102667236 10.423201055571324 -0.8280474272412062 0.04251421921312678 -0.6447444840120702
P 4.067349422488841 6.1688293459158245 3.657213191099338 -0.46944847024781083 0.41617392719438645 0.26176529840209756
P 6.825598652684745 3.972927187161122 10.26027228348705 0.04705710138880283 -0.2726624049305756 1.320097694048933
P 6.413437672942344 7.703982923682036 10.151801949760648 -0.9447315448995278 -0.04334314287232535 0.45430287285562404
P 2.27902577610604 8.346338615008577 5.802302178762013 0.8290756113954045 0.7022598046197196 -0.22364843692571804
P 6.882451857880641 4.076208259212952 1.4776539655817074 0.8497945891103106 -1.0815628269296857 0.657084750744978
Ni 5.3718041272313295 2.7726718485211337 0.3698960459161711 0.0855550003536849 -0.21915800525453222 -0.0786940115677935
Ni 1.5394929672997697 1.146967275052577 6.940434024585889 -0.43156737893132124 -0.6485335187408573 0.14690486421607601
Ni 6.95327753725928 0.7755830526013494 9.25392013537575 -1.380651287262274 -0.7446225858566466 -0.6984327175641456
Ni 2.772626834106885 1.6253444581545684 9.091255147758972 0.007522019408658012 -0.630579762475914 1.1820592790845512
Ni 6.294707653920417 2.140102290852223 2.596955381637137 -0.06846744874377884 -0.5043712502669249 0.4374716602308982
Ni 4.040313765291173 6.86899254802033 10.348450119270211 0.30169787293097716 -0.3557568595589099 0.4281385557554304
Ni 8.356322812088901 7.146155299431387 0.5107020339738618 -1.408937792911793 -0.30040897891622453 -0.4580991066732627
Ni 7.565275507616611 3.789853564412345 8.241652192943908 0.36090677919096553 -0.12430409609742464 -1.1541851783821024
Ni 3.1160958177060283 8.390938896646022 12.346896549923732 0.590576482610099 -0.10431248346684616 -0.4092365766446049
Ni 0.13715621935041988 4.806603141926771 10.167323820081828 -0.14356114455482372 -0.31124900695452207 0.1227894592251111
Ni 8.623060225159998 2.4131957392152126 5.788414331678056 -0.111652211661369 -0.49083079257832885 0.131278984753361
Ni 3.5763411947487116 2.6052992534622446 11.354446653508948 0.9266353495194491 -0.18450956194272738 0.29884446264258213
Ni 1.179422667725768 3.2858361709543904 12.735198989826127 -0.22908554878088933 0.2038630267686747 -0.6298809366366764
Ni 3.0576220935971863 8.309057677127944 8.010744453038072 0.5309531145205114 -0.2833160279896798 0.020906411135363998
Ni 5.649227962245028 7.846858674506874 3.468457848984112 -0.24539379902260963 -0.4098071044360942 0.45262882758731077
Ni 3.113728059516556 8.346122545820185 3.6088280975118767 0.2861830651248297 0.003921189431277118 -0.044454630768949246
Ni 3.19604141741142 4.335401256455995 9.069974133278835 -0.2923053759724836 -0.4297555225335631 0.42363706834065107
Ni 7.269026644564177 6.019354481962151 11.35307551445094 -0.003276099648110487 0.2302811117508873 -0.019057530852083306
Ni 0.6388499687448657 9.07994752689974 0.296402812349164 -0.3793886400452369 -0.04990974034624953 0.3362187895259822
Ni 4.604218335465374 0.5092165583036603 1.731923286194246 0.14094890374295724 -0.14878536906824052 -0.5875739483383494
Ni 5.906872463637922 5.502030827652331 0.35115834584107747 -0.5308330440028793 1.1921166633205533 -0.5736779070825474
Ni 7.900506853408274 8.929167244932861 11.314653011024962 -0.07448665835466527 -0.46454383385734194 0.6069564666300191
Ni 0.08846232688121367 4.791010148831079 5.78571256653486 0.31368564142047267 0.19954485900929506 -0.23255319561451562
Ni 7.984656799404478 8.62790377613314 2.5638166701556533 -0.5189370638962417 0.7053284162427144 0.5820813006548944
P 8.235080988751907 1.5751173747360574 3.638067660431153 0.46922606982435966 0.5001862656512999 -0.46248952243147445
P 1.9432092429291472 3.2097167964601234 1.6984019521916498 -1.8284631530769155 -0.3144274046825037 -1.65624243580387
P 4.818000791614499 0.9578797265601965 8.228699745388035 -0.3395781929165184 0.8984401180321558 0.5112039569180422
P 8.488854250519427 1.6468613481653664 12.476515555752378 -0.34594655833670745 1.0361635728592802 -0.21875048540346842
P 6.346843348503066 7.7215115365904134 1.338021053159333 0.42777114511368264 -0.40041357903633623 0.05543632659143356
P 1.8406574043881432 3.264013182926702 5.901377103946461 -0.59693276384543 0.1229817777415753 0.5270866895865697
P 6.910297774534782 3.8801344736291994 6.056017822079295 -0.03933222194071936 0.2075741570716748 -0.35800297528060926
P 2.4175261258659213 8.51667315852502 10.151538165293152 -0.2732640430703165 -0.3719113578315853 0.43777607884519437
