# total energy = -340862.70049942785 ev
CRYSTAL
PRIMVEC
9.31831867611647 0.00000000000000 0.00000000000000
0.00000000000000 9.31831867611647 0.00000000000000
0.00000000000000 0.00000000000000 13.63830129258610
PRIMCOORD
 96 1
Ni 3.62908436972998 8.011014328059535 4.622102163123138 -1.319335876182244 0.16109169723941935 1.2812706938794063
Ni 0.9107715187786362 6.146567888444755 11.888425363106212 -0.3416191346059471 -0.49621339704648093 -2.510579907089857
Ni 0.9763734128807733 5.185858568969714 2.573056106610732 -0.10565228532419224 -0.7616929110753722 0.028772187036685933
Ni 0.7611398239002539 3.394737977665287 7.04678734334912 0.2521504010201528 0.03484127604890128 0.17955376059934883
Ni 0.3695850121813305 2.544832783524902 12.877256435995388 2.2679585286060617 0.999563148027427 -1.4773229663544105
Ni 1.9536041110639424 7.543700655068786 2.764565256679298 0.648365111483793 0.350220503121713 -0.18259691830104682
Ni 8.39427676814148 0.8127530582637329 0.13822793669281724 2.3727376672966813 -2.593310036400237 2.1201746042191423
Ni 7.89297918756554 7.566549172041333 3.6644343428079007 -0.5176206590776633 0.5720897366598212 -0.16424669792863325
Ni 7.677483753835051 5.99276904153125 11.429455312504215 -0.01071250132149768 -0.929701904259915 -0.11585956487449724
Ni 4.544189838444967 4.3071224973770175 11.226640246594378 -0.6557488055423739 -0.4311945689729348 -2.5382035823443965
Ni 2.0533287556969833 0.9106755400980419 3.4540090061756015 0.04835525137493608 -2.42498119798243 1.2828334103808356
Ni 2.664377491616593 6.334807240550162 9.912794610761802 -0.21877311111128772 -1.6222527091219867 -0.38659287110316004
Ni 9.261746992662475 2.770969736987305 1.4069952749289834 -0.4125944373732442 1.07025845766046 -0.4936770037778723
Ni 3.0821270284829603 7.265129523382675 12.131800273969723 -0.3516631491055105 1.339602339740764 0.15157990109424216
Ni 0.3887294975484191 0.20569628999136613 8.488383398548278 2.6565805143241086 0.14518993840749833 2.7503841278398307
Ni 3.931901766164285 4.998886508180892 2.507074025113619 -1.989848984517986 -1.5045260091317636 2.3014954840212427
Ni 1.3764088262704623 7.164966917779932 0.07701683426990723 -0.5988014416230526 1.2718362879393839 3.1693692992307674
Ni 2.082178269786303 2.751541042905835 2.234894328089609 -0.08625331197229016 1.577117250235929 -0.767521344831691
Ni 6.358326676455021 5.45735709691106 6.976604563870267 -0.9333459287704056 -0.4876508521884505 -4.255914409866393
Ni 2.876276054404423 7.224697339392507 7.004372221181238 1.598043715975951 -0.47507610084723345 -0.18018599486670903
Ni 7.223327546572374 2.1716807190201246 2.405700969937167 -2.160739670125698 0.35967033568070317 -0.028900227974117967
Ni 4.225214477724202 8.309899394085026 2.5078381272309715 0.6859991197864831 0.2607548548597122 1.415347810203195
Ni 8.071937494440663 2.0588079269775132 11.299387427325616 0.878527695378945 -2.4737090022054367 1.6759131747599199
Ni 9.220997985843162 1.9586173664192568 4.685615822048462 0.8810946847751728 -2.180203949497897 4.292134568540692
P 5.775400625781394 8.397976140587687 4.159599537976159 0.1941468279221753 0.7489692928611166 0.13581209673702416
P 2.6822407081893402 2.308594772803835 13.310791204408043 -2.0100498849458934 1.539121487718446 0.42546486557800917
P 2.7602257157518446 6.065302832768737 4.782611131191592 -0.10941149525630835 1.4054565192314117 0.16207154465418536
P 1.9779808322711967 1.7154465267309895 8.02451750340412 0.4523082110230984 -0.8558914460366679 -0.05704583717039853
P 8.435053729916307 2.5909118685286754 8.29739234698855 -0.8451763736120089 -0.4827421020329234 -0.021740991221517396
P 4.549799466184557 0.5974458545670295 10.620513446508742 -0.1889305738285585 -1.4069652425664543 -1.3293330966042718
P 1.517581351610639 8.004202637232892 10.501941570868901 -0.12856955624199795 0.1956429528517276 0.883198361381737
P 9.184852228364974 3.3385205621288323 3.405756889296624 0.0845630687540608 3.9758176601449597 -2.0557448158798466
Ni 2.04175540411464 4.032446422825705 11.705671705104288 -0.809625987311225 1.5694067689655486 0.7572526159158314
Ni 3.9121096576611474 5.142714754294794 13.290019740630102 -0.4378408706448589 0.02661246038120578 -0.1799661655464191
Ni 4.507606119997077 2.3867754650549293 9.05564069665692 0.8009068622706722 0.4690196102405084 -0.1505972254659987
Ni 8.074062071059643 7.937474158423583 8.566898618433676 -1.1183208603853256 -0.8845713304698636 0.7613262717645727
Ni 0.6960122322099859 7.215052879740554 6.877808955592106 -0.8902730088403312 1.3156558562274954 -0.07574804156559213
Ni 1.8809957732784206 4.631017930268054 0.5954675755485662 -0.17316971144987597 -0.7817341459969633 -0.9873149267876932
Ni 0.6135180903232498 6.611319023846822 4.328509902008092 -0.2532027535440672 -0.30416356086265034 2.251939013249354
Ni 1.2588861932942041 9.276954488461497 12.353273409020726 0.45755814656812815 0.8050530232285619 -0.2856145942158694
Ni 4.308399107012107 2.107123408422319 2.3563437004835794 -0.6994909836253308 -0.7110360081504529 0.29741724327775226
Ni 4.672363309471643 0.9214027883601944 5.385042286158423 0.027415415898475362 -1.794642604983045 -0.8640001911867313
Ni 2.4175911443486564 0.35082537336846953 1.0187754894027494 -0.707629296461749 0.02602676308106485 0.6336566016290248
Ni 6.229594106318087 4.386309568026577 12.82300332199964 1.3216812364859691 -0.3562096308256123 0.2506262510661426
Ni 4.437886460947889 8.146474724156574 0.37989200427893904 -0.9132771830449885 -1.1730771301905991 -2.0256215141319047
Ni 4.107561388288884 4.4595701881074 5.181954193516412 0.8685258469712268 0.5256463575956173 0.4922600688256877
Ni 6.999902223794724 0.9184171991114161 4.74093215618555 0.367555909076367 -0.5927632058487727 -0.6533229697097006
Ni 8.841090140422766 0.8231075737857133 2.780153871705145 1.2017097063256272 -1.9978507717765397 0.38084619842736994
Ni 5.824694530669152 6.234402358666307 3.951602555146081 0.11781308905644226 -0.8004286370826731 0.16590943034303685
Ni 4.074229762998995 0.48194156937880345 7.6644930860082034 1.9414546523749983 0.6778651778254391 -2.388681077999815
Ni 6.6502602768763 8.142244207555622 10.733997520245234 -0.5584605759121608 0.38584853673796776 -0.6416894992358304
Ni 7.160121392157693 3.536218007516106 5.464553634291932 0.8271585968783497 0.3375017700034639 0.8539209525738582
Ni 3.6923184791001744 0.5976415392556199 12.695430882516492 1.2105550725313992 -0.8806871649241089 -1.0882011581818096
Ni 5.455055472240497 2.7295125379616647 4.122954318626141 1.517585156308567 1.1478306969189844 0.49140054903886987
Ni 9.024893972920125 5.46883726530836 9.409691140059728 0.634530776703862 0.06930382860214516 0.8175411283932436
Ni 5.49480741897985 2.145580108889574 11.59323780586323 0.9780360725889284 1.8478798670406305 -0.1693649929918051
P 8.01501188669788 5.735630042405033 5.112562539278574 -0.9812100994415359 -0.8869881674414724 -1.2324467303981679
P 6.012225690568232 8.768164979808098 7.83272134912562 0.8052234873681552 -0.7209753787513519 0.3909480627480622
P 9.195996937296119 4.254483316146215 11.270732666093036 -0.5802257355033943 -0.4834620109180835 0.21228030429809247
P 3.316128642762995 2.4941224942244897 4.189495499233511 -1.3704650907578915 0.584414319663445 0.5163309937319623
P 4.870685082198705 6.320121570587382 11.647968017766399 0.9656446409031111 0.06651803832689189 -1.2856256284139924
P 1.5880837494141884 5.444712138700721 8.083298388361108 -0.3033220387979615 0.23554801657678143 -0.3814275248521366
P 6.101001310958718 5.299104093752497 8.841178664448556 -0.6541405805149895 -0.21738188719071594 5.049436806747536
P 7.5279992883890365 6.714472809689446 0.7186212683969739 0.6116983521903788 -0.5255815657959529 0.7819663166124275
Ni 6.48076938160155 0.4736175154589103 12.718833839440046 -1.4204504215370828 -1.3369566745878005 0.19120008658902557
Ni 3.8706431403170036 5.060107860754156 7.897476208075717 0.5722198344797822 -0.11454341716623498 -0.3599917235758639
Ni 5.499792719379651 5.678778981210286 1.1804007920280188 2.8422167336721116 1.5738203246522122 -0.3614420828691453
Ni 8.731161937027514 0.5882449468758817 6.688086127180814 -1.1422891982754648 0.3598243447600642 -2.051556488830112
Ni 4.743769584170109 2.7230269882826708 0.3153160570441255 0.8226938762387765 0.5494624861786085 -1.8522648834822038
Ni 1.692719147898997 4.239210592117664 4.7966584963368275 -0.7345276635144898 -1.4413869145794336 -0.38962728705410965
Ni 6.556825497233663 1.4361578845200473 7.045437118997846 -0.7647412109833926 1.1148262169685057 0.5102513631967859
Ni 6.163750867766688 7.362505951752631 12.917926237107414 1.0681828060783538 -0.35106279651735023 -0.3313342077401713
Ni 0.7070991675664045 2.2978321149313663 9.95838727953965 -1.1645708924918008 -0.7121045586242832 0.3877282702591838
Ni 7.961198597335536 4.987415658102097 2.0966300499546247 -1.6686536649840293 -0.37284543961008043 2.1149092420551447
Ni 3.3070432822213003 2.490031752401101 6.312788053924495 -1.435021120262406 0.48259194960830437 1.6646951945569135
Ni 8.850184819282964 5.174844316497628 0.0888110300008024 0.9566707195392752 -0.36957936726429896 -2.2670316459164184
Ni 4.552073135899607 7.272668043052654 8.891422105991904 2.047482061650422 0.1606918906978394 -0.16309201549889976
Ni 6.907399276002517 8.595599039426927 1.6147611634601549 0.14890184004144677 0.4078121854932525 -0.16595339620709482
Ni 2.3228052085228956 3.5865835190318585 9.135916146907782 0.924273277045176 1.2805137611087236 -0.4170144208178108
Ni 8.687300611827764 7.929031761858686 12.448182346650743 -1.5784503672250558 0.10958093095463708 0.46244092858172614
Ni 7.270757787759273 0.925560622076814 9.413591788185629 -0.406657503063519 0.11975632882574216 -0.7556580177352019
Ni 2.0651164286049255 0.12138880332369292 6.178573517011482 -0.7655284827713784 0.1939005162393241 -0.0373046499877293
Ni 3.148855507292268 2.334974932489514 11.045905868212337 0.17054281534999013 -2.2388844940582406 -0.36287007356492346
Ni 7.056250095790238 3.574795846123916 10.29309848471863 -1.1918029887348764 3.0372631905904206 -2.3158155001883407
Ni 2.86416224034883 8.993919882211824 9.120818607267111 -1.9502108013010735 -0.7826797977396843 2.403699405785518
Ni 7.6621830748509865 7.541147435798606 6.328798788778587 -0.09727280301124537 0.9003170233398946 -0.8543870935769996
Ni 8.615279328108013 5.427724844067378 7.156779843142051 0.7703161339680088 -1.118021583977352 -0.07177954383614736
Ni 5.290167826306871 7.374060666697966 6.177700390567629 -0.46862314613303807 0.8060344133052249 0.4596101440011504
P 5.176857073294558 0.56599652961501 1.293147786770822 0.87565834425095 0.17841399056795082 -1.2726927224024083
P 3.107528764725688 6.554160458141433 1.2455181335679322 0.6738773968222845 -0.5050304811174786 -0.48530677743630607
P 0.44431233559473066 8.643551106450065 1.7399742046980136 0.11386747414513292 -0.4417245219699812 -1.6419530157643918
P 7.396452586063803 2.499238251083351 13.332911960705406 -1.2666614286066638 2.309297496564165 -0.08871128659447948
P 5.919014550569699 3.753409375214379 2.0786000354806506 -1.042405954224566 1.4052986534973086 0.19555347846171484
P -0.041655679209781644 8.742194826136608 4.939710526519321 0.7168035067618493 0.8666494558841205 0.14121321314793747
P 5.180416670963201 3.3821209744104617 7.101163459149125 0.9369842968539411 -0.0020126595546545983 -0.7472199142701776
P 8.798617244680157 9.083711199319279 10.553849264097115 -0.7832048170052189 0.07106811959141955 0.07635867856639753
