# total energy = -340870.40627149283 ev
CRYSTAL
PRIMVEC
9.24057638790581 0.00000000000000 0.00000000000000
0.00000000000000 9.24057638790581 0.00000000000000
0.00000000000000 0.00000000000000 13.52451759547508
PRIMCOORD
 96 1
Ni 1.0194111645789345 7.468113841383219 5.7813260608751555 -0.8118222236315955 -0.6314181992168093 1.6496383002237913
Ni 4.856883997746048 7.222425392033382 3.023432558386404 -0.34914861021377286 0.29263679116997343 -0.6202572975039834
Ni 5.945913666063574 5.813006453524132 4.552298885630261 -1.2654738360564657 0.7856213968665114 1.4277122453058189
Ni 1.448081510800499 5.35476626233794 10.824253358504425 -0.6669652430834836 -0.672032630304062 0.7401234124347125
Ni 0.1028855033814512 7.0850087781368325 10.035962874341973 -1.4962773959697262 -0.12469130423351428 -1.6924607947059562
Ni 5.452300547838449 4.019623078149211 9.464254871507617 -1.2667951259710506 1.448041186671158 -0.751039545126584
Ni 0.7390520720080729 7.724632246451351 12.11666996483458 0.5044100739246603 2.694833130047404 0.40642867488216455
Ni 3.1047597966733327 0.14697321816605363 8.948469913904953 1.0780165043393242 0.4714305336748462 0.1960710415280817
Ni 3.341346278119996 6.5529918237639 4.951190549857138 -0.9083002986556873 -1.0098624730709058 -1.887286393862711
Ni 1.3766610946343754 1.1948804727143363 13.687352673146695 0.10647555255643598 2.0037352555817747 0.06238139045069902
Ni 6.5454330321448175 5.8762582000187775 7.686646084363669 0.8281263601082577 -0.2542723324591621 -0.6589827390986392
Ni 7.792642889869991 5.062237330448825 10.32041092203685 -0.42876513359583573 1.3359104927114736 -0.2457020742916478
Ni 5.337329294385363 4.547888358442257 0.6178933284961379 0.07652014384492628 -0.26259859293667037 0.20499199816679534
Ni 5.439640957962969 3.487347387632837 11.728258962532355 -0.8105605833103523 0.32213480062909033 1.3618773490888803
Ni 3.585325220807816 5.474182233112273 6.936495155859654 1.6659498928996213 -1.6560501172874058 0.4174304253093069
Ni 0.23972180907056895 6.552520554359777 1.3624731133972858 -0.6839954590928929 1.2319379090825493 -0.56510122115713
Ni 1.587272315394925 5.938733738083101 7.865521469015933 0.44776327196489335 2.087874092314223 1.0696614475064095
Ni 3.620236119019178 3.139301071822636 1.4814889672069405 -0.18733160477255478 -0.23745731778435236 -0.95802851911875
Ni 6.762919241859643 8.337411839883918 4.130726226257862 -2.6464470254345325 1.1087278173802517 1.43458917493131
Ni 5.6483024170711635 9.161902282686658 7.475352909053622 -4.847618578323032 -0.16538698218066356 -0.1824339103606213
Ni 7.684066115390504 1.9111730046761988 1.5408615196652893 0.5189416918819321 -0.18519270405268107 -2.066102504965087
Ni 1.532032148770383 1.940770571370479 9.904315152386491 -1.8899958223740743 -0.07833817089027154 -0.2535555088977956
Ni 2.6814951877343636 4.0601060440210945 3.484334959677066 -1.3559273021530327 -0.05718519096174022 0.39775094460250854
Ni 3.2154619037596515 4.37200322436204 12.815075512765809 -0.7110930866406333 -0.027793110952868266 0.46323385679666673
P 8.706046160250741 6.954263860510428 7.575177009423578 -0.28564956121886287 -0.6125714988239515 -0.018144789229826815
P 8.53327510046836 0.4566517360769971 4.70182527509748 2.344258328910066 -2.411840289725098 1.3751534973724961
P 6.442354400713442 5.89443441409547 11.870050065368355 -0.5688578599860848 -0.3129914435669255 0.07055672717263978
P 1.820384340058245 0.3687636884385422 6.400017775185337 0.012653684208268531 0.3404989049585749 -0.9051697234465056
P 7.210098462913753 0.8000130795756152 8.282887817942113 2.2025748609939293 1.6991361498436026 1.614864387077716
P 1.9128640301851132 4.289706649594865 5.688385265978369 1.4367314180852935 -0.14198891497169738 0.44023868145307404
P 3.491089821136173 1.870505227273286 12.965995381176986 0.027087600245411413 1.34146613242238 2.532444311263116
P 5.168457757907693 7.295869494464272 6.316477418814339 0.81609822529913 -0.648645104618057 -0.529266727957024
Ni 3.073960955027364 3.722510820290578 10.622953866734766 1.0040769767373803 -0.08281986081070898 -0.6022487767417047
Ni 7.861189486728614 3.752422566587608 13.383187083206343 -1.0183013478668785 0.7074140951271494 -1.0217823644369435
Ni 2.8127206153414437 8.775738588601744 12.890609833612636 1.381537289411653 0.5442997110307465 -1.8070890582765136
Ni 4.4039386569238355 6.241187049188469 10.86528613868112 0.5857124696495783 -0.16277885513385515 0.8822120862090677
Ni 4.043962756785718 8.760611764787027 4.958737328726703 1.3550999211557309 1.9701489349858974 -1.2116943283421648
Ni 0.0683340635979407 3.355863223882317 3.0231895312231014 1.2989475423338792 0.02478826268827344 -0.10024962625138219
Ni 7.977204925332016 6.149612935563643 5.460064480256975 -0.0618057204528871 1.113031072741296 1.810862923496649
Ni 9.312468237015914 4.678476186267287 7.172227808032964 -2.598492866152757 -1.6864544406108761 -1.0418696221051218
Ni 7.314313685260958 2.774704883408796 10.614271421007029 0.8409409953744227 -0.9690906904701825 2.7058387371292882
Ni 2.4890786622036107 5.595806701682402 1.4962036613074625 2.185370838410817 0.8729885107282708 0.9764358179813443
Ni 8.682621298692826 0.13624860502044578 9.978956833538449 0.07536031920887022 1.9721587663270745 0.036445130200911426
Ni 7.26332418385008 3.9101592083207852 4.7009603571322645 0.4954268965894435 0.1045035164317297 0.533867717064145
Ni 4.5882973997017285 2.2531852239983055 6.900831150659349 -0.2634344585744044 -0.7582995691231069 0.9470085138591625
Ni 3.689743735839152 1.3061924578530508 11.079717413788035 -0.01666897601524871 -1.2480520410355924 -1.1348347988799488
Ni 6.604424872849247 6.464032793303133 0.4315210640876854 0.7182708353359952 0.057062806451263014 -0.35588515760665806
Ni 6.34377593006262 0.8592719729423811 11.440889968589564 -0.3525712627420767 0.5341289411453317 0.8394394711282316
Ni 4.851071675095189 7.169033340719128 8.648077251370557 -1.1788842237906794 0.02139183541221477 0.24267897119460785
Ni 1.7003400100784143 8.808533394782824 4.1065168397507295 0.2962399351401995 0.9579285032057759 -0.2696932949999226
Ni 7.458078575248349 8.727031509599074 6.389280225232558 2.898416420792131 -1.7154210030465555 -0.6026868927203878
Ni 9.596153937145298 2.8164538082682276 5.306925949415796 -0.7460261510723927 -0.6605832508165398 0.5324916626522249
Ni 7.3775377100259485 3.179312768290396 8.53505298739686 0.4588467834725646 -0.1644611279322845 -3.650865444671732
Ni 0.8717181054995233 4.341342991364343 0.6351380924564459 -1.0866219866201479 -2.1902510493212537 -0.12046492485699252
Ni 9.192229854928502 1.3389503017279256 7.510448618796012 0.26757239200217786 1.2331908076530438 -0.2664639894293475
Ni 2.2087010884796463 8.4338095344686 1.5185057928143768 -0.851808791326862 -0.7103870617125443 1.4220578752335185
P 7.5720795681635344 3.9076180497691375 1.958201070919471 -1.1636509517806926 0.10973108337925618 -0.8463397977924908
P 1.5291490888863317 6.061042009318037 13.030737632669378 2.2287826297375486 -1.6058009913238667 0.3303222215358892
P 4.895675938109017 8.54010388653988 10.354492940531546 0.27987486351861474 0.2634069477705786 0.5744206987858429
P 3.3774954135892514 2.362547447484665 8.968364875220214 2.0059610595885 -0.43442644564667116 -0.43598864792746844
P 8.186411578456745 1.7376719393462547 12.619511646861634 -0.7085852326171151 -0.10122741678361921 0.05466062476767361
P 1.5108157850082637 9.17291704993598 10.687641598825506 0.8945248421381498 -0.40148598616490855 -0.4058607181938365
P 3.2822065881907436 5.415633940082314 9.143074607963088 0.5151197470326806 -0.8114720393810282 0.39543669464703507
P 5.764336336827667 4.033696476237063 6.947233629870088 0.6652436324066866 -0.5381221214651248 -0.8173007302476634
Ni 7.496602538891326 1.7785707311629533 3.735269284335159 -1.6084469135871462 1.1189042436926213 -0.5759515336080726
Ni 0.5940738943194765 5.446442022304833 4.487989093120476 0.6838841303260093 -0.9147347414271214 -1.0130758378018812
Ni 2.74283413488286 1.9437275558669418 5.258399985713535 -0.10744562977918913 -0.03587125997531242 -0.19842514358255506
Ni 5.401495857958602 8.472555271948812 12.939461065609509 -1.5505191880324265 0.37238392659262964 -1.9324851018865365
Ni 8.725312762360506 7.578945316541259 3.563358522229719 3.2044216628492106 1.0728367599105975 0.4160893379003802
Ni 7.362318480445717 8.151020170264708 11.65760736233531 1.177771707452791 -2.457129243469885 -0.1604116404532592
Ni 5.713263670227827 0.5089543234158347 2.274742565035173 -0.2934294622745979 -0.9560089175855601 -0.7743525088209116
Ni 5.300551799710609 1.6045983964288857 9.453489599825181 1.4158417191204777 -0.3045705664930819 -1.3155882362143536
Ni 0.6406574888306243 3.035205976970601 11.989457719623793 0.22933468867721793 0.1664946134225455 -0.4231452163058971
Ni 4.47728111301266 3.684347239133108 4.9799435278546165 0.9289339157456389 0.5899056817953195 0.686090908169341
Ni 8.634450173130139 6.062714553673848 12.531060848111196 -1.4808718600479336 -1.7727198367680244 -0.3294012523835166
Ni 3.9766174348787824 6.634946497198672 13.292207138653776 -0.5765053492290136 -1.304311891969586 -0.08779803075159072
Ni 3.2042438438261964 8.03392358420479 6.90448302651248 -0.917643173323168 -0.5964241996401276 1.908308504640333
Ni 7.169744865113589 1.8865006652838388 6.075606082020769 -0.6671657891300639 0.31707589804894426 0.8581568450320769
Ni 0.32013238216359396 0.7497092289448554 2.489377132826222 -0.25807242293154264 -0.3582171481739444 -0.11703404479857264
Ni 5.52178044292877 2.0261442581292854 0.392412171949002 0.007259509775890723 -0.1613817176760124 -1.2188111418926044
Ni 3.331107719300994 0.8938040075151337 2.839634718605184 0.5770398815762449 0.23026259980812602 0.47909087843358134
Ni 2.0510938148181888 3.118694586112913 7.619753550707753 -1.2096960669652133 0.7354172652082946 -1.4115860291679174
Ni 2.3913133622893157 7.277794926729644 9.739059453513402 0.6118960700234816 0.7098209047964291 0.4333396403403957
Ni 0.9901554992170575 8.581584834679319 8.087837728094199 -0.359158171930975 -1.1098932984432628 0.7266395190156647
Ni 7.158582248639443 9.154398934526885 0.5759974784695385 1.6981442182439788 -0.6774226909713817 -0.9480613806037091
Ni 5.658892117799121 3.069839657885419 2.7661019066394004 -0.31900602519212157 -0.19382621135796296 0.06439996354262456
Ni 7.753010057040841 5.682353941663242 2.874650035331577 -0.3622689496458148 -0.5830331230452023 0.7880996832036751
Ni 7.160661378363519 7.832682308067405 9.113441927077911 -0.20942303735495546 -0.3837561729853133 -0.23016361233641652
P 0.07303474488966111 8.81719181501153 0.46538685309107874 -0.11758400376477168 -1.1199702230632904 0.6161569021823646
P 5.296439743145216 1.1853719194428987 4.187785862405384 -0.582374663525597 1.1547469644228436 1.8177920465163147
P 1.814766069514966 2.250413051032872 2.0869139857622128 -0.9684954800883449 0.8730209066281028 0.8008729237089433
P 4.63880639113193 5.0208487880749 3.076070578654059 -1.0981338439144894 -0.5941186914354025 -1.077910574889079
P -0.054867771389518934 3.521491317990429 9.778848452086272 1.731266197608928 -0.042997586607448526 -0.4259315208017826
P 1.574640447249099 6.842674658075171 3.1090566647697546 0.5396228743803675 0.07685155904241603 0.5131507962317678
P 4.363150752025755 8.182724588412718 1.2005052116612012 -0.9488957035795464 1.050735557136184 0.28701584543877023
P 7.066509143880839 7.580774950698444 2.1654782916602593 -0.45934069238984765 1.179221809635756 -0.27954807630681533
