# total energy = -381171.9754373038 ev
CRYSTAL
PRIMVEC
9.23025080582431 0.00000000000000 0.00000000000000
0.00000000000000 9.23025080582431 0.00000000000000
0.00000000000000 0.00000000000000 13.50940506236909
PRIMCOORD
 96 1
Ni 3.3311236416076517 2.5499213722099823 2.301813155973409 0.43370165166550473 0.8393911343887996 -1.816743550647142
Ni 9.268463954545702 1.6278654768773169 2.475760922827628 -0.14629705542874807 0.1694074161939663 -2.1005360040526084
Ni 2.706014142078051 9.024000764317107 7.388172350146596 0.8371419333433067 -0.13875112476069007 0.08896788268997581
Ni 0.8096425179055925 3.9097680590299935 11.980424224135373 -0.2549585598929093 -0.3888397581558078 1.9549601430606007
Ni 5.92085508515824 2.4037326613608037 12.655110323288792 -1.2873451822082602 -0.004757826399959548 -0.28465737250892265
Ni 7.730187291123501 7.907085046106739 8.44568863592056 -0.7261278694865688 0.2599495853495975 -0.024435764444861143
Ni 1.5521312697477858 7.433323967576885 5.225627063035075 -0.20037763932323555 -1.6815207507546845 0.3809235886325246
Ni 4.681878531471832 1.7909916977914189 10.553033331646652 -1.5711520337914295 0.6189820303359855 -0.3860840497875415
Ni 2.939797932227566 0.37637639531951456 2.794150114070378 1.9354603824647767 -1.562221049850387 -1.2632601162345987
Ni 0.05196077338391018 5.358871270279324 0.5020933331043931 0.533561498677636 -1.9092240744760667 1.5357479432605228
Ni 3.5268326475512777 5.2918227290740925 10.705811518482397 1.1178367216600555 0.1649972029414126 0.3233046525674755
Ni 6.598706237282373 8.718008722811792 0.45729061915118996 -0.9922907827357298 0.6152703858123533 0.4443542462833444
Ni 1.4111484203027571 4.799638070113947 5.265317141116364 -0.2260339064387591 -0.2384993858956215 -3.0261593673677756
Ni 7.998806047477385 5.357172904147474 10.549075400139383 -1.6966527213001168 -0.3778986857632718 -0.3853582273651105
Ni 1.8422842010234486 1.7161435947306791 0.45240966257226295 1.6078725291409146 -0.2475077600418189 -0.019583064338250144
Ni 6.251436514572519 7.229178512478306 3.096220222046216 -0.6908351077225457 -0.04382419627380194 -1.6190408870529085
Ni 8.384436692165341 1.7710174352407417 12.331128523136865 0.08541307545918193 1.0093510806521262 0.23436479490195763
Ni 3.2239050492838692 7.135011494667767 8.614556072780374 0.6220290446924255 -1.307585163404219 0.8734893616240893
Ni 9.07242265957628 2.7868711383552833 10.292085836663318 -0.006333398417195544 -0.7146782328887304 -0.5398930973226186
Ni 1.0987044335465557 8.371089749629169 2.452618838231021 -1.0995335524754934 -0.06136014827503626 -0.4621509081451331
Ni 1.91871990720744 6.2328467896293285 2.244290233507688 -0.03724834282849714 0.36086589865070107 -0.7228065184228197
Ni 0.8668543809221645 9.030212723049363 9.056164495964097 0.2414013900337649 -0.051208918773647284 1.3799493760992427
Ni 8.839561894498422 -0.01896816522256998 0.6503293135625096 0.9676382742943721 -0.08140395429978885 -0.948484841294373
Ni 1.2012894400106156 5.46772361697994 10.439514170183731 -0.2701848899243605 -0.4971785891732276 -2.123070694820014
P 1.7525569338075837 6.368420712154442 13.435630477158506 1.4061759138959395 1.2211210209727035 -0.24148829332061636
Ni 7.611237050138947 4.2454538170905405 2.0653858220186665 -0.15933074868425462 0.9283186507591432 -2.4994043500890117
P 7.420290853565076 4.972299140018276 5.574804678568046 -0.4229336145157232 -0.5689709885251814 -1.154880404676914
Ni 8.99778685228202 6.632110514625673 12.098131150348404 1.0074394654517103 1.3158975399246564 0.9431778272591627
P 9.529126234781895 2.9592368402366813 0.5447804735933564 -2.0915361145468436 2.193758805364196 0.4569948178654904
P 5.398819795380677 0.34863118469054954 2.29978711594112 -0.32202012942809705 -0.2535377682859827 0.07302730020031939
P 4.075995644184866 1.595458066611408 8.095348931822372 -1.769071955602792 0.16970617838130772 1.5120487998713703
Ni 8.884531675989596 5.207384395518828 7.00303275479676 1.237678154000436 -0.9135345504714332 0.06232585462241524
Ni 5.4461802118074445 3.1967404214249773 1.3604245005148685 -0.965886581710588 1.1397147526800693 -0.15256283383280175
Ni 7.425598247727109 2.1329263355870904 0.7912124762997992 0.7856800180185888 -0.566273129978044 1.525293066475786
Ni 3.697112312770728 7.191832918079028 12.581038484313316 1.6258316847224967 -0.8644480773574273 0.3014083667150164
Ni 3.394683148042015 9.131228586891604 9.780633952357384 0.1646624453098132 0.5969240220946815 -0.009149270599435856
Ni 8.366816143547393 1.1943944427253308 4.671322816752352 -0.2558191081209917 -0.6493711841508042 0.9481505978834057
Ni 4.649868021986736 1.7730388601476725 4.019304367308709 0.1991147134504119 -0.8769541802442381 1.225049152382516
Ni 2.2159339802812856 7.363174062130885 11.048261204268053 -1.3306623569386566 1.453242271256123 -1.2740343240319671
Ni 3.9998645362745213 5.340558452857631 5.240433308209539 0.4785113517810275 -1.8546896908736124 -0.2149028295226041
Ni 2.519747682617486 4.295703301991597 0.3984468478079267 0.14905199246606587 0.8030928141783976 0.3239281450840873
Ni 7.588290646857532 9.295970101681107 2.583944076351293 -1.2773952700844 0.0973386232521743 -0.31687535200236394
Ni 1.6968339102315957 1.8537943236670227 3.914795776595314 -0.8073302492985128 1.816543261710878 0.9617054537497052
Ni 6.711749117808317 2.2528826738997516 3.1444224373383354 0.2538036203528597 -0.31837379092476137 -0.07676825529999037
Ni 6.1748438941263455 4.907668924500789 3.7647737426235395 -0.2471802014990711 -0.22280871463324212 0.3657941891902539
Ni 8.715839613893397 3.472364938072744 3.778918178821625 0.006776142381568974 -0.5915815268358456 2.5615430284012852
Ni 8.14619469091972 6.933570503029145 1.6584822185042098 -0.563307876702133 0.9675711685018626 -0.30002537032456067
Ni 1.8980533758530194 8.73733686781231 -0.02111419851417461 1.2494088121738032 -1.891345394423433 0.5097751948913156
Ni 7.769969671711958 3.842571833813298 8.777357388869254 0.3084971552409977 0.7874355672571148 -1.8047418982005758
Ni 3.9288654477625955 6.98611832035863 3.7800258089076144 -0.19070360656858124 1.6612668856016553 -0.6202058754407577
Ni 5.3144368433297124 -0.0115867337245217 12.03619062988973 0.24111805446539117 -0.6528300892336821 -1.45014563460867
Ni 0.47851650369903515 0.17855827708715036 6.829693261464764 -0.9152283932340882 0.20875763585681467 -2.1186013461947515
Ni 4.704391112969568 3.2611675714266988 6.2625414292096355 -1.764113583156252 0.8898516050321964 -0.2777971550539796
Ni 6.170644130050302 6.764066178869887 5.462163313948273 -0.6517975342041098 -1.364461821986605 -0.2724731717379049
Ni 3.1012903987648333 3.1215784898398735 12.009590893374693 0.8717466679013697 -0.3374207802538834 -0.41602223210787065
Ni 6.584085520147312 2.9512895943697064 10.519570903723839 0.823486290233085 1.1931384197168484 0.4557522037076409
P 5.7511661559846505 5.273971424188229 10.010306588837736 0.6830161258987592 -0.7299750111468009 0.12594985923096372
Ni 6.796279753870748 2.8316101635785427 5.503259159213698 0.5827891253551962 0.24705961676080676 0.39260513873551095
P 8.021964746525281 0.716738198393081 10.57200057384415 -0.7240419334918176 0.22050937707610407 -1.6429030383824865
Ni 5.053257669053391 7.313543004027839 10.377060447785215 -0.35873933922600154 -0.49454706508765156 -0.09844111228773368
P 5.885337080400844 5.480175225196605 1.168519280891545 -0.21634881794051125 -0.04426308358343344 0.5440729397319211
P 3.149878438536905 0.7862816763670026 12.023627335639393 -0.15001692748249645 -0.30130963635362296 -0.2603727889299451
P 7.162720707318936 9.393533851755349 6.622418751373265 0.473461705172262 -0.24563471138882212 0.32190005891046497
Ni 1.1193248136473934 2.0895349269684518 8.046877193209328 1.0127580494511461 0.021796012829168914 0.5985224769300531
Ni 4.077370951541636 7.581783320102343 1.225984975802823 0.5587953335437602 0.01819698262400092 1.8417953514094472
Ni 6.7111860725146055 5.679982462458392 7.585449575686968 -0.9182358126018444 0.07612522239935277 0.8154652197008214
Ni 1.0625126204868494 6.671689829698364 7.905069159350238 -0.5688195505489817 1.6674318767617864 0.5965383566204888
Ni 3.559083143555005 8.91325621621959 4.98875298494565 -0.5591995109607143 -0.33504148138842943 0.47054041776040895
Ni 4.221750533250366 0.7624860900196617 0.34605686776569566 0.14684135796799228 0.555851677534404 2.3038313312432708
Ni 2.6604628547917337 1.6616205037478466 6.02835612315395 0.004329223502973189 1.3914897726386746 0.5849681352843862
Ni 5.061878723222676 0.9120484575057507 6.366023616043346 0.5869499416011053 0.0012734673957849037 0.6290309299315554
Ni 7.499772542485538 4.53880041511414 12.854455124989679 -0.6408978565724704 -1.3482075649112715 -0.3384173398391978
Ni 7.993886323845448 1.3267008564967753 8.382018366477599 0.3546530849717699 -0.4175888052640421 0.025733657320678262
Ni 8.472530205004372 7.8699332869725085 4.028194021773846 0.2205374021005621 -0.5980501652793248 0.029941524754438755
Ni 1.853258969125461 1.6165768802509406 10.578579896554928 -0.06140128592561683 0.16546540082708278 -0.4736640509910553
Ni 5.363661770401228 7.758422628065517 7.439237789210998 -0.4503392602221857 0.589288617036611 0.21689929112734257
Ni 5.91203096547319 0.20452389537795893 9.345508857276986 0.4969217359674152 -0.004087282695496187 0.0020028893626417117
Ni 2.4034188328364396 4.864157522622835 7.142070790415806 0.47867950192777564 -0.54753775835207 1.9011194430910612
Ni 6.043875866708805 8.887503816720335 4.763781315155253 0.805879118674283 1.0102198564103249 -1.3752383437768188
Ni 0.4599581616082813 9.131643948173851 11.753073918735314 -0.19624536232241685 -0.6886985209955171 -1.1871734603826651
Ni 3.889452277202803 5.064749331195531 2.5910772141050655 0.9101558638071874 -1.315720905137476 -0.6561833219766313
Ni 7.213847066038069 7.987471299597425 11.111985009165172 0.7605662536700967 0.37969203021826864 -0.859334667390262
Ni 1.4111484203027571 3.8781452200749933 2.479881306747509 -0.6824360850255731 0.37332675012187316 -0.0058520879054028245
Ni 6.538746528627476 6.6709144886381715 12.882352634755467 -0.7262001174854009 -0.21517125269264234 0.4497126823817803
Ni 0.11762846908194027 3.0043266149871704 6.102765789305652 -0.13465612875571004 -0.7661681732379063 0.2616439423328849
Ni 8.3642593640989 7.473697084211202 6.224255272262337 0.0261000395211615 -0.4364514464964999 0.5031962561222173
Ni 3.013907615230979 3.511602733868922 9.1962981623432 -0.7237807094106309 -1.5536032262743888 0.24878251298918444
Ni 4.467201360305636 5.0190872809006155 8.332465765505644 1.1615393047543285 0.32252200876518006 -0.8120639073287564
P 3.306774240217316 6.87713675014798 6.4160488058519904 0.3257294599588842 1.442064914483065 1.2171157564680524
Ni 4.765763049984103 4.858813207457936 12.796675601554037 0.30297031188549756 -0.5844968520749224 0.24110159940515893
P -0.0634090533476832 7.267474822701392 9.845478309691496 0.7096239582942746 -0.7478148675416991 1.4325220079896361
Ni 9.112712703954147 5.663580306935032 3.4133134860883585 0.18065856362775337 0.47878825959149807 0.5986811139951044
P 3.17606465981984 3.3908064427410523 4.325954525690113 0.3005827854899275 1.6188305708143151 0.9217831636334706
P 0.9500235550039002 0.019798887787062094 4.492498708444565 -0.05719778936723053 -0.16593437004370132 0.15223990327574427
P 0.7979967105764848 4.09446537586874 8.739679505444178 0.36085484290710756 0.6676612407092437 -0.4719118441866389
Ni 5.985974503963705 2.5782028604055807 8.126164123839672 -0.5271864483892276 0.04387561833702766 0.23416836262043542
