# total energy = -381169.4248774227 ev
CRYSTAL
PRIMVEC
9.21467673747797 0.00000000000000 0.00000000000000
0.00000000000000 9.21467673747797 0.00000000000000
0.00000000000000 0.00000000000000 13.48661083909585
PRIMCOORD
 96 1
Ni 4.153930093791223 0.5712721629602618 3.1297833033116524 -0.020836734239693146 -0.133212454330648 -3.3323828960832476
Ni 3.8417460685745435 2.8716894291626525 10.60628892659567 0.528205119461729 1.656540169549947 -0.8697064975428893
Ni 9.235225230759829 1.8916625097754245 3.587721395568898 -0.8522780176537966 0.4303887852421879 -0.4715549750678524
Ni 2.1627214337629637 8.696866970797632 11.88225716092922 2.3104840606730983 -2.1397473841447474 0.7738683700956415
Ni 1.0083712643078724 0.11073184605880665 2.2243740698359655 0.14778880948292614 -0.49570637550307534 0.8915009677101614
Ni 5.2908645246572314 2.2518642142448595 8.949485484169049 -0.6153416053699209 -0.10448243338580715 -2.079230557706613
Ni 2.0675798988781615 4.552897942305244 7.185571563548969 -0.8234253550881626 0.40747999896481435 0.8495133104244659
Ni 4.820842305635054 0.3454563791306784 12.178381847937935 0.13077093476869092 -0.4519130324672088 0.5047851978758919
Ni 7.335260297455958 0.6738729784735625 12.838888938145113 -1.0212339481326411 -0.826645661797673 0.8013712035016004
Ni 7.081073446143875 8.276207773797527 4.201848254537755 -0.09960093692378975 -0.14967651342394223 -1.1232455513804525
Ni 0.9944663174661129 8.090734765162049 6.62313996122488 0.14870283665676326 0.825305859940327 -1.9627104764299812
Ni 9.207212614193264 5.527525061262207 13.211955252479214 -0.8447786239529581 -0.21002056172963832 -0.6611208684875646
Ni 6.166959107776597 8.052963806179696 6.362146228380651 1.71103084439866 -1.6948778887878808 0.5415072358872739
Ni 3.9203472591379684 7.466053415727618 5.953232979517847 -0.29378890249654566 -1.1601647930043053 -0.952163832807857
Ni 3.1059357205240623 1.0524450620177035 9.57689622078342 -0.5662103950609088 -2.397334382799439 -0.3516472082659105
Ni 1.0346330923390283 3.566623472249552 12.719492531771326 -0.10578289736478558 0.055640215072123536 2.0973316381826974
Ni 0.43577679526955043 7.420523699130444 10.598641666566527 3.171663494581583 -0.7165800778971336 -1.350277560066423
Ni 7.037957974790268 1.5818927298023113 4.366047339532695 -1.0990869518563782 0.9436748215002393 -0.34703233520171844
Ni 2.680973269597447 0.037136067771355065 0.6580403213075512 1.751732178772764 -0.26319046088439835 0.11962083168914239
Ni 4.199386092976378 4.282447186966849 2.1426850411766667 0.9893029037519995 0.5041056553103641 -1.4414820453964012
Ni 9.053419663372212 8.32862085374181 12.773802913607406 0.2673818732579266 -0.8592945581809459 0.6534003599148552
Ni 4.234917885568707 4.9351227236148425 6.247186688742652 0.8768978730850059 -0.5053400419380975 2.0926686854893894
Ni 5.573957816156591 8.355223624803548 0.6697641542212494 -0.8630396270456749 1.4125483930811864 0.24092059374260444
Ni 8.946096326151554 0.9995804629248116 8.460042412950918 -0.07491243303817421 -0.7876502543710822 -0.49944141706547535
P 7.626840306013807 6.220542451636658 3.1230271025002687 -0.3713554853281153 -0.45775637862186325 0.0434488152122542
Ni 7.486380992091382 7.811705146000142 1.6938777718654119 0.8069399558386295 0.42457397833262367 -0.46344622991778894
P 5.188019520216623 5.446426693366697 13.202447549264285 1.6140763439587815 -1.3115050672839155 1.1641744283843305
Ni 4.486939287902783 2.9205732880066115 3.8400828194659034 -0.5281968919316129 -1.7745545759839179 1.7052204083644695
P 2.320826853187025 3.73750964798211 3.0197056992844993 -0.21816658787554039 1.6342849576961724 1.404660762802994
P 2.708174994631823 4.779072177050763 9.664545302204315 -0.1754525939467817 0.29749874724796505 -0.7968902849121114
P 4.479530687995047 7.642357821243444 3.7347526167726635 0.8341116311574152 -0.5672761173212618 0.5475012486871796
Ni 7.884427372955188 8.771634855936158 10.32169456429411 -1.2305065759526614 0.39572131576698943 0.7375669645614459
Ni 0.5413032705722869 6.921383102361441 1.5508788930989914 -0.37338280017078923 0.3644731563859852 0.6293458900688129
Ni 3.575257624132076 2.3099627495909782 5.9744608297758734 -0.5045458281715762 -0.2368726489254759 0.7374684913103686
Ni 1.8362915186739452 6.156804534271216 5.852703623282232 -0.16130484169148993 1.428472777620927 -1.3799810006681266
Ni 4.084110489934356 7.129035837337618 12.811889014526134 -2.562471710863142 0.7086713645730183 0.27039649171453434
Ni 5.063787251614502 0.3078586560665651 5.051207375253754 0.10676325900018388 0.6877058180649447 0.8077830205652153
Ni 2.9370859882984823 7.498802376016294 2.2816239334762356 0.014944022904342005 -0.767455267480446 -0.75162755641957
Ni 0.3852177082374989 5.854756653206913 8.446124565562057 0.5512774279001602 -0.18767716103743162 -0.9171783178716074
Ni 0.5279032880028458 6.2083606493008014 3.70939751290932 1.123979858443316 1.0689903895813138 0.5389960394296459
Ni 6.663731532684545 5.734670989030764 7.016530166052145 -0.4312663027511347 1.0114213329175936 0.9632458016536313
Ni 1.3419241243330604 8.337153644182813 8.701264214424462 1.2930378617176634 1.3159001110278177 2.0349119382948953
Ni 8.37403999422096 6.787162124430979 5.817139579322145 0.07710558403475107 0.4196372031526385 -0.6934710026834959
Ni 1.4966477574808292 2.6816459409821047 10.781506921751893 0.28789670538182677 0.45234420646735646 -1.4869489194799488
Ni 2.791457240858345 3.0013214981950394 8.33074667961086 1.190692272169201 -2.2733092513950135 1.3680924767606566
Ni 4.824417600117891 4.746728662528181 8.524967180649837 -0.8431020075814835 0.5012381039545819 -0.06782724405661868
Ni 1.380773200466167 3.886363532198003 5.077776052012431 0.7723835580199987 -1.0244061752130358 -0.79154084767474
Ni 7.251618678845852 6.045353021977591 9.50155979010471 0.27175763372811906 -0.7449696847834203 1.2034243750238889
Ni 7.201260471761548 1.8039664335043677 10.075145758334665 1.3279948374088226 -0.29963687663689037 -1.718771407576027
Ni 5.946931062258019 2.4567709756233915 11.79899057965275 -1.9580521517223635 -1.5716603408864158 -1.0212432041040218
Ni 3.1216006705777346 6.8416485065882515 8.193776963679804 -0.2598292577216493 -0.9231288790280876 0.26791666271547404
Ni 6.055000788275353 6.0916475567244435 4.698397684274351 -0.7435221537036163 0.6382308512632686 -0.9470097994107433
Ni 5.487505721213326 9.136701909598735 9.894532570086428 0.10783952278349813 2.0933870517126527 1.2331586688635279
Ni 0.37088980774429026 3.120365903926445 8.585266180744673 0.11136064856287918 0.9939825686158561 -0.7038878271414457
Ni 0.3610678840606379 4.189194660764989 2.0176372737041044 1.4717200183453363 -0.1572309287324324 0.14329066450225644
Ni 2.294500522420354 1.7374088251292659 3.7412802936067937 -0.117480645417688 0.47710752945496543 0.45833179150935904
P 8.308873801997683 0.6629932099274622 1.5648105625026072 -0.4254435254217705 -0.5110044393127264 -0.049692739239437005
Ni 2.0435388078840258 5.31056550301885 11.697139838806725 0.8542641948458901 0.9807861245302399 -0.558970939889676
P 4.51149640078104 1.7668773605831736 0.7214188662894078 -1.2370014396483857 -0.7107236191163567 -0.8559809204266807
Ni 6.583655993880774 0.33560865435282 8.038451612156443 2.0631771037881754 1.3502181675833973 -0.8746658984306936
P 2.2868154822175524 0.567718983701029 7.195848692251829 0.6354879984108087 0.789227626160531 0.8641408305296536
P 1.6660780143260452 6.925280910521855 13.315788991708505 1.7366284903621059 1.185558036266429 -0.9240169380599956
P 6.057737547196494 4.051730116705766 10.097668270641243 1.0956642993280745 -1.0118944158992702 0.4353186184436374
Ni 6.068260707761961 3.2984026686246786 0.34727351333690437 -1.533438835511372 0.5755193311666604 1.976804492629202
Ni 5.473757423872104 7.268628971668839 8.689463899695797 -0.4352743954692632 -0.581483004949263 -1.0174479987276477
Ni 8.347123924158149 7.846048245323693 8.26231572750287 -1.2194253784378355 -0.42129633602261635 -1.5053186802363883
Ni 2.522840206143879 2.660406111644626 1.2595900683186105 -0.360447837276676 -1.419337133868246 -1.2142186374259154
Ni 8.019532959829858 2.6182673960002476 6.438116628802709 0.6020279189801503 -0.5354618010241424 0.20925488720820737
Ni 7.280073599884521 3.856821279332077 8.22273224165254 0.017421280800240965 -0.14375192040939114 1.2191209598235393
Ni 0.7683234126207026 1.497274355482976 5.922455960000633 3.5904864293630423 1.4398635359563718 0.1840663037577217
Ni 6.418427629520544 3.971921803520558 5.60287715689097 -1.1733779492604695 -1.2010152513617638 0.44588816642936757
Ni 8.324501893345346 0.23160444360824037 5.838407974156781 -2.443899632153488 -1.7585291470899391 0.7580619991910041
Ni 0.9721207269483747 1.3895271431432192 13.21074167958388 -1.5232780929282863 -1.7980734850414646 0.19384703729356936
Ni 2.3663565697841977 8.629433968154824 4.3294309795160615 2.464430148006672 -0.3467176321747771 0.7230086071312967
Ni 6.249725332118998 7.571100727852242 11.939939192897441 0.9770207439505367 -0.39333096115794197 -0.7509868375117776
Ni 8.313112553188676 2.434628107988701 11.878601698760813 2.3163328061443917 0.25089056047112274 -0.8790082345597894
Ni 0.012800107129150473 4.543425254861024 10.434414937542082 -0.7043727371976642 0.6860027193309088 1.0945111595602375
Ni 4.413406169415547 9.197445057100973 7.312224527668208 -1.465842733628953 1.2717501559834807 1.7411189220332917
Ni 3.57975438626513 5.402140958097316 4.337860565580238 -1.0180010430176405 0.637437923048328 -3.3953702955490623
Ni 3.892915167191038 3.7964190748604185 12.605826732714231 -0.055134221969982466 1.887156038932434 2.1933551421678743
Ni 3.0730024667053426 1.7272450369473835 12.45198494410772 -0.6420911055496232 -0.4013011238476121 -0.18423676789731494
Ni 8.33893207674773 2.5668402864416926 0.6908325905757879 0.08731260647473996 1.1562423180214474 0.4555912526497445
Ni 4.678374192235157 5.597713252179159 10.903520296252294 -0.2617645270711492 0.23265244019654124 -0.045983665818965964
Ni 7.487597329389668 4.82697006550899 1.3742722461938932 -0.3265925792901279 1.0351662419430172 -0.30321456668581975
Ni 6.263031324988116 1.4847884688225492 1.8087433218030875 0.8377481994687379 -0.6857337819402384 1.5510555201518705
Ni 2.4461280242633965 5.084271477478803 0.8686546533115213 -0.6041454795437853 1.1114891821754729 -0.6225070127701086
Ni 5.48244686381364 6.273471553465065 1.91967051900374 -0.03492278001911405 0.10252608099038471 0.47545173901909726
Ni 8.470324148992027 4.378712912384914 4.195387844842091 -0.9683391570161387 -0.999023216363557 0.5965707525203209
P 8.993358401931133 4.799648549680086 6.335618096198583 0.05547360758727221 -0.822758410928125 1.4089773879004766
Ni 6.361103127000606 3.902802515077856 3.3487793050619876 0.5342886066516476 0.5921715950113607 -1.7967455102586605
P 8.1980304583532 6.544336969246057 11.535785324448002 -2.9412183464490056 -1.712855042091592 1.3656517285296481
Ni 7.091744041533376 4.298563656169126 12.14202257739571 1.0473702402083767 4.082659337791562 -0.834785260185672
P 4.085658555586719 7.866062522686383 10.654638334202504 -1.0584123569551513 -0.6515908175099424 0.33587143348889253
P 0.4273352301259216 8.484136949068766 4.380369711220002 -3.318408950401659 -0.3218298677941619 -0.004890752433398028
P 5.698531027789293 1.9298942025828865 6.5215177443561085 0.6599980677370311 -0.07159956661485734 0.13089074817600685
Ni 0.8156914571800562 0.5785176630939103 10.734196008186853 -2.063190216414298 1.1759454528773297 -1.1841187327167415
