# total energy = -340869.20009901124 ev
CRYSTAL
PRIMVEC
9.25118242568183 0.00000000000000 0.00000000000000
0.00000000000000 9.25118242568183 0.00000000000000
0.00000000000000 0.00000000000000 13.54004060383560
PRIMCOORD
 96 1
Ni 7.296000444594337 8.639956705103351 6.541288065724398 -0.9754742253990233 1.351781398305459 -2.600899418711721
Ni 5.235910160612417 4.583146736038741 6.8021103493748445 1.5341718570226546 -0.2562551672171458 1.3852268224480981
Ni 4.904699331153989 8.62687553330138 2.7106889318924683 0.25597080320750754 0.025260060118369402 0.38690268903409497
Ni 6.406499264424851 6.661600616927957 7.671489282877801 0.05691445379885682 -0.1701962306438488 -0.02749537720679136
Ni 4.500857469292953 7.903229549783777 10.649850998929457 -1.0724045574691854 0.6681613202741139 -0.06691116000025252
Ni 2.0692859592090493 7.443427286062677 7.85429357066009 -0.20711135850264328 0.9626112533934259 -0.46088798227230954
Ni 2.1241362191905875 7.816730995081908 10.470133830687704 -0.6310217351093391 0.19304279622471915 0.031802746332893615
Ni 1.071222154501978 2.196082664101436 10.398669372375783 0.7167238025638495 -2.514637622098998 0.899709985883515
Ni 0.4526390732499066 8.436467698769416 4.945310171306958 -0.20777136068414537 -1.3850499305506017 -0.38407164734320304
Ni 8.96178683568823 1.4642123795004152 0.15901579756192646 -0.5801707138957427 1.2962237156448129 1.286062973061727
Ni 3.7286705321367726 2.3457297893268296 7.2040594193329905 0.6752516514619918 -0.48608685013544023 -1.2186720452115787
Ni 7.801040989865398 1.0475853836716813 11.722100034669072 -0.2795956417152991 -1.9797126674149323 -0.6880971399660923
Ni 4.128312357224049 6.128769519964445 3.94131635873209 0.011331622962735323 -0.5434255359559094 -0.6127293645580544
Ni 6.489806161225957 0.443720008374177 1.1933701402780341 0.4781208012108281 1.0793390798054896 0.29370148498906196
Ni 0.8096681023299368 0.2874647636168535 12.084120076611313 1.7460549258823286 -0.13850121353341308 -0.3028222163434075
Ni 2.4681691873459988 4.049945591782388 11.458299795429479 0.06936142131295797 0.5529530158303703 -0.36796831402343727
Ni 8.787513063124186 6.048247229041977 1.4342561260266056 -0.038545464373365874 -0.12540067159571308 0.3173425214467696
Ni 7.006133148928705 9.047351020975674 9.58900219516408 -0.6852802393425875 0.10830926333106507 -0.5132533832479031
Ni 1.6804032591611608 1.2743688670900357 4.982288072162448 1.179633443251878 -0.6472194279151241 2.409107207064651
Ni 4.891978955462537 0.9681362298984569 9.916278496781363 0.18608847639407305 -0.5273898226492852 -0.37514503427753454
Ni 8.48243682372274 2.7230947673850037 6.712461767092655 -0.5438898771868375 -0.6582692579713825 0.14560028647203957
Ni 9.146190652893829 3.55168616315266 1.8342828002984373 -0.6826749405092566 -0.0005111353084636358 -0.5063157755878054
Ni 9.394575647031848 5.545556484080464 4.228364819144496 -0.06023529064197368 -0.13174538286681825 0.5583453904905352
Ni 5.589120301630316 4.683716339050936 11.380701803238697 0.03353721252549708 -2.0922544807701065 -0.25828556738361325
P 1.4556365334887968 4.8234646991928 2.488496810260054 0.8440972816152171 0.512145494895705 -0.4655272808165338
P 0.9589775594006119 6.525395459615058 6.265139348322659 -0.4520616422299311 -0.41760191789016465 -0.948742465831134
P 5.8260615832371885 2.623903590538647 8.69423616713568 -0.7441942400699764 0.8695002950693542 -0.33920409740655133
P 7.030019701681671 2.89379758357312 11.460222191115795 -0.21959612123321534 2.4263299987008407 -0.7708570940731433
P 4.226735685937758 4.141458287302268 0.00761094769553235 -0.18014151478201879 -0.8582095526468833 0.20057792825949974
P 8.6800050733712 0.10274548109410646 1.8653982269170755 -0.9648838514776866 -1.213095836675382 0.13447563731378775
P 8.41416309819335 5.925197252989619 9.561096003692615 0.2000552229868103 0.42146525750031283 0.39541201205668675
P 6.821553559259006 8.153797822949565 11.753621588191605 -0.7136667609050805 0.5917777020070518 0.058903202094111456
Ni 4.078420730966596 6.170279575039021 8.481332232553607 -0.15476164125633346 -0.3832190695349207 1.3823060492568775
Ni 3.442559216493489 6.006515145591697 12.632816951255434 -0.1691132819923152 0.6087022456765324 -0.17895289379055634
Ni 1.212422950268248 5.047907633483927 0.2204084936809149 0.26973674664334835 -2.820703285080368 -0.6410402956876057
Ni 7.528972968985477 6.01109448084062 11.750832356721807 1.0133653440178418 1.4905124684614912 0.673386316118479
Ni 7.839368638221531 7.3479180797801 3.344674306590865 0.864547321939453 0.7243314397077784 0.35849559864631164
Ni 4.220953696987098 3.7814207737314307 2.2285145339643604 -0.0013629417857976528 -0.19547634536687625 0.0666170257986014
Ni 6.368624924002451 5.552235837716267 4.240483867985079 -0.2240734402782786 -0.6610082541691004 -0.275508359019803
Ni 4.389824779075645 7.828970309292664 6.726773346143329 1.0770500266609966 -0.3458712250140818 -0.6352982509975059
Ni 5.747565301243033 5.778158961178763 -0.2061376198324547 -0.10972594117293362 0.9051028747643122 2.190815663575472
Ni 1.3339094765083488 6.9202636746246675 3.045615036171033 1.7832978693941868 1.8957856895829737 -1.336768984057027
Ni 4.702635006897494 0.37806621767811044 5.325148915517782 1.3770077769724156 1.4040786650472787 -1.2456650288606546
Ni 3.20152891230071 8.719174579318551 12.519473315694325 -1.733102222376402 -0.36178815335465436 1.4151277237725888
Ni 8.762423856669484 3.411826788822943 4.259439540560921 -0.28622317433414574 -2.102752809198269 0.4037804386260401
Ni 2.24029406441376 2.814551955810958 0.6492054198529973 0.08221976533286485 0.8711643130353384 0.8280805944719867
Ni 3.1912971046536223 8.027472928355552 4.681780066591139 -2.2473701629317486 0.35202130377587765 0.13090591768465842
Ni 2.1514919653139484 3.2034254046765263 3.771903157359529 0.5530928838423442 2.446279959460206 0.5625727983083214
Ni 8.7651992113658 8.031719221040918 10.726027084397492 0.9846787747164266 -1.0940666158236512 -0.21999927020890497
Ni 6.392687249219516 2.300574768417758 13.389407320136547 -0.3471760598684343 0.9470866753952656 0.2256346141178114
Ni 8.71382739593698 5.0595918767554195 7.557915292876899 -0.44747093753545514 1.0709549695068523 -1.399932761199705
Ni 6.796899158373393 4.550342043528279 9.197383920503855 -0.3922870932744599 -1.3210554299765118 -0.522262528725049
Ni 3.752159284049932 2.953347444173754 9.41762589290299 -0.9822585953107084 1.4349046492892 0.8883431388074701
Ni 6.045323855428524 1.096709161796486 7.294385188161081 -0.5370456005714944 0.09216916323609287 0.43248603409084874
Ni 1.471872358462249 5.721763753749609 9.414836661433192 0.43029751107996217 0.3128171227725903 0.6015273251946479
Ni 6.166449585558103 6.6850616152941535 10.079287104633057 0.9239431473992669 -0.5160569141349692 -1.210227256878335
P 7.389696419141988 4.2921415449476195 5.719882063265506 -0.26773334306007435 0.6840862190344864 0.7810726011535645
P 3.8473817036805564 5.527359408454949 10.535234400680972 -0.4668683682254605 0.8537227205201233 -0.6039919846850565
P 2.8466905631943056 0.9132249121135998 10.863783664985633 0.6320776871776792 -0.19271446635102296 0.6809574435975175
P 4.83283614688403 8.035613968798081 0.3841784738376318 0.09652898286668538 -0.4614240572814376 0.6044126171622429
P 4.039510258124237 4.26620122971938 5.10615215225906 -1.3011712894580754 -0.6973603104355732 -1.8995603261340575
P 2.9678162933238847 0.19732864402634567 6.62435628202162 -1.5923582355553998 1.1842542298533412 -0.15343160959100027
P 0.18637524415821596 9.432412982724966 9.1875536141695 -0.33728425467601914 1.1536426756150713 0.8222884132702419
P 6.998630440066329 5.105477741067855 2.206431036645769 0.1314911007641671 0.8909317254702527 -1.3612433150493073
Ni 4.195031884123501 2.5217890400788368 11.86010084647049 0.6546799979582273 0.20196992351101992 0.38053123829011243
Ni 1.3402002804866664 2.4464844159854446 7.646792326553512 0.5242147673554133 0.043707211079963434 0.4502528711559665
Ni 7.997776633104964 6.591624673851492 5.664706161666268 -0.044111902717549833 -0.358564247100718 1.2290878412282638
Ni 5.506433234044722 2.6670418537017286 5.363481189465076 0.910249194851942 0.21072658665772742 -0.6823185856111024
Ni 7.0306765356264656 0.47673655295979195 3.8710027475009072 -0.0057353598218804445 0.11187564052608474 -0.3734967000408342
Ni 4.211924543041748 1.6241653218314647 0.6478417955788738 0.8267202237893503 -0.3675343118098122 0.1982503085675876
Ni 1.3715525373727235 4.243360060568694 6.057326339371862 0.18148234508062938 0.16723354847109909 -0.35405221816297733
Ni 0.35623250228218734 0.3313329450650665 7.045681953351218 0.826283650472564 0.9334037785915346 -0.548325801471004
Ni 7.925219610160926 2.0150370260783803 9.134178917768171 0.18084651126884338 -0.12008825824386414 0.3003310744904376
Ni 1.7265019006669806 7.102882013642304 0.3583232694867459 -0.35295692821626956 2.7714430053926593 0.481673551559093
Ni 0.1123713362991647 4.686103144089768 11.576585412586496 0.48364790167664445 -0.5534196710541437 -0.5274584711036916
Ni 0.22510254359061846 3.7767211731123345 9.299664992245445 -0.851784880067462 1.4972482445234276 -0.8360944659153988
Ni 8.492317086441627 7.968061835489734 13.451949013099812 0.9189904313796817 0.8233831889963175 -1.128758767889198
Ni 3.3499548814597238 5.924059357564128 6.238370127158454 -2.4762307401860255 -0.7021199366077456 -0.07551689939139251
Ni 2.3578858428966964 0.45984574427800884 8.771360498791624 0.07346413062742187 0.41884787448212385 -0.10427957334638169
Ni 2.900883989231048 1.481179047877231 2.4893368176148063 1.9184255384696765 -0.2869376839026671 1.5589796600949537
Ni 0.6512582572100395 1.5817671532540674 3.038060520687659 -2.1726917002812516 -0.9081380620462101 -1.435101338681038
Ni 6.774705571985182 3.071559051872201 2.6452636453997322 -0.2386060866768149 -0.9898024690962371 -0.08200045023320716
Ni 6.801450740075353 7.467896663301869 1.3488362591833718 -1.3055385652878355 -1.8262525185788419 -0.13104475725536788
Ni 8.519617325471062 7.810338428098059 8.073736240906687 1.5398856195779802 -3.069089076851766 1.8443458857454431
Ni 1.6095114490349127 0.12630454199290636 0.9837651773116479 -0.6340031863351663 0.1677148589828918 -0.05487428344037647
Ni 7.6624767810606285 4.316620173369133 -0.21774045269952247 0.7586626088894804 -0.5742083256647208 0.7332575385528146
Ni 5.1750096273929085 0.4455878220847981 12.372198193616052 2.8008019181707504 -1.0397633743953965 -0.49181681064068206
Ni 3.6640325212595575 6.391586358523311 1.608840738316636 0.24463378092813357 0.37494834488569617 -0.25816061176997473
P 8.6566735915575 1.1863716208521558 5.111920264436238 0.7325312019097514 0.28035000338282035 0.4276310199913926
P 5.2001358385768945 1.6589127626293492 3.356522295789441 -0.9889614612521807 0.17787534445566142 -0.7449036074321752
P 2.7786758707699053 8.640558031954221 2.694143192311261 -1.2152694472879328 -1.447773791942384 -0.6126072371578933
P 2.441313005067975 4.332356434497249 8.058273814775275 0.4032461633891249 -0.33550402284714476 -0.4266629996511684
P 1.06238727538537 2.8176233483415487 12.532525808831103 -2.082071626699834 -0.39858552468866193 -0.5571269447024018
P 0.8972703230827076 6.719753548998112 11.96105529866724 -0.0001174994144707654 0.14133996853378886 0.4595569221657118
P 5.181799995216563 8.470706324539641 8.46565332875588 1.2671170280868436 -0.03622890042504729 2.276766099595363
P 6.103930095432411 7.816194426507288 4.73583194953837 -0.248345682562082 -0.3904484974038243 0.12372302678297402
