# total energy = -340873.3065406506 ev
CRYSTAL
PRIMVEC
9.28427513135823 0.00000000000000 0.00000000000000

0.00000000000000 9.28427513135823 0.00000000000000

0.00000000000000 0.00000000000000 13.58847512365749

PRIMCOORD
 96 1
Ni 6.275250720923242 8.682997448567304 7.07229829769955 -1.2631523870121408 0.5251115681380698 1.2527877559483651
Ni 2.0241019182859024 8.684427226909136 7.8157783933144005 0.7103754917483186 -1.6361004136383563 0.7813322825728545
Ni 4.385910053492422 8.246497261936117 8.883696548523172 0.06338052113917471 -1.211646762933681 -1.0777763633040598
Ni 2.022486454445132 4.41172962211991 11.267046986889115 -0.6507053295811955 -0.3567343929808308 -0.8575922307778586
Ni 6.096129204371598 4.472606612947107 9.286417757614844 0.18346929360367112 0.07671091969949369 2.123756665143446
Ni 7.943579223241748 4.337631823768245 1.14125371458729 -2.2370119596258764 -0.27190984303526716 1.6332950829790773
Ni 2.306158191174459 4.496021554363333 0.14894205240906436 0.08785022414576484 -0.8856437375984361 0.27921717532995777
Ni 3.77813356263977 1.6564446303864016 3.6179454679874565 0.31451353663840675 0.11756934847675235 0.972460378273364
Ni 4.306715188194878 2.4791149491613225 9.901309716786844 -1.2788983369924878 4.017350232171107 -0.1807619219748371
Ni 4.573173879172546 1.3889646691645678 11.96181249185728 0.5869026333029377 -2.757850097199573 0.059106319243853046
Ni 3.6871012467848554 5.213361773865025 5.947145372725273 -0.5459747847403242 -0.6592586184678453 -1.8421977290541887
Ni 7.5690608561564465 8.534309785291788 0.4894920427459344 -0.6001705540564374 0.2527921483692098 0.7902745793678068
Ni 2.4017490860283286 7.606197955944275 9.884542316232642 -0.24466720526923025 -0.4677533419335751 1.370622442271362
Ni 7.019645317620367 8.68624694479874 11.659496074179476 -0.2499415662942921 0.3363949100925303 -1.0558011445845492
Ni 3.7797861635803285 5.458661602238578 9.742447416596956 0.41542059396812975 0.5948437425268852 -0.38519779052784625
Ni 2.4946104040477937 3.660028301039529 8.639375282729027 -0.4149755360109112 0.30807883675665654 0.3840688191297257
Ni 9.07014242958047 2.7694713638524577 5.548989241625019 0.18020090726504448 0.7090914828295722 -1.180670626267141
Ni 4.71085967663592 7.376811374829806 1.5672942370632357 -0.8213761858686177 0.40472711881002554 0.46376350404789163
Ni 8.75340010549008 3.123118680857001 3.0347955164316085 0.2327804811339733 0.39342532064396113 1.0227190173185998
Ni 3.8573098593874198 5.548904754723001 12.473200568638118 0.8740033251460303 -0.41817810210860884 -1.0465091777596622
Ni 6.021706456396791 3.3623465934152437 3.750554623909834 0.6104217994708003 0.08208452530658121 -1.1386006936802844
Ni 3.2516223303978338 8.699931966070555 13.290479508951343 -0.6209365829591952 0.08647339840289624 0.2219499661773726
Ni 0.11192471976805177 7.167515964700552 4.107238827249526 1.038726962711082 0.4184948620180793 0.6249374765884721
Ni 3.870994880659235 1.15597578937068 7.743732419726014 0.3490987308124439 0.11075335399618344 -1.087409772628766
P 5.417625106973028 8.503114621470012 13.16532933952135 0.5299192739393583 1.177423837195069 -0.12277866059183373
P 8.264415912583745 3.1151620572274585 11.656098957976383 -0.0901773296170447 -1.2591628062367732 2.3219511807724333
P 5.926329099866701 5.440631540291587 11.479801717863605 -0.12884697827310068 -0.002042998571957772 -1.3252918366553625
P 0.0286661273262247 8.585763237047823 2.4657372373902517 0.021160693238015168 0.8258586471200036 -0.684517393034634
P 6.593357833430833 5.935177013891151 1.7065769298174858 0.7623968791209321 0.4547322470835588 2.50807128173539
P 2.7069324878097554 6.500858602134299 0.860859326914239 0.5322854601786897 0.46276977267605457 0.3603817599254309
P 0.9150739220395003 2.5649016496712056 9.525860136924363 -1.0075322822758326 0.8011611443733234 0.4557702014297699
P 6.652118009570125 3.2966696324404694 7.575370449410399 0.28241691321417817 0.39147231068264843 -0.7423129638868634
Ni -0.012800229869369736 4.8632703341651675 13.11986238825111 1.061300991356856 -0.4287412223364358 -2.7605443562022844
Ni 9.030099351734243 0.6114279961892901 9.192303990905035 1.2275377231323246 0.7728327297422755 0.44996310782968957
Ni 6.850587955111226 1.357212448845975 13.048469099191495 -0.13849015778981955 0.7351539842445791 0.43005325627964003
Ni 2.3117473246925266 0.9291980895163062 9.80673452161217 0.5196993959835631 -0.22571354698486287 0.19990995565819766
Ni 6.61307763341817 2.1422257484360374 10.668094270946051 0.0923087741377507 0.25247667401132007 1.1671278545856996
Ni 6.444131682208392 4.617515576319214 5.753550599958818 -0.5759906143761242 0.8736413138209213 0.28434241237166513
Ni 4.2014872159460666 7.377860497898812 6.379217888634257 0.46405866669080725 1.7233052908906383 -0.15462125902372725
Ni 1.8932864842832768 1.8528627511642257 12.664268161764012 1.4791278807736332 0.25917285508457305 0.5281187303955098
Ni 8.267433301941505 0.5784177566153841 6.417809834306274 1.8186294548159452 1.4556717066332219 1.4762855262288317
Ni 8.14046155776692 5.060421912663801 7.351351107642766 -0.03453248655923086 0.22941105044110816 0.3825032744148187
Ni 0.6650474692904513 8.691548265793452 0.1938937264197465 0.5326569845854955 0.05928629646514305 -0.2160261444937699
Ni 9.215134951427098 0.8871366102966117 11.899631060400036 -2.5914094769434146 0.8154425939930021 -0.6074097521173539
Ni 4.672822002178236 4.730514486698628 1.4526213719108847 -0.0032604159188266424 0.30569850944993804 0.7062231601428418
Ni 6.96920385183355 1.3881940743439705 8.570754278168572 -0.8807205892652058 -0.40301527832524137 -1.5068052920842439
Ni 0.060344073445242286 8.000398985917126 10.607231206531274 -0.006670470041640125 -0.40225603156171363 0.34591107711308167
Ni 7.8353895672848575 5.485251765686663 3.663357642035508 -0.4095399668176366 -1.196758790078255 -0.03429954461281835
Ni 0.989787267820148 5.1964643934615635 2.590140022687014 1.3284290967327639 -0.14383265304865553 0.5027619967982762
Ni 1.8260683336673076 7.120129025371283 6.0233766974597485 -0.43299511251678335 -2.703027750043055 -0.38186281261734234
Ni 4.696979685590219 8.540316711182468 3.6257043365606285 -0.5875479801964204 0.05651439014696073 0.47092196946954384
Ni 7.386392746575066 6.526009702965606 10.046897360657573 -0.5510719967575736 -0.006806224288556021 0.028880687590092196
Ni 4.6867484145986715 2.0206667365555284 0.6874012180802399 -1.364553867479779 2.1540961966672514 -1.4181726812464996
Ni 2.39027372219389 8.868116606734683 4.572616822675728 1.304886019305501 0.4310053357802642 -0.5415393746767899
Ni 5.792449855131579 0.512956190819379 1.9314522817352282 0.11517153766853715 -1.1801795455633353 0.22989518916637824
Ni 8.022959774038233 6.741906232582147 12.514713347208447 0.2139700332956896 0.07434833300458808 0.061138004961901166
P 2.705289171144144 6.287440973928597 7.82023484528894 0.4006485778652777 -0.11945448131460717 1.2657420021161878
P 7.380868602981627 1.8644959476727632 4.720418766121306 -0.31437546839864566 0.419529988150813 -0.2367438366570955
P 4.091951340121867 4.357500172154733 3.7505007751151416 -1.17778173475512 0.15581142267708648 0.01920639772512176
P 6.71562245020731 7.020694440689374 5.694277931842455 -0.7746906088866207 -1.9588782471680843 -0.260206695665726
P 0.6455300664969581 3.6105802526720354 1.2040079858087624 1.4783920310488732 -2.2380290880364813 0.025103479935847085
P 6.481890828417665 2.623931069783959 1.6798614286576168 0.9897405055100503 -0.09410648946812179 -0.5101042960959602
P 5.093845302472846 0.7309788193987723 9.554070406350691 1.581645991344218 -1.5444395574972498 0.6398336769740142
P 2.8155399361392592 2.99234966822911 6.57093816628892 0.6441932394942905 -0.4087850909294831 -0.5499651368466401
Ni 8.858925174537195 2.7871114862516766 7.7070567484030486 -1.4259921772909183 1.0581513899842807 2.2622180265778584
Ni 5.842705635419458 6.365066796760106 13.46623269055223 0.6381927989364815 0.25448779090407786 -2.1026525361749786
Ni 2.782766445576501 3.3799310101647806 2.168109378560659 -0.34032509838487196 -0.9266474337043074 0.4431417140324819
Ni 8.481482260843602 7.556619927727524 6.953304530986886 1.1811161984449916 -1.1880005842696508 -1.0459430208435472
Ni 4.61636432622579 4.195471005780438 7.634955997592474 -0.018874211196683623 -1.110299789853062 0.3194233152351983
Ni 2.8635025005152395 6.363274931695343 3.9371657650611875 0.06392970877442539 -0.07839139272571016 -0.578879505888145
Ni 1.6710116577781775 6.670175924341955 12.487373942772143 -0.43825096159908394 1.0738513172180408 -0.22935808571598565
Ni 6.198609031236111 3.936291186361184 13.19629796703442 -0.2987097368369307 -0.7137719190243772 -1.1812630084355011
Ni 9.055324726765125 6.69386939400659 1.435921746563793 -1.0350474569769659 0.374114279020175 -1.1472763670774113
Ni 7.999340578573173 0.9795745653784953 2.728647478483193 -0.41788936722359643 -0.7821938592422014 0.22070838046078764
Ni 1.7674567059271677 3.221197761396655 4.448703318668671 1.641173971506522 0.5014677034668847 0.27108914690618474
Ni 2.2609530564577245 8.245336727567748 2.2595864111855324 0.34208656116066893 -0.27011289903584446 -0.7607575437452962
Ni 1.292890992013456 1.2997335026493635 3.058710880267475 0.09990406998650536 -0.627584684403332 -0.9642212781930232
Ni 8.335737712726269 4.278518845180969 9.912656957627016 1.4567387144451558 -0.6342217301038755 -0.9749990855348175
Ni 5.908521860518437 6.436759967900508 7.91860173835195 0.43662088219482864 -0.4049945135387993 -0.23969366331403882
Ni 6.905105217599758 9.079055333529547 4.859116549553899 -1.4080710740361233 -0.44308077888755953 -1.8010947883662918
Ni 4.852389163927334 7.427262124891572 11.09181001097528 0.18914500383220972 0.0041996399036443805 0.6264521134607857
Ni 9.00878265645603 1.6695725951613989 0.6371797896096648 0.13441624483076206 0.5746554405044683 0.3748647840329544
Ni 1.3691334578778676 1.492400776348617 7.578279212751281 0.973482391779975 1.1207019590229925 -1.6451195864178312
Ni 1.3165473245783028 4.663612001430855 6.578343303986614 -0.3660559274920728 0.10072476611558782 1.0298916238076392
Ni 5.3773220694282875 6.256320084306396 3.9604154463833576 0.3664752744176785 -0.6201986763519061 -0.017805917833169333
Ni 5.0504134642709815 2.481816673170887 5.747286499652107 -0.28074826726250357 -0.027794910725081164 0.7908253096649541
Ni 0.5870075677963088 6.121298873752799 8.764525452159019 0.3557992827610711 -0.038359316504488775 -0.07151009222484458
Ni 7.201682096505355 7.674056721531584 3.0175109817628583 -0.47398132512115787 0.7462673205489212 -1.0802572207443848
P 0.9315005897031515 8.949456139544974 6.015957633349635 -2.0670718108568917 1.9252363907439232 0.48653422208550395
P 7.802179715799593 8.242142936985996 8.794909170350431 -0.9283698157120529 0.17845384266695072 0.773315840026281
P 3.195285350019698 0.960597507386915 1.6961674007469576 -0.9941795151180104 -0.7966056637921571 0.27383071420706384
P 0.1286187745501753 5.8569105760883025 11.044508486975522 0.5571300300261953 -0.29517498421079486 -0.5152403317709449
P 1.734729636739144 9.12792775685033 11.576538292245928 0.8096072182581476 -1.2350458585839115 1.0707713927411364
P 4.55357477475952 0.33704703339938313 5.500573604631627 0.1457229280928329 -0.2710132993629268 0.3196305461499979
P 0.49100630798978306 4.983650243127413 4.682276179356723 -0.9574824168072928 0.3001935204713088 -0.23077373511658963
P 3.703023778318887 3.1934656321300947 12.134698689354547 -0.9702142625516644 1.9105751891873224 0.38948099128423247
