# total energy = -381165.9078327252 ev
CRYSTAL
PRIMVEC
9.26887352425396 0.00000000000000 0.00000000000000

0.00000000000000 9.26887352425396 0.00000000000000

0.00000000000000 0.00000000000000 13.56593331483875

PRIMCOORD
 96 1
Ni 6.582253258952319 2.531125367809128 4.714311137336802 -0.3942434456698823 0.7426045269853533 -0.3816311562225105
Ni 7.505034472535884 5.768381305989369 8.603243015577847 -0.6887789965244654 -0.33191450572367354 -0.04763739937230505
Ni 2.864091101364403 7.344126833014699 4.531361190353327 -0.17158488346125933 -1.2137656090488969 0.9031174689031672
Ni 6.534546368363865 4.186768582200393 2.0666751059593986 -0.2932389435303466 0.125064628412533 -1.1902423291159758
Ni 7.680114219247618 1.423365250888907 11.095087825464923 0.34592778928363005 0.9525379283178239 2.4648937179066515
Ni 8.154485883018054 7.08114109245395 4.426252167762875 -2.0991974877468427 -0.5439171308803471 0.052130402146652155
Ni 0.07634400136406691 0.05064326963224981 1.6111442808326664 -1.8909676993690403 -0.5487921995844613 -1.136350978414159
Ni 5.488776475701575 2.1377265807009653 7.95566020994173 -0.4029553716215835 0.37058903947573596 1.8975772342657578
Ni 2.856703809388689 7.4231903217886455 8.688369274340896 -1.5723697082486148 -1.860892220139898 -0.9062143626609361
Ni 4.047077393535427 8.250984122364546 1.5096167508638147 -0.5314627071670782 -0.174667379041325 0.6561964346027537
Ni 7.270337333116763 2.9368332185857318 0.38985066243024147 2.100125141767435 -0.4057990117179656 -1.3430193358421127
Ni 6.743225780586214 9.049673660953317 2.124234808806551 -0.15839101047880463 -2.067462618537407 -1.3934057587144646
Ni 1.525128210238164 7.334765271037948 1.161588171399215 -0.4012281045178316 -1.3998160331161829 0.4593563761191315
Ni 7.171809210529769 1.194590921472898 6.694964611377752 1.7467054149821337 -0.9285338520937428 0.31451225108682607
Ni 3.432254493493992 5.855916544908613 0.4375139893144463 2.29194023623264 1.6656225914671896 -0.13717915228787986
Ni 7.81984248340556 3.3694300706440723 9.608424512303312 -0.31262506136644225 0.40979810557502966 0.9093086853155435
Ni 0.4396912476395342 2.3227889038968184 1.1199236592787263 0.6589359450211039 1.4093447985422245 -0.41497579312122723
Ni 0.7339798269209606 1.2697336768645027 3.3977233062223227 0.17454885118558972 0.41943639999574217 1.3430414473292998
Ni 2.0969806139189875 0.24823247501778467 0.3363850208950999 0.9666694826231997 -1.2783283234216307 -0.8246486859723025
Ni 4.876650817774234 6.145364918581863 12.250132172353656 1.0331109020758853 -1.2851903406487866 -0.9686533458224479
Ni 7.878134427239013 2.3063181161416826 2.7596364612249986 2.270722207394128 0.5920849488348255 -0.13522819920909615
Ni 8.942627443854805 8.554966089284868 10.56429374959441 -0.014789242494032597 -0.4007660772797485 2.0179886801769955
Ni 8.89274236805394 5.852431448568754 6.464126103890235 0.5463311396384785 0.39094857696869445 1.1800862145185804
Ni 3.431707629972578 4.3823140010355575 7.832332290102266 -0.2898839110151847 2.016890047796178 0.17758275291590706
P 4.910213407791873 3.037048276103189 3.271737073536391 -0.7132001056813073 0.019425969935095575 -0.26032239530798396
Ni 1.327228497598945 3.765952468035567 6.027248886167673 -0.8353953829658451 0.22477843676510323 0.4881583879524884
P 5.761911632464842 4.119003849911257 7.076519632254338 1.0933634191090396 1.3000978538882384 2.338888322847404
Ni 0.2603116706297668 0.9060342134057515 12.78439929502881 -1.4741849349460612 -0.3351389261982422 -1.409494179635895
P 7.961730395029427 7.872443339067009 8.404543399177644 0.4951816133478568 -0.6377402847800951 0.039643582533551075
P 2.112163028293164 3.2309716421206 13.247730803877952 -1.139639933578076 0.538832260158272 -2.424606845362147
P 7.289570245098702 0.3056308994704861 13.413817889768058 0.21021673690084441 -0.02722129760979828 -0.1272058431252519
Ni 5.00139131389613 6.590558169379217 8.459594018037562 0.7068636219403182 -1.5840553721166588 -1.0979420396186577
Ni 3.7019787049033535 7.996294023357451 12.364357131779885 -1.5160514932728602 1.4240795336492378 2.8213997969267606
Ni 0.8948531716111429 8.985662822328127 8.739987629438446 -0.20101244469375704 0.6283981814435629 -0.5694286448878904
Ni 0.7771588729295694 1.6166490646524607 7.219396532653372 -1.2845560494988972 0.6672856025373798 -0.0039875238928382935
Ni 7.444703376588684 0.5172364949760635 9.13525872894196 1.5883285455707161 1.0471817783466546 -1.6411372047313155
Ni 3.3669830881075753 0.2356824206449917 8.370587808934447 0.9926921319392064 2.7380181500753102 0.8939301459769444
Ni 2.1841080224154825 6.223733241862486 6.582624940769415 -0.10929708116563111 -0.06840522804727574 0.43827384441721945
Ni 4.89129563750024 0.6400555536744149 3.3956341021930556 -0.09199535666238995 0.26439373716388015 0.8490525687379635
Ni 6.011058945271841 7.654736044304703 13.612870650238868 1.110503678333752 0.5837895415952526 -0.3098197307071632
Ni 6.543833779354661 7.203434606039348 10.58675871767664 1.5813060915062958 -1.4959534369714043 -0.7364261660887833
Ni 2.9845123025544513 2.3475738709520972 7.229027818841532 0.1974383541892535 -1.7358854415484941 -0.6185763102571347
Ni 0.673297440677801 7.968320563906129 3.5829116860942976 0.9381821738167841 0.49314041454811197 -0.32162160843809773
Ni 2.9907965986140925 5.523089844452004 10.145404634177074 -0.8508747095483669 0.9066362806897031 -1.9769253344777822
Ni 5.875965117736052 9.156701340305341 11.499380319297119 0.3743222812659231 0.6146337806696189 -1.0307814826117603
Ni 2.1562921338093144 4.408248308373131 1.408252353064063 -1.656881612049766 -0.553458494711879 1.2310040844143701
Ni 7.990185835889451 0.29292883557648647 3.905347052756714 -0.7797695660714249 -0.8544092050641866 1.9640176252771786
Ni 3.6774439974256703 2.01042787556364 11.941439764050576 0.7998215996262935 -0.23320445604526935 2.2317075166938274
Ni 8.624287992279047 5.99685903146156 11.190592441599623 -1.0587265457614603 -1.2159803573120282 0.6514542919320779
Ni 0.9497165592315261 3.619411582043058 3.329202233876452 -0.38258040750965727 -0.0032825274060137018 1.0304639513713412
Ni 8.861812138037683 3.338434958515107 12.205513670330205 0.4761117412005994 -0.19413062997225922 -0.25798860496848475
Ni 1.7779738034696406 6.035491695143835 12.59835632504371 -0.562777715230276 0.636651936811923 -2.0610356319651406
Ni 3.403001929534956 5.993809572164183 2.7337392293804026 0.0191914853267863 0.6320401490715244 -0.15785776368315393
Ni 3.4774402505599933 2.7485638652473483 9.656827495272413 0.1884721461349012 1.079377903463225 -0.860002382881248
Ni 5.381971249307415 4.258889684914353 9.31637714657236 -0.33502734032104237 0.06935987865106119 -0.5828251207994544
Ni 4.508704356594941 8.303872313096566 6.607952136909486 -0.8990394421790517 -0.7181690196508084 -0.6250714310631751
P 0.9295752976716449 4.698762602469475 8.229678690325178 0.09519869409103604 0.5029823403391983 -1.5469746652142777
Ni 4.976791724305737 0.4374491072017362 13.424725499801959 -0.4738396573369711 2.2075859410552754 1.7198769819353799
P 1.7113120670965778 8.403429280613679 11.809253582051527 -1.917631838923788 0.11302980873518596 0.2956526951781618
Ni 2.8016652400639885 2.2604093869626256 3.2082480724748548 1.6512578381050853 0.958694434837523 0.40209353784192037
P 4.496645552504096 0.9576970590948752 10.172848840966147 0.5035839784789392 -0.2922413555037677 0.03879640404190738
P 2.0258142051491914 8.991492943598796 6.916740014606983 -0.12846516945364975 -0.6914143772647835 -2.267866740223204
P 0.36905223775733886 5.522311259099482 2.4947886040294676 -0.4514939426519192 0.8324100750852761 -1.4603667981160462
Ni 6.030375277112978 1.8009513402422803 1.7703677660853616 -3.0773325478074804 0.9619281112834726 -1.0088216905112175
Ni 0.4788781899418194 6.606287447274808 9.375443041321711 1.1893812666672614 -0.4150123027861175 -1.3003991871787413
Ni 3.08739679556627 4.628819684967928 4.579167257885494 -1.6714687658353213 0.32281871406999246 -0.9043168885279071
Ni 6.870172268540256 5.115908242829555 5.55606386101863 -0.32667279770875995 -0.6256445299578257 1.0886169055629897
Ni 5.9069602298650175 2.984604991286895 12.159592891615931 0.08791578727637762 0.1610220203437485 -0.6717325825651399
Ni 4.647450120188986 3.8499469973754854 0.6934090418433004 0.47642541578627634 -0.04597466695790147 -0.5311109802546143
Ni 2.854497817556544 0.30540288518867614 4.508271500214431 -0.5612998451331688 0.4653190214604696 1.5625794616310704
Ni 0.9159203936081304 4.085552486372549 10.30397744452802 0.48903333435827395 -0.35219228213610315 -0.2720998475588862
Ni 6.701413893381141 7.246191918315342 6.294701296744854 0.25288959317902254 0.9589536020361809 1.6074814643500834
Ni 4.951052063306294 1.3015444498389674 5.936181279655022 -2.1339415760962472 -1.937035697371696 -0.17221017575008404
Ni 9.009511633185731 5.31573588110359 -0.13109708939284287 1.8992793045585294 -0.33735907377801255 2.0346892807611283
Ni 7.96530818010173 4.546604779290916 3.722505551590198 1.543218283495639 0.5823556373622036 -0.1351191844350576
Ni 5.114554987335886 7.535807131706988 3.8359167039455766 0.6717693493403463 0.5876485103300266 1.144434526753242
Ni 4.316922100296964 7.493735716051074 10.412748598937299 -0.5081219755586088 0.31953952909808836 -1.0796188158294373
Ni 4.529225641957838 3.372331227969541 5.681467081577494 -0.9882569789859884 0.7236454693843473 -1.0957784563084354
Ni 6.881878855447817 5.489036004152416 13.26476884667564 -1.321467063592634 -0.8160771422532075 -0.06662319644618848
Ni 4.539328713794134 5.839399412787257 5.98471958817349 0.3620920577483183 0.7117158078262968 0.47126109797651744
Ni 3.140581590242109 2.0582645303775133 0.9725689662153674 1.7587798296481645 -0.3276696144043905 0.6775689867412589
Ni 8.152085244847779 7.113925097119067 1.8030748391025513 0.2717128965331127 -1.1657960231481537 -0.25629193399235217
Ni 0.8795187477157598 5.818544447987564 4.525052795223251 0.957822573755531 -0.5140409121462051 0.20585923126309708
Ni 5.656125982127556 6.411075707876439 1.9157806302040383 0.46352953366021465 0.031237360747726848 -1.3855075869133104
Ni 5.571186027716718 8.793602499832822 8.790819057197556 -0.8801654880926841 0.049564955412321095 -0.15268059035758866
Ni 8.104007599329554 3.6064351595010273 7.257461941293095 0.26430092033975766 -0.35676164667434046 -0.8349153580056331
Ni 0.130740237772937 8.931931164130873 5.878565963568404 -0.13369787860749877 -0.5527411569298804 -0.1479081086696098
Ni 5.473093542172206 5.141314224392203 3.7231701298018147 -1.1098202791134821 -0.5068994160054173 1.930311234163669
P 6.4543428081808685 4.747544682354268 11.018142274227301 1.4061579161738105 1.3482888117711682 0.9852984105782967
Ni 3.736959432527372 4.285157671688721 11.66483063359534 -0.11926807633541395 -1.4025159485458492 1.8470326885489867
P 2.15989772550135 9.030931999253326 2.5062792261904363 1.2390084427760855 0.40673695015120276 -0.41497373623869827
Ni 2.1760997159324007 1.130357629889844 10.627551955712162 -2.85144288025607 -1.9211637633364462 -0.6113818493912245
P 6.211943235095726 9.086934531395435 5.281610670480021 0.25441220047113605 -1.37137834660078 -1.9080876468787784
P 0.15127728022035014 1.8075600468654718 9.720018038615482 0.2185741077266042 -0.1898577136285182 0.04113147993298723
P 8.575413223661812 2.2198302598990454 5.319690909316937 2.498855162453761 -0.04504521316509662 0.036807398636336607
Ni 8.650138879757423 7.678501435303108 12.878235513979535 0.30490198169057164 0.7551813352090994 0.7337511903597814
