# total energy = -381168.3444084732 ev
CRYSTAL
PRIMVEC
9.25894258256974 0.00000000000000 0.00000000000000
0.00000000000000 9.25894258256974 0.00000000000000
0.00000000000000 0.00000000000000 13.55139837784660
PRIMCOORD
 96 1
Ni 5.422768304413926 8.250625326376122 0.28383566629894574 -1.0523252702208068 1.0696439640049127 -0.5884923463875606
Ni 7.898350333285988 6.892912486027314 4.0897444347875105 -1.218672559432211 1.078428395065762 -0.388482374816389
Ni 5.27841212870314 1.9935522127166363 7.8196178398898555 0.2573203752568665 -0.00669489552167234 -0.9429127465232342
Ni 4.114433405509902 9.096244563606966 4.071517280178809 0.24212849800777653 -0.4322860022649006 1.0896396904005492
Ni 0.4222392677448057 7.970023808763969 13.434341618565757 -0.4914535137639924 -0.005727903622712716 -1.742574423532896
Ni 2.3025323897190506 8.63311224951207 5.579137958284211 0.19907743245457327 -0.5691748770058714 0.21367409932182554
Ni 3.85867363117477 1.7700968894786073 5.587079353442132 0.6596692236427026 -0.27392070281770886 -0.3721694965889784
Ni 9.034561487307483 1.3785547203773483 2.792686002203682 -1.999777042264975 -0.6740234354818456 0.5918162685544711
Ni 3.225213807082079 1.2082086924941438 0.21540745023900312 1.2014983616457695 -0.6631224722986256 -0.9300271488098175
Ni 0.7081609738351464 3.4692332420675047 12.661329158237537 0.25182824179404373 0.1977628274082078 -0.8762946922833682
Ni 2.65756654773522 1.2816506260287441 7.653355931633746 -0.6962755620118266 1.3891251290612399 -0.5134834969808382
Ni 0.9474027943848868 1.2019218703975738 5.369510865975824 -0.015614052388173108 -1.2030921884954506 0.018432752783890834
Ni 3.2945262521703316 0.40310936622238536 9.644056389997298 -0.3875688618631841 -1.1080714147431756 0.392001443713241
Ni 7.901590963232673 5.831735803685649 7.428876569332563 -0.5892888741469271 -1.1072399199808156 -0.6026665810054136
Ni 5.143000091645207 4.9581915952570785 9.638608428109784 0.30673723512709755 0.045355545316663824 0.42814241241017237
Ni 8.113231875579357 5.387834313588656 2.3573610707341595 2.765685534083592 0.07544233739971523 0.4324742070163068
Ni 7.464837376903798 3.136698314824038 7.984795525955232 0.831516102516097 0.09268672630245973 -3.9779958987432007
Ni 5.214682826065891 7.8183993630299025 11.03036454899566 -1.3764935563401584 0.3489555203663603 -0.30468600902502363
Ni 1.7479309806432777 0.447254153250407 11.919783214691638 0.7388759131808565 0.005453566915403511 1.3097572313548733
Ni 7.661497319954091 8.088501239614795 10.489053426278378 0.17950645230118115 -1.2406647474325858 0.7880642019800491
Ni 0.09777258317431592 7.357979919147517 5.789008560785734 0.01833376531218133 0.6126239493284417 1.230709693102403
Ni 0.6222426150058065 4.418922995300481 7.39041769901957 -3.5347580254524864 -0.28126840143203174 0.8491263593986925
Ni 6.6766328433855175 3.8254525447498904 1.7090073114065016 0.022641391548599715 -2.3039022936905225 0.8411065744180095
Ni 6.817044709504052 1.8005032573212227 3.9878516221095515 -0.16395899148488535 -1.4097785436455335 -1.3578530584208357
P 8.845392028905387 9.382179232217094 11.920812809120411 -0.45510659970384204 -0.4761263964886187 0.5747058341264296
Ni 3.623135387706956 5.249922362000421 4.822874925309004 -1.041295751879523 -2.5557102237695926 -0.9177827842248258
P 8.335085401729454 7.532122113539696 1.6511972508404422 0.2465844768966011 -0.4191435513456717 0.344921973726935
Ni 0.41898567527833336 6.573395632226819 8.805821159573545 0.24021713991767663 0.19673438614369343 0.31673265577691256
P 2.266107709118305 3.443511899233526 8.257368614348039 1.4569922252168586 -0.594401255672828 0.9732239959122657
P 0.10266778618235213 4.905350809240694 5.202815639201129 -0.5627214080710438 -0.6049422644134678 1.3353934438657389
P 6.255406503972618 4.507197755048197 13.427511296532414 0.9509351026070786 1.55746836565675 -3.128066583827239
Ni 4.226438835410061 5.62760389387257 12.183208467692086 -0.28711354735889905 0.6129818468884927 -1.1055591898442831
Ni 6.711900156148162 2.9071598662289446 9.893930254454979 -1.006099663594364 -1.4272065093139936 0.611854675262585
Ni 1.8309466609346579 7.294982072983949 10.92534036189493 0.4521752849896599 0.25697816142609936 -1.1324596137795528
Ni 6.0589224808337185 0.3965290356420726 5.66955245969101 0.6011961671074743 0.47764437579504193 -0.06362271905696784
Ni 8.715081669277806 2.0617443257376062 10.953663467628964 1.8323480899536184 -0.10116211076332256 -0.6457253598681009
Ni 6.4706306271460665 6.632051034261829 12.52118024609182 0.7216343524915894 -0.8651417609903421 -0.5157625228230021
Ni 3.2223157580154718 6.055542966746461 0.7092081602550612 1.0609976011838245 0.5890078525713985 1.1206808759770701
Ni 7.797538965115951 4.079851254507415 11.594711921162522 -0.9102278546957033 1.1673260866394348 1.2668336925184698
Ni 1.8242061506455518 2.3780575853622348 10.539993351357467 0.09130501546358469 -1.0846854317190673 -1.6576992228550549
Ni 4.305287991484274 9.06237535119275 7.062216882856227 -0.2016729610958914 -0.6633273892205802 0.012658826414591103
Ni 1.9990242478551827 3.234630151812877 5.92007722782084 0.4582099212195141 0.6799557418058806 -0.4735640350780812
Ni 4.142673180759591 2.7927471112255335 9.775653742660849 0.008040610916289378 -1.5336242120493007 -0.8285459641441796
Ni 6.733112393884895 0.8217709785060501 11.390465200459905 -1.8712478523426097 -0.05303388779752802 0.8914634296040066
Ni 8.87262257940025 6.075060817968213 11.044714984293854 -0.5048181079963564 1.2522588800280883 0.39335590085860644
Ni 0.7218540242012988 8.4336098110514 3.479091238365322 -0.2716671308968418 1.1298586858215962 -0.5052194571998331
Ni 6.0554226004912985 8.710961439774163 2.6746798515365313 1.4736943684628878 0.5375266539729712 -0.14446051644064153
Ni 0.40560928075268565 4.094637786007006 10.24560249037503 0.6461231095271518 0.49642885549139665 -1.5216734674453276
Ni 1.9840710553869048 1.4731811148205678 3.3105386676840403 2.2464713052665632 -0.17480956104614412 -0.4234419216107095
Ni 0.8136305160799758 6.182807134224157 3.7444275371400453 0.949338961764552 -1.6673177197814255 0.2939028023665906
Ni 7.528520384827523 3.940124550149036 4.066489674290095 -0.16247752184335243 1.7813484589772997 0.82280057701997
Ni 8.426998925960163 2.464610181766855 5.786854004818324 0.7199050285053085 1.4876986531617797 0.15853679202804954
Ni 0.576448810282057 3.4121981550058385 3.63994592408182 0.6285640175974658 0.6721395881955715 1.2316098363191692
Ni 5.552504609593807 9.013932562961152 8.969263719776038 1.2363542929826903 0.6098579565475303 0.5954443522253615
Ni 2.508136471422195 4.467032461594705 2.317967047207979 -0.697657787071334 -0.9366503105532902 0.16421018826374298
Ni 5.472035138546252 1.7011548020985474 13.416345011630407 0.4310521298577996 -0.07500602119324501 -0.040407200172452994
P 2.0918081127001438 2.859596677554305 0.5673306035063542 -0.6002554004607599 1.296192348186245 1.2822310009101465
Ni 7.811334789746127 9.4119930277266 0.66852529190437 -0.507728339664616 -0.422425307420737 0.24016160408939283
P 3.637588597269174 3.044719977994396 3.854017308888518 -0.9372712319667407 1.0396024233374999 -0.09893862074944251
Ni 3.3530983237209977 2.916659541444086 12.101330711459127 -0.6119750028905332 -0.2418613603893189 0.4915846400252179
P 8.348918262130448 9.24044333729177 4.706577049570893 -0.3654823143767899 0.6291160334461939 0.4157327258919098
P 7.804260957519648 4.751004234351411 9.354856092295183 -0.06278351098512414 1.590235532785442 -0.09050565949074091
P 6.5643681630896245 1.604871056911166 1.7980533410815285 1.023229124185799 -0.42974420967965343 -0.5111278522644681
Ni 3.7292243532187377 4.84468621663874 7.334016849533183 -0.6989273978123769 -0.4442161780435833 1.1988452402936385
Ni 4.889305061533247 4.683395434720845 2.9068422844941697 -0.03462118961829521 0.22648847747767448 0.039029603098636005
Ni 1.4709774864568217 5.714795357323823 12.555235563254405 0.46111681045366393 -0.19371668236329218 0.5963990028291472
Ni 7.837667222798625 0.7862573778674579 9.368745432246676 -0.6129083133380799 0.41730649813693294 -1.6228566612545727
Ni 5.534523742861055 3.485908597878878 11.54806814549847 -1.1004455227668015 0.5441444163998049 2.8561533983578618
Ni 0.914465957501045 8.966443445828151 7.567683860680353 -0.5629232396692048 0.13778259019983366 -0.1460252898246001
Ni 2.5351540662348477 7.511696885932872 8.178539827947777 0.39120748705703595 1.0895489304589558 -1.1759557372899747
Ni 1.8115769527961827 5.903751860043708 6.613557222103229 1.3829925338009408 2.299586182813672 -2.1059628314951344
Ni 3.9811879610448955 6.951151235640607 6.003839178894228 0.12686311507385245 1.6222460242537677 1.924528051822989
Ni 0.40649721335807754 2.308198862654398 8.18358132225055 0.08979654923885826 -2.263547029801927 0.8064763859386498
Ni 1.2335781955053395 6.739565876950152 1.5787515795408797 -0.43749994236567236 -0.5418610196822667 -0.27250376786552427
Ni 7.985680680877812 2.202248781283189 13.045389175739036 -0.8285791313749601 0.18846109039130768 1.9654921529401763
Ni 8.39213900667653 5.553004592499867 13.506109535259327 0.5061612522878122 -0.016845867912745182 0.11961774636534885
Ni 0.9811238637158267 0.8059696668860112 0.8887927611691312 0.18409381456154747 0.6662193660563945 -0.20796496475219023
Ni 5.5721057912999035 6.6463931365115885 8.156600763208717 -0.4530438036375424 1.3573586352829203 -0.21462129372644326
Ni 7.772206497875575 7.962727761912573 8.099792520243316 -0.5815819924209725 -0.5452379065742997 0.13922395063205056
Ni 5.482997726708755 6.869265146359214 4.268067041810914 0.1312391326543611 -0.6182407812945869 -0.7358342981410553
Ni 3.1543366006767126 8.760293086505422 1.5774636606106398 -1.28085006140222 0.6734781045013368 0.7100793006641384
Ni 8.120527922430753 0.6220972496053409 7.167728090343228 -0.40638496612842273 1.182334387122809 -2.262154263219459
Ni 2.7445450555042616 4.536604157078693 10.317912981111103 -0.025092681302569687 1.9924296007609685 -0.04006292945915681
Ni 2.9121226595187264 7.892109805902942 12.983757949518697 0.4707376213728796 0.29429978069469315 -0.7745371140278918
Ni 2.847828561376484 7.315425818476183 3.3565056146363696 -2.8140898935289083 -1.959138442808007 3.2772967537423816
Ni 5.825587865729651 4.874629637346114 6.583255480313178 0.6507428676873503 -0.40499271376658635 -1.188900470376101
Ni 6.370976626814132 6.423169286841179 1.4209319752430207 -1.4343618894118522 -0.07360142753623454 0.19742447023218257
Ni 4.28163139287347 4.066805404236328 0.37989812275568213 -0.34805512003927797 -1.2757240530295642 1.2836479358623312
P 6.386402025360356 2.911159729477425 5.810040249139724 -1.5516332470322116 0.1797075125683937 1.3079582304729216
Ni 0.8237412815136349 0.1701608490291083 9.920571936193816 -0.7397632008818164 -0.5730803827078647 -1.3120987350038564
P 4.46931016150009 0.8891020098554719 11.300687714311197 0.611116768655296 0.6388651424131577 1.2520431644728567
Ni 9.162899692138938 3.329515796651831 1.4479532736327558 0.4991799358739725 0.39729585934296097 -0.9874473386004995
P 4.442264789859323 7.319851593089085 2.306881315107503 4.075909677772554 -1.2168653310201432 -2.434657030509297
P 6.146058390628742 7.636498174651087 6.225201055186698 0.13580412631722416 -1.0848731222498413 1.1842850830912766
P 3.5725074889970223 6.658901968105795 9.641305558119697 1.9760470456378871 -1.226968480892416 2.1425707125261555
Ni 4.553223959233837 1.456163178129116 2.5920437878960487 -0.34864570243542536 1.1608055119120975 -0.8402730227731207
