# total energy = -381166.7854206716 ev
CRYSTAL
PRIMVEC
9.25062431237140 0.00000000000000 0.00000000000000
0.00000000000000 9.25062431237140 0.00000000000000
0.00000000000000 0.00000000000000 13.53922374858763
PRIMCOORD
 96 1
Ni 4.336313273944793 5.724221401027224 11.71834640951848 -0.37906982325323746 0.2738757085123864 0.2925192917555027
Ni 8.282176208447225 1.1296677064068963 2.9804030554136123 0.7627961714418798 0.5236997753922077 1.1637648516507377
Ni 7.4018775742623655 6.55004311024582 6.391880565737295 -0.669591624962737 0.17424340413002895 1.9694290261007372
Ni 1.7959346521990833 4.297312642995944 1.4451898412573498 0.3504986964837641 0.8397672867812958 -0.11017357023331349
Ni 1.1808329079671622 3.353480722910542 7.225653186317498 -0.799116860249785 2.4453204237604145 -0.4903119439603814
Ni 2.4908970337605605 1.4933929930002956 6.716524740952706 1.5073585934845524 0.5029586861901145 -0.3886770073256984
Ni 1.7092100518325142 4.611251071010904 11.658259906134907 0.627946438618125 1.2567791364959453 -1.6017461045282029
Ni 1.4121355114408354 7.631404057920532 0.8271195717712813 0.629694017436851 1.304363828253444 -0.028135581893951548
Ni 2.8199972345756064 7.3232195180578925 9.943408823763349 0.3177536408422592 -0.012115552316611392 0.2786271071544427
Ni -0.1638239264204534 6.115985329083138 10.986592446028691 1.422172546434512 -0.14985109132859353 0.7911220149697665
Ni 5.688245724139161 0.6935609120195535 9.506186404116889 0.6866295542816303 0.031701187758022824 0.9127431649183894
Ni 8.441397949408227 5.788966518676889 3.006547169072918 0.13218375595581752 -0.63554636245257 -1.6209967252276987
Ni 1.6943165471295623 5.234622873133782 8.929076972813554 -0.4904458984350844 0.3138388791688853 1.3214693775854789
Ni 4.56448916649325 2.5135795639044356 6.12379100564733 -0.18188420850473838 -0.591554273142336 -1.914443671003793
Ni 4.38962462028213 9.301502471315729 4.327839702324977 -2.6485926110226257 -1.5372168144965654 0.391489537073829
Ni 7.375827816968258 3.1702628631921144 5.690467724033353 0.01757914653434392 -0.48697208095387096 0.9256717000545992
Ni 7.508148743223555 4.473157755355209 1.0707079290312842 -0.3349671765070683 -0.7472273704693454 1.5439821582448572
Ni 3.0998378623824405 2.1840908368797476 2.4981495230072155 1.2025589416997997 1.7135921773679328 -1.0288505841376345
Ni 6.150647417357647 8.733967435892863 5.68731326123602 0.22036385263717534 -0.7652965692662304 1.6035067959730511
Ni 0.5901759377585644 7.794612817842385 9.698673389122495 0.37461153037156775 0.6479205677472067 -0.8349472396848331
Ni 8.241575219539612 1.679978079868956 11.994140814370612 -0.3221584547781742 2.796351852819197 0.939581368157156
Ni 7.018309699105096 5.3069997556157045 4.722210456235109 0.7931678417552017 -0.9088253179212219 -0.9313831486170798
Ni 3.4119816693338145 9.116397484293325 1.1118371285715296 -0.5611165254777691 0.04261037847135887 -0.4532626045165678
Ni 4.1848990596727935 8.660406473533934 12.037208944709453 -1.6643743208823853 1.4082947600111553 -0.1624952624551653
P 3.3437120639252518 4.058794552771773 13.456539591527902 0.7815510834518798 0.043534690057841156 -0.6749888847189085
Ni 7.43001797258931 7.879145020311687 4.029273036275791 -0.4923683122687778 -0.8457587284780401 -1.0011482331263597
P 9.049237953769454 2.883104991770351 0.88496187376297 -0.17557600689852343 0.5071963784205459 -0.32804679523815117
Ni 1.6615045836628721 8.867157920807834 5.684781365436518 0.28912697824450206 -0.6933355055468963 -1.1784929018895316
P 5.7811127388676935 5.160257106483451 2.689891832777675 1.573925996992141 -0.45529326179335133 -0.9264643711592238
P 8.687131526382895 0.06727701344916748 4.8611224521182645 1.8084568851583176 0.5966396580850435 1.5110560969407978
P 7.459009428327851 8.816297989840859 8.651617455634385 0.08145203392890488 -0.2662937824000704 -2.2564914085067267
Ni 1.846091535739087 8.452008415181075 7.971366341482289 1.769382030644043 1.1814969788231782 0.38390709674088075
Ni 5.083402921966603 7.570951229825009 10.226067191652493 0.12931800437224825 0.13933116563387618 -0.3942046220121469
Ni 1.5279255725382586 6.462596961204201 6.9045843772932 0.06688673452022029 -0.45667908639728444 0.015732580243908386
Ni 6.825878217843723 1.3537640737541101 7.410044025164083 -0.6841191291549508 -0.5309610849403114 -0.3521292901086516
Ni 6.063155015195834 6.107447003095047 8.804096416733286 0.717210512392281 0.30830972182054 -0.21061525789084373
Ni 4.90332102379743 5.759447777368119 6.214191804007038 0.5185614257243778 -0.6235310831592487 -0.3701907755960528
Ni 0.8281796932861623 3.1121781948506007 3.0603386227978846 -0.455994401625434 -2.0321027509808745 -0.44741900125159717
Ni 7.169622156512665 3.1313177359875004 3.3210498851542627 -0.027440355599139838 1.4110815787276731 -0.5841214710133746
Ni 7.115006472185815 5.250913222066638 10.780268377585397 -1.4089131103214445 0.2420351669630219 0.0448166420940583
Ni 6.027771378246274 4.25570333606807 7.495801010256162 0.5364460193142826 -1.1988331561087806 -0.6178558871513423
Ni 8.722505912708417 4.285037064896058 12.364167626059446 -0.6597003339909541 -1.4230186964848912 0.6237154312559129
Ni 7.469323874131449 7.890578791624016 10.488660030938423 -0.16762178504845326 -0.9107600730500894 0.3224926981891414
Ni 0.39479535755352685 2.166329638724674 5.496342453510422 -0.4422354001681287 -1.8272359655380337 -1.5584937215974708
Ni 1.5236425336081547 2.8549460921953287 12.907306915766396 -0.5468942112308001 -2.017763451540067 1.4180526107288676
Ni 0.9583924023229472 1.1688996029567222 1.5641186390912398 1.4989163762544702 0.3720656240212624 -1.2380962153744612
Ni 6.578701543518953 0.08566540391409179 12.167145060087469 -0.6581227050911891 -0.6410842615516635 0.5914339455143879
Ni 3.8899706640581857 6.848477492371247 7.9331594140759965 -0.5330035692916368 0.45383981717627647 0.9646578515098096
Ni 4.501399910546584 0.2594846296087935 7.319507242631002 -0.009141814400268128 -0.8208213418064122 -0.6195271042061782
Ni 8.527114231754533 0.2223581750902668 0.4118535082816285 -0.5697394912600897 -0.9976440766278432 -0.674706063371167
Ni 4.623979929688707 1.5149561976354393 13.575644151218533 0.26231320048576756 0.9291303480271612 -1.9027451516199423
Ni 8.999432593942934 8.155313150375 6.828967926272783 -1.4318234392607148 1.5292628497568115 1.061236713777824
Ni 4.035612488929787 4.764737425067662 9.448265471820868 0.6634556872683284 0.6125938674214547 -0.434802083818535
Ni 5.336148471962911 6.686443561702358 4.103318731334369 -1.588731951656722 1.5438947407373733 0.6682839618949071
Ni 5.201940418403639 3.982365896960723 4.563070120765652 0.2607443133367509 -1.057246104561192 0.22943958968619838
Ni 5.09505870825587 3.561518006925877 1.276504711904349 -0.7118037395544128 0.5483507411716686 0.4332470806265893
P 1.339684623966599 6.019723335332256 3.0916408844213934 1.1263131345621828 0.16726645859156353 -0.3313997708707841
Ni 6.684241913181053 6.003978773217707 13.172202235375659 1.3545527904030092 0.11484963555274413 -1.2587606857023483
P 2.7334021429455846 2.9541035312704484 4.487846821266897 0.047748728139188734 0.2523794863118234 0.9220829542620764
Ni 0.17404679104606358 6.7295514697245675 4.9147788467322595 0.6233953289123327 0.4591401463432673 0.17094262189157014
P 5.097667384234897 7.2403431772915905 13.096842951703529 -0.7847194538775324 0.12954940365676398 1.3360745290931637
P 3.8148185943645316 7.548287200929213 5.890184996787921 -0.47186916387416156 1.7779070373959187 -0.6331925175084128
P 5.810992254513988 1.9452674760622854 11.420294078165869 -0.46018350000611713 -0.3063245730697111 -0.44910513070476843
Ni 3.3632771337679497 0.7284607413318687 9.359800829072544 0.030525679392682914 -2.954665215982531 -4.112143720403925
Ni 6.2567890775822885 3.413360012315641 9.746846013806113 0.05928141136913662 -1.0781216624586207 0.3573270322595072
Ni 7.931688564853779 7.291859902565341 1.2963482255306238 -1.0856696500092076 0.4976082205114785 -0.35173256889086524
Ni 6.394493867028342 3.6105740662052277 12.59487633946981 -0.38532403169306545 -0.09638140154522756 -0.08481400842260231
Ni 2.3450609457841383 2.83240232141204 9.16773289733591 -0.2922454692688257 0.642750593510493 1.04629217665285
Ni 8.643801603383748 6.20370899684593 8.66468303702721 -1.1774009543769337 -1.0119106138491862 -1.1222813876949704
Ni 0.5570448277625253 1.307076174228769 7.844612440773724 -0.36252477441036274 -2.7329736456728675 0.4390559739988826
Ni 3.727150430345975 4.937973861447901 3.223431749919249 -1.8624050572399988 0.21072375844424998 -2.5677874666491003
Ni 3.760711694359832 3.477605596267195 11.340250278480339 1.2745971385139725 -0.38589841613929665 0.8253125448085462
Ni 5.227897669457355 7.4463915771385185 1.9072437110119662 1.5044979841073056 0.5464632943409685 -1.1409946478337576
Ni 3.172325752352833 7.764677798451856 2.916687532219498 -1.4420312330316518 -1.6709789706830966 0.8743581373822877
Ni 6.960021517034723 1.954508849477347 1.1132570993615316 0.5158013464807375 0.20315828739216624 -1.3160376650469463
Ni 3.020273245022136 1.395928418124331 11.195393831589657 -1.711401340364201 0.4697099514393136 4.789687253223886
Ni 0.3050661544990581 8.29180610807193 2.894889361733761 0.6362996956788267 -0.559109008129437 0.14403268487460355
Ni 4.561399458064191 2.5145231275564237 8.237764887497907 -0.21695765516910376 0.26885691514155635 2.037049039242556
Ni 2.6206555371570257 5.2686374177255555 5.147748412657779 -0.9093922461682855 0.01569607057901813 -0.5250524327653603
Ni -0.09790027926820635 3.744467598547171 10.00425387831813 0.5032769887614815 0.3232213488250498 1.1260832779395638
Ni 0.1656444492313484 9.088081324109638 11.434875836838703 1.0881507645598485 1.0455846090628638 1.5949087698913953
Ni 6.026809313346208 1.3864557791082919 4.469081005341178 1.8419763570720016 2.0772289538955517 0.5551590223427536
Ni 5.174179295662298 1.069279632679647 2.282090097825172 0.1269523323535491 -0.5773604981404573 0.3725595329385455
Ni 8.15724653079917 1.355882466659064 9.682575453169653 -0.03900106385354574 -0.5498494372043821 0.7221323751739306
Ni 2.043194582140205 0.558951381376984 3.4431192698494275 -0.15200490444680273 -0.780525727511159 1.81607095006015
Ni 3.066267347744544 4.450003443385341 7.227440406881852 2.254701149375523 -0.40449520530487754 0.35905378514262676
Ni 0.12689266006915179 4.37533240614172 4.620152021461327 -0.35272038672543127 0.7190573357930325 2.4285223783664693
Ni 0.17145384112790363 5.790298608538521 0.511274590141863 0.3583541879724409 -0.6892181409444131 -0.8473471560110827
P 9.007869163066594 5.039554964021266 6.782501116661976 -0.14598260951212277 -0.12358572987416135 0.036487296292756516
Ni 1.8173128443534448 6.865831663068599 11.954253973638817 0.20097516369791837 1.0524039459775425 0.9953838198387567
P 1.1776599439217506 1.0561529971681631 9.936530984790277 0.1136324753161914 -0.04058074963583978 -0.6862606009779859
Ni 3.559473619013236 6.056716580864619 0.8430981746740199 -0.23251360062583182 0.055095398312247044 -0.4547934393387974
P 8.711220151380715 7.5543278584267455 12.671927562278691 -0.33143576631504207 -1.46778417362604 1.3217126039445366
P 1.9356468270616205 9.841183877756862 13.147886045026478 0.5242543623440971 -0.6278021997307769 -0.3881270483594993
P 6.965044605887954 8.995908106184038 2.171258371212707 -1.2033696105265532 -0.04227716350165622 -1.2311465235295054
Ni 8.367762982056984 2.9343719501950467 8.115478113137824 -1.9546492966884013 3.0100771170939318 -1.835328512738181
