# total energy = -381178.56730239047 ev
CRYSTAL
PRIMVEC
9.12513654663808 0.00000000000000 0.00000000000000
0.00000000000000 9.12513654663808 0.00000000000000
0.00000000000000 0.00000000000000 13.35555971895273
PRIMCOORD
 96 1
Ni 8.02156078015239 6.3419425222834915 7.655259549025488 -1.0160313208857792 -0.25748312608697593 -0.5252200686914761
Ni 8.259051583832047 0.9514232365655765 -0.09091282286867167 0.07235032873795282 0.32713842449126884 -1.030336938875174
Ni 5.262949876840577 9.024942544196334 10.262158669706976 1.2044098788656097 -0.9337297944723855 1.470577420100461
Ni 3.7479673324884835 8.33585785811821 12.09830769481479 -0.2809498417503484 0.21118835678549436 -0.1640536080812207
Ni 0.18048607569276587 4.627110362493445 8.53973165877182 0.7608634731955412 -0.4879015347466758 -0.4000628805651368
Ni 7.283693114113019 9.030673129945615 1.5578058976368192 -1.1648606558180776 -0.6721519294907456 1.2089031387502729
Ni 0.17548185081234152 7.727302502035973 5.503371674377988 0.4571244014648192 -0.4525146706069498 0.10238647008872688
Ni 5.1418136892263675 5.393494080231078 4.247175264856984 -0.11267756760208983 0.048914209202199625 -0.9077243715475593
Ni 7.41294154811435 8.224376064966963 9.188624680944349 0.29033565384062254 0.7050193696427277 -0.36478117454470727
Ni 1.8420821888883638 3.428140421777338 5.368147188454356 -1.4013455823868317 -0.2632963903346433 -0.9907321799993583
Ni 3.412627689653484 3.0170165199490415 1.895100144719424 -0.4783354883247955 0.4723455892899478 -0.34910927233540523
Ni 4.3344854838183045 1.128076754910096 2.955278583637067 0.17822707136812532 -1.4814935527923323 -0.13681816940403532
Ni 4.952083850215093 8.400062318837877 7.968407772300488 -1.091405266941404 -1.5458881170183183 -0.2816682079736117
Ni 3.122995855764593 6.52646190832846 7.889970836114012 2.0631297954900085 -1.1017382734362962 -0.14747693466946216
Ni 1.3780781207908133 1.6385277680137733 1.440343489994999 -0.16941847193755982 0.6322028999016338 -0.4397740831118297
Ni 4.0855973845958875 6.054199591659094 10.387647547452408 -0.37075256163679376 1.7460574969854898 -0.7190869034793874
Ni 3.4727623394747758 0.978169011774409 0.5648587272303037 -0.32089784289819573 -1.0617259947094169 0.245508470223603
Ni 7.24391664392015 4.630559664106867 3.4865759711742403 -0.3311488312022426 -0.037002545366278214 -0.05735385532912058
Ni 2.8522256791109983 4.965187546291478 3.606709306282326 -1.5905731186305188 -0.54986949180904 0.638195627149959
Ni 5.967319166628969 9.042827811821482 12.753371134317996 0.6733096972442727 -0.3876349392144292 -0.26702963212483044
Ni 1.4026703637753932 9.312110591218495 12.299428441773246 0.5247436432756898 0.5697711158289736 0.9010767843240545
Ni 1.5141977826093578 4.489138297956582 0.9957038741562897 1.2430368472091882 -0.6115461428832306 -0.8695823132601992
Ni 0.36530841627097593 8.325008070768055 1.0774787852903573 0.09426872607759894 -0.2673857299126685 -0.01309334284884842
Ni 0.9947676351469324 0.8810784714658262 5.011660041679926 1.2466441049444723 0.6668593136332386 0.8789827806384927
P 6.774145489527143 1.806804411011412 3.640605538486601 -0.8463305418211101 1.2291899140237668 -0.7742008137343956
Ni 0.38087498670043596 3.9799100531497262 2.9865166635662366 0.9047807155382029 -2.270050121027768 -0.8700420265054372
P 4.443558240922083 3.480254076576943 13.283800721369888 0.2783288591877336 0.12414340214984426 0.1763753628713672
Ni 1.134327473442355 7.29294600256807 8.297034964694129 -2.529566218384373 0.7194728260638964 0.7382174536612511
P 7.027815160298323 1.1750985835184597 10.84742576481669 0.3049212649642813 -0.07992891241615913 0.448406304865531
P 5.994375196480279 6.576111776261335 9.006736071764855 0.09435871468824394 0.2723482161242664 -0.6018865083062794
P 8.34312146680679 7.420497161172322 3.0157125379369836 -0.16839234466589065 -0.10736592558118928 -0.06645581763038877
Ni 1.0291420245060836 4.399648083875033 11.416399016114433 -0.47516814634040744 0.37240320986633924 -0.8499146596279428
Ni 5.573505648823585 2.9573837526376394 9.93709758067451 1.2596708562214434 -0.5387217027223368 0.6146669479003994
Ni 5.696868369754395 1.7183088368130983 1.031475321920242 -0.18553286100091917 0.3198601456623007 -0.2822909291592752
Ni 8.922595012725074 6.488501340307735 10.14713997363149 -0.5829287362568542 -1.2822991351439206 -0.1962278788209201
Ni 2.220601977846937 -0.49918420701348754 2.6507581769638935 -0.9486537627720694 1.6158259796600365 -0.9478772896173612
Ni 8.190968940081415 2.19871990041576 9.146128007547878 -0.718406332472595 -1.168862063667987 -0.40041049371254267
Ni 8.499708809892278 2.691340396713549 4.809710732323327 1.420995238296959 0.42556385304971867 -1.261211718346002
Ni 4.094658645183526 5.278179729731584 1.8068199237435358 0.29951372079546484 0.5550515502306118 -0.853594422472375
Ni 7.694835266214402 4.173317322188008 10.137658044249196 -0.620226444266048 0.701970555514075 0.6125159629956677
Ni 8.565811299012982 8.402973237395235 11.327931729839403 -0.71675696979463 1.1370477473708676 0.5509483266955156
Ni 1.3547998974684894 2.793249921630724 9.537017831604743 0.8838905023527551 0.3899065088574253 0.4334707666016212
Ni 3.753907796378265 7.217910004771336 3.3386894457829257 1.7055700783944046 -0.590312687425751 0.17106012130604087
Ni 7.881699812351035 4.966446815134472 12.278140410731048 -0.2879596974092783 0.3126656847963905 0.02638311797921908
Ni 5.322391016284567 1.120457265896321 5.62505445767115 0.30922606298722227 0.3623514820572921 0.2932335442137079
Ni 0.7630904559591037 2.436210704095416 7.33025229829863 -0.8555250638361847 -0.7817436590786602 -1.0300623450575486
Ni 0.07728808149565641 2.1409942866419374 11.279371403209815 -0.7735986613740226 -0.925639047044451 1.0921182338480289
Ni 6.478655317977361 3.406094091888379 5.544093508716758 -1.0777879332682858 1.2418312569368612 -0.5542768768481164
Ni 8.269974372274548 5.513617377688965 1.56758165641581 0.2917196786723427 -0.10048436797000757 -0.5614672239489684
Ni 6.052584442490903 8.834674322128995 3.720591922858153 -1.5404103817331989 -1.1569159470497044 -0.6636855438909472
Ni 3.9412194742055267 1.3088183344260784 9.184751972995311 -2.782607763760227 1.1366296859968426 -0.8376553826446155
Ni 6.585419415535647 3.0095430331199613 12.287235434323897 0.6644370773449911 -2.019901838039308 0.16398341696491758
Ni 7.882603200868835 0.31796082028801154 4.812755790387874 -0.19880283863694792 -0.40883599877207655 0.6128712894525574
Ni 2.3592036768052984 7.057225475377842 0.3411596549224075 0.20116028312553097 0.009542135162480342 0.15338275863093584
Ni 2.608602783674148 3.7565084602931464 7.8485682665891 0.940530876554619 1.4121804682188068 0.1324030710554752
Ni 3.065662622862138 1.8406769178606737 6.5991025577825395 0.7200487531720244 0.35433786772419623 -0.37444980798272287
P 4.191421593090199 8.180420282237195 1.1295650646803317 0.40056398857127146 -0.480737670008385 0.9627457220887613
Ni 4.8076876895516465 6.510976551614236 -0.14501301989378418 0.7647743782141732 1.0222371925861748 0.3222163045993031
P 2.5952892094572646 2.0564955222496524 3.8172992074319114 -1.033166695014485 -0.6171328929423887 0.032189183138034885
Ni 7.501108617397099 2.9058814819864454 1.7465201089508078 0.1913003596123157 -0.5207697462296064 1.496636579081358
P 9.155979504960179 -0.04272936437832779 7.165378418718041 0.379394810692824 0.8844245204793543 0.6472389682991498
P 0.5176835963280103 5.854979610642638 12.965349881249493 0.5338193803247129 1.4768773941765598 0.7000216593178202
P 5.108917571987253 8.023796438605533 5.66146192745218 -0.3310249040298686 -0.5878074045053941 -0.21870137733308787
Ni 4.869546990179648 4.774289689802643 8.55609211608056 -0.557799288179078 -0.3535770782987717 -0.20057175761191262
Ni 6.158627654262258 4.703962262462325 0.7423015698858312 0.2231856383566866 -0.24798701367108258 0.11996484529212242
Ni 1.2922470864631852 5.678773223988747 6.489666620244334 -0.05160821109459499 -0.6166832069994799 1.593460467480643
Ni 0.9000094797388537 0.5338825387199309 9.351629732560841 -0.9454622524179652 -1.6214518104872462 -0.7516668942979378
Ni 3.139840857823789 4.978729248921948 12.253178599716458 -0.04532392074778001 0.6902931191761467 1.3418055180396697
Ni 4.474319076210031 1.672117395630188 11.921773715758992 -0.25437594791656193 0.49470390238049 -1.1290279623901847
Ni 2.533950041612238 8.907620663657282 7.353904652219234 -0.30447980655148854 -0.18357573727454835 0.3404230574153169
Ni 6.846690325047517 3.7065665879908813 7.8263449090511985 1.026160181789665 0.6838298800493061 0.40936975978835954
Ni 7.4903227060027495 7.098142587638641 -0.10659710755954208 0.38048752953637055 0.6815472546627165 0.6254902637681486
Ni -0.12938804859044617 3.1257698972737993 13.440901809642773 0.435351785674418 0.7845965551464229 -0.5589416293136374
Ni 1.2455263873607554 6.27427963481386 2.285282770694172 0.2367525784078439 1.7992898739470689 1.3458735174614562
Ni 6.972233953612211 8.390617802515413 6.730093892863669 0.8348670212662008 0.03024542914810275 0.461850860406211
Ni 2.341701664914974 2.7762315419772023 12.73945438857559 -0.356104986926948 -0.8475014222007599 -0.4693366272602949
Ni 6.891613372250888 6.763669832775269 4.820302278309302 1.5599147703147136 0.7000684533953555 -0.992853082997103
Ni 5.492009054354092 4.939819666700705 11.68891939395706 0.3830249512462436 -1.8070906009384102 0.039879352693441
Ni 6.4013015354985905 6.964486712686827 11.176773842997264 0.10151460900673485 0.39669242143100714 -0.689568068084664
Ni 8.984326561441467 0.9257633526054139 2.9301032444273614 -0.12438174341289547 0.06834943510867583 -0.5837538032613109
Ni 0.3363096448495674 5.6211479867169025 4.410740599857243 -1.0659881124198802 0.6383560639872231 0.03959216047032536
Ni 3.161184552198903 -0.027874554599256376 5.028181101391831 0.9357727930443432 -1.2210109777574005 -0.4530322336733166
Ni 7.65513179711388 1.6592965787866503 6.7230684502388725 0.2721561547181184 -0.6605634533221978 0.8981575537947307
Ni 3.002972934808682 8.069650249736338 9.809097465352322 0.23925246201156217 1.8913762476613685 -1.455743697521738
Ni 5.998545383880632 1.2512478479734943 8.381495403512933 1.7848017076332232 0.7069314990637762 -1.3090339800356035
Ni 3.4343455146268793 3.705818326794319 10.267313459340366 -0.5878940506819295 -0.264067464172713 0.2804446199791557
Ni 6.233070518183669 6.862905692685215 2.1661513755785564 -0.513061064731439 -0.2596184272624239 0.09427592516645053
Ni 1.7584229370580755 7.104137802347684 11.364045370223735 -1.0371665602024975 -1.5465668882528978 0.7738328888720156
P 1.9956856123241458 5.462261109222466 9.601392019864118 0.0446250949085425 0.06909891168019068 -0.11830828352530594
Ni 3.484907896214099 4.915327800218103 5.881989102297576 1.1075402248300537 0.4915990382029211 0.7250680607634867
P 2.296924619896297 6.841178742575277 5.007332901931026 -0.03928337098065492 0.12093749361803688 -0.7740030959012928
Ni 5.582010276082074 5.884891808232045 6.531269030259545 0.07556086525545051 0.9043742241284037 0.9864386948303271
P 4.915464677266255 2.926522540847714 7.051254898537467 -0.3019624394462735 0.1669638397494802 0.3638164966385928
P 8.629951883776844 4.332815583830855 6.254849481571906 -0.2739587551444959 -0.01893823166539964 0.6739966960089683
P 2.425452168110697 1.1568756858412035 10.679746818262647 0.7257550595281823 0.49487616629229614 1.3049994049549138
Ni 4.544171996450089 3.141839262726803 4.136871526833495 -0.2640787770266226 0.12801394084884407 0.2487004947983394
