# total energy = -381180.461165727 ev
CRYSTAL
PRIMVEC
9.08397989863183 0.00000000000000 0.00000000000000

0.00000000000000 9.08397989863183 0.00000000000000

0.00000000000000 0.00000000000000 13.29532280441641

PRIMCOORD
 96 1
Ni 6.779755641490311 2.791379812540353 10.743112373313494 -0.37493523225957365 -0.8539250663389166 -1.1531600795516979
Ni 0.7016166215422619 3.311655670807362 13.247512913248482 1.2477705052394317 1.0636136986504328 -0.577290049913838
Ni 2.9404933407285876 8.717404865776832 2.03714878007721 0.8389730730147744 -0.9098002802399816 1.0578824525936104
Ni 4.073347375868798 6.490694320717981 2.2678101032029168 0.09539101260750023 1.0302924587904838 1.1462942056698
Ni 1.1035491163503697 1.6187016100180387 6.30352527601199 -1.2988500975240664 -0.31411861519283324 -1.0272798972164048
Ni 7.2936727139070765 8.497018432187142 7.464539648488998 -0.6456435987875719 0.6654295231652475 0.041274690379070854
Ni 3.0242748862954527 2.5569767981407665 4.716635763204746 1.8746483933837261 2.110601615818726 1.7542032660210758
Ni 5.762985784036208 1.2454136286693256 6.93739266791181 -0.12322603254189747 -2.1182321357807905 1.7493608503271099
Ni 2.6833167890053398 2.3727082681804657 11.70407207575798 -1.7949781339455924 -0.44720688524079105 2.385448944215763
Ni 1.109889734241042 6.906885938596273 3.392367739604516 0.24615767377182768 -0.4172923570695458 -0.6105423842090647
Ni 5.21328691524214 3.753718463116363 3.6803580591600706 -0.6430089893782024 0.8002237201607186 0.07606403014411416
Ni 5.926561008043856 5.246961228309076 1.6764075916090082 0.17928379476741382 -0.44412284699882876 0.742252028741941
Ni 7.730430462021016 6.646248390574534 5.802757264335552 0.125260546473423 -0.8114103329051574 -0.3273243152498298
Ni 4.157601288384539 1.773047510563046 2.7446727136743494 0.5289278565603666 -0.27826946670470787 -0.8938465851242026
Ni 8.125038543927621 4.44926971135547 11.73988929965645 0.0020409416894287434 0.4811122797389843 -0.4463059706930765
Ni 3.6763956271773894 6.209345298784017 9.66354587199631 0.028285734318570642 0.2784134484817398 0.5424176635166852
Ni 1.3327470103325416 6.462733830936477 5.737489777970664 -0.33923340798259 -2.1296437200518414 0.4408781148092859
Ni 0.28634430241831954 7.658885037225979 7.4517757484916 0.5602513492639964 -1.5691851398730459 1.4968432957755253
Ni 0.6635383950750402 1.0628438029290184 12.878859578386619 -1.7080859028377227 -0.13218247040423686 -1.661094878800165
Ni 5.8733470544570965 3.9830253648559677 12.769904508036614 -0.31488711792774154 1.0254546710822081 -0.8532506659797112
Ni 6.953295991323271 7.051693660365913 10.676184335443715 -0.24916046515389348 -1.5086626570079567 0.38744133514638435
Ni 4.9959436148807805 3.195035538313877 6.39825392561904 -1.0706150696689303 2.140121222544398 -2.2024848723832844
Ni 0.5172463510083569 9.069527174224016 2.55888443389584 0.3705437880600973 -0.6717294972413463 -0.6500275867878805
Ni 7.024632484583229 6.173481746588639 13.09896440860294 -1.1181735361741838 1.394557612930721 -1.2459293382656347
P 7.860404044800015 0.8935729235955084 11.121058619496502 0.6789131594739791 -0.45050355371419193 0.3655167671591511
Ni 0.5833323039519699 4.633883432547642 2.406467062259414 0.2809878940771354 -0.26227643371056125 -0.515848397668589
P 4.249612919637578 5.283633254705416 5.316666238799458 0.38229398661749 -0.7791388744659614 -0.1465726776876379
Ni 7.5075550179699455 2.091177566650781 12.984039346737536 -0.43134112185312806 -0.587421224810569 0.24547581721345468
P 6.2123975159921345 2.7795433868791117 1.5986432742524317 -1.0919732236297324 -0.22547314883928266 -0.3410964293332577
P 8.367853323609102 5.334430869669084 4.090226318709283 -0.16947143666268233 1.3749478091195932 0.2974460396331587
P 0.7306535629284142 5.457264444336237 12.503838373694725 0.8282585148107477 0.8038698015537381 0.5085521211174919
Ni 2.0810580131691063 4.178258258418047 6.342028632733199 1.4279495581276054 0.3150043602318962 0.12240353664060209
Ni 2.8569479786361605 2.2946677978383927 9.576102574177684 -0.056301759915522394 0.11747396054946865 -2.349932239366392
Ni 3.0379826117926223 4.572521149092782 12.709251683403046 -0.06801904835245061 0.6028097914514974 -0.03722751689289072
Ni 7.850611514590639 4.212005243323274 0.8306554628012746 0.2753039563184807 -0.013989372300556554 0.22815095278176192
Ni 1.6245880289194081 5.254101236420923 8.476445943165643 0.7509354154485518 0.21488791712426863 -1.1130860943489476
Ni 5.321050167444212 8.475552987952673 3.4861661896814735 -0.9638726366043531 0.3352638818118806 0.23612214391269656
Ni 2.254988974132867 1.615177025861046 1.013840273973098 0.36844242544637834 0.9368845380512834 0.8511899267959405
Ni 8.122358769890733 1.3976066260050357 8.588286085495701 0.33877703717146174 1.4471073620029786 -0.45667008753621996
Ni 0.593589933926393 2.1915827952261426 10.492787867542875 -0.5604529237518412 -0.6410531512034121 0.5743204257625529
Ni 2.2135115224297004 8.544818333821409 6.622918913687966 1.8916549552440516 0.24660221750841405 -0.9952930598971633
Ni 7.653952436202147 3.5078787181661224 3.075580295729161 -1.7493153418011549 0.39325202829089045 1.475824013211381
Ni 7.822151405920901 7.506619368051981 3.2400303069902074 -0.20331538179532083 -0.11551040906519462 0.07879762702519333
Ni 3.2507748382811634 7.055427176057985 4.591805529780616 0.605616407662357 1.0194843124313862 -0.36178995312686724
Ni 4.362217933065622 2.390621876318583 0.0027687970387921985 -0.6932825408217738 2.665010647369333 1.9388755787939127
Ni 1.5929576113043344 8.209773907372023 13.491827457992644 -0.4741222215743964 -0.10624158216875898 0.5863729860517127
Ni 3.799492637258338 7.335477188882541 -0.01690528638186444 1.468713884529161 -0.19837166463680028 0.688342423207679
Ni 5.942194537255673 5.329907047735624 6.867153519410009 -0.020376763884139098 0.7527107621814199 0.5747562277483907
Ni 4.036475501917166 4.047948568386965 10.58687973016692 1.9434935371818982 0.09800556741221186 0.9956429870374143
Ni 3.239292687831579 1.820402297187796 7.201691059787332 0.16181906232374713 0.38188826653863905 1.0502066812159074
Ni 2.0105844979888245 -0.21377511310139294 10.787213278378877 -0.10105412443054854 1.3510447772497507 0.09391931315798019
Ni 2.085600003062138 6.064201469762293 1.2055531253680782 -0.34061537593178115 -0.40654411741410634 -0.4402613071608934
Ni 8.562541178384018 3.9702623732565483 9.482330467642107 0.5950419745806204 0.03078021860565022 -1.4011064697928322
Ni 2.2397733079912103 0.7159783935840285 4.114689476273153 -1.0378625578282579 -3.076255255582902 -0.29151039087501407
Ni 2.4510212579161204 4.765573887506206 3.927039889036479 1.541342663739481 0.9611529236803447 -0.5470559336196449
Ni 1.686649778817795 4.484778988339193 10.581148647319894 0.08115301463124734 -1.0081640023225604 1.6619209742458863
P 5.057569333749435 2.4126232753604295 9.000521630177163 0.13740360959386014 -0.03217555629128007 0.06688442052737513
Ni 3.50721558764174 6.399155056413817 7.197954818901324 0.10498842648794822 -0.33578632997425395 -0.8218880925080296
P 4.877243251016287 5.880941261558244 11.892054136654824 0.05557670882403977 -0.3900962562707282 -0.30631043200232405
Ni 0.2899388332196649 6.323649016432056 10.051197442182747 -0.9385634684156029 0.5077723055286739 0.37951848075488187
P 4.090470677765529 0.5069442095329821 5.792585932169097 -0.2760205227695311 -1.0281088208756035 -1.806746073114798
P 1.8158966432139083 2.728182565168708 2.9176189712293006 -0.04967397018635961 0.0662231327942924 -0.5433401753309545
P 2.2797428190498903 7.492793550817591 8.609705201433261 -1.019367584347864 1.0003599328971096 0.7939985651866133
Ni 8.821770709538917 8.014350250234436 11.999507625146194 0.2627405178311733 -0.547741903943076 -0.40472531903781267
Ni 2.2389103299115343 6.853081526323418 11.652672192934498 -0.6686146057614484 -2.136711682642217 -0.14493205676042137
Ni 8.840238440443985 2.0813396165424742 1.8454967913467968 2.0157690468178573 -0.12323220318948454 -1.6130805557044154
Ni 3.7395474546501037 4.293733809458488 1.603495936254147 -0.22331367929411863 -1.470076312094326 0.7957885672075004
Ni 5.97496953632379 6.103644109993381 4.043094089589292 -0.1444682297501254 -0.29916147966236867 0.4129682757728952
Ni 5.083086232968489 0.49105723728513545 0.6682266370426277 1.4972855255192663 -2.374090324669834 2.5525482811018425
Ni 4.814518370593518 1.4548447826370228 11.351918881779524 0.751477661105267 -0.6942050526360432 -2.003543965506575
Ni 7.0905821778300515 0.8069090312425254 2.664688271658059 -1.6500579042597132 -0.022240813676071374 -1.1535678565130778
Ni 7.898184316730254 8.636975308751024 0.8436691722427893 -0.01984068887501099 0.7472361122200938 0.5946874194546791
Ni 5.215403482532292 7.576520592505741 5.9998469233659035 0.14089053970119605 0.952565696231966 -0.15522032606030686
Ni 1.411041832108624 0.6049221987095074 8.573342938747627 0.12560456007640303 0.455848362965873 -0.1186731230638924
Ni 4.694573501498333 7.936872986639099 11.068887506789181 -1.5222514514359848 -0.41048793255320276 0.05294312785593463
Ni 6.268727274645515 4.7207262793024105 9.451658409894463 -0.23970626171952908 1.1671918750544157 -0.11143649610613712
Ni 7.0674452813149475 8.810470238685053 5.190985744867352 -0.5896835384821845 0.49603573381803595 -0.9601759044790561
Ni 6.487124316662058 8.634359122572638 12.380431599903071 0.194981922228961 0.5890399913609146 -0.6419065003426428
Ni -0.30571316411816446 4.922299790755162 7.165367858214777 -0.5432743550900256 0.21724176206842585 -0.11889243816355008
Ni -0.24727501375643843 6.582197249102999 1.1856501256568128 1.0015547245361591 -0.6629954598024582 -0.22876930309205118
Ni 0.5503629077164305 3.6017889011944484 4.663533542569353 -0.16095979964724536 -0.3260014826733482 0.27540242956955796
Ni 4.094422208972467 4.362526788378348 8.23283631525288 -0.22040499028775587 -1.0657304878831193 -0.06678851837945916
Ni 5.50024983668389 7.4259445435719496 8.441293666587512 -1.8028300258898435 -1.1801016411375482 0.13159548755251532
Ni 8.626283464542826 1.449884929673832 4.130378417761663 1.083939040471346 0.07591079239570152 2.070607334813976
Ni 3.798647827138234 0.048502093271729614 9.077381183147047 0.2580094309040912 0.1925458019836426 -0.24460447035209487
Ni 0.23060227725709725 8.348658874321151 5.218640104530066 0.5915946394619682 1.6139380186087044 -1.3625556061028277
Ni 6.981728848053652 3.17695841853961 7.678368357071129 -0.2735157540698064 0.49525926066332776 1.052557183725955
Ni 7.356951717096796 3.7980028645734234 5.498227742783512 -0.25111964576279333 0.19451115324012952 -0.7984087784391669
P 6.086657067793443 7.473808033064718 1.7282189787168007 0.2914905933806722 0.10548490650839253 -0.6278165979084801
Ni 6.171873882166506 1.8299313919833766 4.57630280987772 -0.954331529883137 -0.02329702285472762 0.022822911431786504
P 0.9352774747933267 3.1313023361348544 7.769360765792171 -0.4320715722612494 0.05287782183563797 2.1041121514396406
Ni 8.682113604307974 8.576539591234342 9.563724743321194 -0.05796757765371952 -1.1051244162997096 1.470933517888299
P 3.432835961153451 0.3544541660582675 12.665882038710443 -1.556312911896068 -0.37152337836454724 -0.7926291956429123
P 7.427070957065421 6.640280215855091 8.63083181322171 1.762435681233197 -1.3524079761458645 -0.5170817558550578
P 7.842781124015052 1.5079406444865648 6.252657714403969 0.45645257220877516 0.4731246335478175 0.016214404976333367
Ni 6.213278662031383 0.05897137997516796 9.848749143476597 0.7860978222822977 1.986852620893823 -0.9986987431446027
