# total energy = -340856.70297491114 ev
CRYSTAL
PRIMVEC
9.42274280644245 0.00000000000000 0.00000000000000

0.00000000000000 9.42274280644245 0.00000000000000

0.00000000000000 0.00000000000000 13.79113656267070

PRIMCOORD
 96 1
Ni 8.851290980797424 6.51419639441759 8.302181596287568 0.3765591410162418 -0.6082607872637396 0.09878178345660407
Ni 0.25199994435777157 6.834484839166093 11.312772365817827 0.04557100376157958 -0.053843271072700816 0.9354460058325439
Ni 1.9659515996552883 8.686694512530329 12.447617335441743 0.07385905207299537 0.5160039494098468 -0.5603868464005961
Ni 2.7430074934104014 7.5598758350789526 10.081127561152243 -1.1375686528713442 0.9202212184629894 0.8833107185898853
Ni 1.7934306048360615 5.8233020592744715 8.846324253156963 0.3437593208774015 0.463334386930273 0.7944274251939156
Ni 7.314403966815493 8.067667435428952 10.06639887214673 1.5937952251122423 1.8596789165580878 2.0529891075115803
Ni 3.8753007843300153 3.6112472675994893 8.261070170191315 0.7695710282718682 -0.360747885015598 -0.374336165222994
Ni 2.977303988914256 6.483892854118358 13.079803272626412 0.7099157785030805 -0.33998237033347256 0.12869219786279124
Ni 2.137049760337331 6.235085334963752 6.491639290834775 -0.8566473503660859 1.0122070620436825 -1.6383568137727011
Ni 1.6593920909192172 5.142631399885292 1.442842388885379 -0.26019666836339705 -0.27520574017771954 -0.8324985210340242
Ni 3.0517625011793457 8.038061178084366 4.982654902329861 -0.22755419973802743 -0.6873209239217002 -0.5511763835459218
Ni 6.4808587309913825 1.339075377942823 11.836890752323448 -0.29827059241698306 0.528914743934244 1.2206607935068332
Ni 4.919359513258956 0.22386646168631133 1.1423388768378389 -0.411324312411569 -0.01825894621018791 0.018531226034968085
Ni 4.994006480376653 6.1129383222464195 5.247610175530111 0.0283402417055899 2.432600919311217 -1.6171711808340212
Ni 2.5289227808486645 7.433865497883173 1.353910543940059 0.9220585287820442 1.0263692124766777 1.134935071903239
Ni 2.53931606596995 0.4798079392863617 0.7241961921473299 0.6382820162161781 -0.7001090768253039 0.6822941601310701
Ni 7.126947924927149 9.269632485357434 0.6000251743129966 -2.18144502099385 -0.4840829323315341 0.6460860856416292
Ni 3.1601334641710945 0.5197961744610754 8.818480048684254 1.479573195841168 0.07379606004554388 -3.5570646593694866
Ni 3.7798012877713356 0.812475041028366 5.852972391268943 -1.0031547220334271 -1.4622341903420883 0.09452917882783719
Ni 0.7013978663531784 2.775939978903503 2.9842089747137823 0.6027421714383555 -0.17484144272534405 0.0030786389253237303
Ni 0.8676075081585914 3.6371598098329745 9.185723904508357 0.05254589241751595 -0.22552508512314062 0.042594694742075036
Ni 6.710688846488448 3.552769726835487 8.47149508951542 -1.0202893248311848 -0.2892722455731147 0.5907500320734858
Ni 3.2432891678840052 4.021522904467912 5.899034526343185 -0.20715995235239162 0.1883379345498821 -0.314743907481658
Ni 5.013926158297231 5.068926707030631 12.976176660549049 0.5367033867407274 -1.1623052363860757 -1.302910383636369
P 7.084281746296887 5.342921217236184 9.578895378954154 1.6020214696767765 0.7826175770431812 -1.921591594902484
P 2.0564476198772477 3.814175452886882 4.048057347715002 0.8968537473816425 1.934895253989926 0.6535875362249969
P 0.5954070881498582 7.818492429311761 9.47497948867804 0.6387892948698999 1.7447032969504404 -0.159985351549118
P 0.926662663045835 1.1585167836599009 13.34835803351146 -0.581197098277728 0.16364351712699557 -0.6689164532725834
P 4.254754630054538 2.6202197341942046 2.108182246014966 -1.507145963253114 0.2990784330302591 0.6141516988268777
P 0.5833685921653126 5.009742460569352 7.3177151185758005 -0.814474573652778 -1.1499266602160647 -0.08038785433044864
P 7.809041418453512 0.9458737507206091 2.6761013093635433 0.3112672617869672 -0.8112203283815385 0.1667373255609709
P 3.0282056446034504 4.474031273805601 10.071280795103517 -0.449452229631542 -0.8037846980390996 0.7010624418775088
Ni 5.439061460293728 3.920614753639408 4.237602411644496 -0.846236182335091 0.8798770103179878 0.6269581065629267
Ni 6.43288754826023 6.641940516257354 13.795687663499505 1.9954038528979443 0.8234847475711883 1.1759853049763296
Ni 2.928494182089001 4.028165938022315 12.967516217797488 -1.5203390649046205 0.730796992827464 -1.807687868202777
Ni 5.4930349300804195 8.369044435718326 12.288881813090729 -1.2689905909604726 1.319969653111501 0.3296863877241032
Ni -0.007284722327529865 3.1063013355238587 0.19533345472732386 2.661097942578488 2.374710988972968 -1.3614860271877327
Ni 6.28973724221983 6.253045082417215 11.289190067836827 1.7123073971182383 -0.24941089060180271 1.0566125847422512
Ni 0.8932373681131656 5.820296204375387 3.4759451638959145 0.19031974086660128 -0.20994625684827714 2.1448247986676545
Ni 8.198794321873015 2.928908782764737 1.9781041108256612 -1.9119646133356811 -0.4357161109923722 0.05922176177579478
Ni 6.2263410298027795 0.6637417599794783 5.19545246824829 -1.2310567920291766 1.8866377045351184 -0.2435660017852515
Ni 8.423244051328146 2.146208666174039 4.611328172124023 -0.8791810126922278 -0.19015878980870476 -0.6766611302150088
Ni 7.861639167816171 4.807087534818239 3.5710074451965457 0.9141014787184966 -0.7577465248331142 1.0631778966645946
Ni 4.822305264166268 3.2767399042217766 10.908499016004942 -2.7224128394378857 -0.370447114581233 0.6478897145092714
Ni 2.352067324419473 2.8954674691695956 1.0158197115400205 0.24152660275771956 -1.2919621121549814 1.0169918850268358
Ni 1.197517515406953 2.422615398492965 11.423874039623854 -0.6384823051524423 -0.511333283407055 0.15802257139579237
Ni 3.3205273892250506 1.828803580670426 12.449824141765772 0.18758665820615436 -2.0270690452117086 -0.5206846427149677
Ni 7.994122929199006 2.840485765921456 6.8773639717798005 -0.28600154524164295 -0.6034335410784253 0.5409986716819716
Ni 7.503188615414718 8.096227768341567 2.541789535910419 0.21868337961095885 0.6138714485822976 0.2829632726359514
Ni 8.367159887192253 5.33887886064776 12.790106704101632 -0.9466179632889632 -0.22990444513775887 0.8456291448787114
Ni 0.327209449210501 7.40982808143313 1.9718295065081057 -1.1669193381193192 -0.16359029529155697 -0.9769104436249175
Ni 6.823422539318052 7.3279256024900565 8.20401640583876 -2.1646428618348463 -1.2581130248160204 -2.8168384028083233
Ni 1.0257974537113066 0.9377334433622426 9.120533601894488 -1.2817154947263087 -0.8348976173938201 1.0792475485329478
Ni 4.176715475589911 6.216692141349292 7.47227165457025 -1.9596968864146378 2.5055035210082144 1.222466222146688
Ni 8.051205904053715 1.5245809121066836 13.405963970582155 0.6704200344013035 0.23493840801724059 -0.09865939894612685
Ni 9.031793038624564 8.58071692616669 13.526470483807543 2.8811422070927155 -0.42602845139096307 0.17622675310864488
P 2.133356045226231 2.5229110710504963 7.772325701794321 1.8544765464215416 0.006933236784723544 0.7276299079533921
P 4.263932381376506 6.69286101743181 11.43534811332484 -0.44978261638776734 -0.26431146186271903 -0.8119052702637051
P 7.437615749450055 0.3052073451686148 8.1075605009031 -0.05370186039883009 -0.08055780424940964 0.7144815434968921
P 0.36177583827570675 7.3882782690374995 5.164187808200762 -0.08323252286809535 0.05387335297968786 0.2369857774645725
P 6.6146522535998376 8.065613277535533 4.627726571123635 -1.8251921956351276 -1.9220621067809995 -1.4750215719147435
P 0.9298974905908368 6.4487177558792315 13.586352013223468 -0.9665926066386773 1.2064333370535416 0.5519654551061204
P 7.903909591255958 5.817441113358389 1.796916077335031 0.5637143681119324 1.6744299053461742 -1.994393923576191
P 7.544620414760402 7.948743000691202 12.226421279016872 0.5472562225559091 -0.5110466054045715 -0.17851092115713127
Ni 0.11030356750523522 4.390837879122169 5.304470773658744 0.49969698471970714 -0.3732650436460023 0.41386713343808074
Ni 5.962532504380643 2.0744827492717532 3.0833805140755124 1.2931149948125018 -1.7381472409994776 -0.05166066159908522
Ni 5.629400861426962 1.5011653966702436 7.741447374194638 0.0820251328235555 -0.251256942671606 -0.8762916069595746
Ni 5.327929633711284 8.181371670749483 6.678054119662466 -0.8503041817568775 0.7476953112446995 -0.5815562813893598
Ni 0.43479078636982577 1.8143773617033476 7.095098112562275 -1.1161415933458196 -1.135696889769928 -1.7755051128226456
Ni 2.6913049045976263 1.3718476768112087 3.5089473776844806 1.7011791484155605 2.4376186842407823 -0.40182614311314674
Ni 6.922766514869918 3.500520618950152 10.711327184190434 1.9173659868569108 0.5469965411366192 1.6884087361237694
Ni 4.943811530384735 5.381403698138566 9.508106082669327 -0.38509134685696905 0.6876379409414867 0.3837430603591907
Ni 8.507087615253072 2.1559706275390904 9.764565811114046 -0.6793489614598172 -0.6212528286480333 -0.7479411087069183
Ni 4.9146198737158855 7.9318103321844475 9.59533523802134 0.5977609161736802 0.4914303738355408 -0.14236532447450967
Ni 4.0859744640595625 4.824971900330659 1.251559771214846 -0.8798713538910332 0.327748547271442 0.7043244004582321
Ni 8.734496085894135 0.24701814032910124 11.215324246083188 0.9141693558419547 0.01567575886404397 0.43298559943508663
Ni 0.5469883251437629 0.5100700195180198 2.0921428535095705 -0.9300320339058242 -0.06573822273807389 0.12200861519502859
Ni 4.9745296713597025 2.673976480900398 0.18794696677938616 0.9261751220535792 -0.12054617171688918 -1.4407901615356995
Ni 6.018861659824924 6.295315505857 2.849897201260658 -1.5632217232007593 0.9067085286885352 0.4892580487745702
Ni 7.813686830570279 8.769303697170677 6.127967596741841 2.729180754289339 0.5934525186063134 1.6926505421192592
Ni 4.830776309790959 8.642435890395536 3.359300090600448 -0.15289836279534957 -0.3168972063792349 0.024467389013744956
Ni 6.2843097424647425 4.248403701521676 1.8072735560343205 -0.28882693050557995 -0.7883467662174746 -1.1664920207739136
Ni 5.633622250125363 4.868005565923505 6.869875718211455 2.387764993943449 -3.0198794478963342 0.36187197131771226
Ni 3.604641925015609 5.696999617057152 3.439330270582869 -1.4124884863775287 -0.34727376178856323 0.1120137087658458
Ni 5.570452183531442 0.8838155677570705 9.940623161242447 -0.6197551610565842 -0.5195965518571116 -0.8281484715954446
Ni 7.5559182831742016 6.430597821801053 6.015155695148405 0.1447731625850539 -1.2045158083158545 -0.7582532892662038
Ni 0.7459212675558836 8.929669353996742 6.918130525495783 -0.03686961933283973 -1.5620179327006454 0.5182770617147396
Ni 0.8335951763600508 0.6442310290890587 4.815326780974225 -0.0816950031776464 -0.8925931723330757 -0.33783344231126977
P 4.824425381258098 2.531843831064076 6.014534736409063 1.0974476164807423 1.6948547488594294 -0.6795392230937523
P 4.681821594290258 7.220176540511911 1.0025270485113742 -0.6079499408915401 0.5623614536284638 0.9981456988546099
P 0.5858316970888883 4.419596089630022 11.871796360123346 0.8245766950837863 -0.3988511196452228 -0.3149855911788188
P 3.5725574863592393 0.30600450919514305 10.7343035998203 0.5622431828830445 -0.15267133438620803 3.2345105118147908
P 6.878234633198845 3.4608508724763434 12.988699485504798 0.08398457054277149 -0.2748833238412943 0.010983238484381083
P 7.204176723525563 4.054643844813622 5.458835085703535 0.03894655646652648 1.1646824783690006 0.07256732984476534
P 2.8490510389724513 8.478367095715742 7.093829811404229 1.3519868294480457 -0.5873947424480077 0.3785466037599158
P 2.2732460823165273 8.885467268317733 3.1257197235365006 -0.6495023104120298 -2.119244121985073 -1.114200667569365
