# total energy = -340889.9303772383 ev
CRYSTAL
PRIMVEC
9.09072729347576 0.00000000000000 0.00000000000000
0.00000000000000 9.09072729347576 0.00000000000000
0.00000000000000 0.00000000000000 13.30519829880392
PRIMCOORD
 96 1
Ni 6.251493185158848 2.2315917436544344 11.33292885616239 1.2626754473757222 0.5652842837022136 0.06425161089021837
Ni 4.680406416731317 0.8198708796643663 5.832799738622099 1.158878470092714 -1.4103763251305323 0.5305746481351701
Ni 3.1170467665297363 1.8824259978420537 4.6375800003049035 -0.07456019190507805 1.0295620083823622 -1.5203066690047882
Ni 3.6298910578223924 4.651943349477846 4.738114353788178 0.3421683222411978 -0.1922030739322432 -1.2870070821425512
Ni 4.158462307386689 2.720209246626905 2.144411668611066 -1.6622896704392147 0.6613334987190029 1.703331933092505
Ni 5.089207333793384 4.973764187497687 2.3428195196896917 0.36754665310498635 -0.6375574793453278 0.1612467347600449
Ni 5.406582806151473 3.117137673802983 0.37170620421384365 0.655670901116587 -0.3923557417288662 -1.3324767844395762
Ni 5.844719500290177 7.844361336256234 12.192285309961363 0.015315033090515559 1.1044911535910849 0.18678704512299443
Ni 1.8984438593880821 6.965587997964547 0.333478786740969 0.6546967101287757 0.23525182549260126 -1.3252427285849822
Ni 0.6259483934477214 0.48012494550578544 0.43777397411845076 0.7693599407023266 -0.9542027176147566 0.3975241733036831
Ni 8.199463327011609 -0.22840906939542724 6.8671054216384455 0.5682245972774601 0.5050176256016722 0.17076033067743496
Ni 8.987811200605028 2.913323567184389 1.1496197409840325 -1.0711948534318003 -1.8928698014877596 1.6381475259753724
Ni 7.475114173783707 0.8110083295955677 4.593766330891033 -1.4436895945706816 0.1636381178103569 0.8909229837195043
Ni 1.2407297374498456 7.744445152231035 2.5276685509636065 -0.7536551283725601 0.6852355021475811 -0.18204593089358326
Ni 7.920696173601297 3.9954655664557617 3.765876520653595 0.5721529857975888 0.30854497775979767 -2.037440361143704
Ni 7.577348493276691 3.906640069766632 12.652485199316986 1.0591188961038727 -0.04845783839107139 -0.7430781241876622
Ni 8.60570974969545 7.145684396993136 9.165778551294183 -0.5494236625208732 1.0003895005834642 0.07168621279139267
Ni 7.160111381257352 0.9466901621341268 0.4289532413953454 -0.6475307885079558 -0.32179258679832323 -1.4347624672843806
Ni 2.1637749178125647 6.529405810200642 9.192800738266698 -0.1731152040628567 1.0025654251888605 -0.2892532194097212
Ni 9.213361236256853 5.3567565296850805 1.2388106849116127 -0.24741982831370296 0.0602453179443027 0.6319056803761891
Ni 6.69342071259193 2.0943672146888823 6.863486403090502 0.5996995279572899 0.8642138498594343 -1.2870297078503705
Ni 3.2837616149364446 4.304413934583902 13.208203178818144 0.8800683003931876 -0.29126742162627256 1.8050411746085493
Ni 6.259520297386511 5.853428417067189 4.7107585371228495 0.2806585357621747 -0.4378678672280524 0.37704816483751835
Ni 5.540289223642386 3.2597984577086736 9.241125226579058 -0.3763020307001132 -0.16159614767966363 -0.760798938506193
P 0.32905887511572546 5.852246622514985 12.348009469032572 0.7345685440547542 -0.3078888322330375 0.1631148983170352
P 4.2221428522958435 6.196630645754601 12.448117467404321 -1.214026061799135 1.2097063513778585 1.7153880929260907
P 2.8229435561227447 8.871277167030373 1.3846723139083121 -1.0431564592373452 0.20252682445575443 -0.8453674065768926
P 6.552550801969194 7.969522470061979 5.764383833849536 0.30855500506212663 -0.1217767016898806 -0.16925674954871495
P 5.0022817991151065 0.9158271428669491 12.31442650414986 -1.2159003960037125 0.5031499762653141 1.3464090782499523
P 4.279796244988757 6.299419499614388 8.165440370926383 0.34958441219961084 1.1644083987720075 -0.33241869905360166
P 5.257558513118529 1.3705998680097577 3.7014532633220165 -0.9179064542868837 -0.013110312129712906 1.028383414693229
P 0.44925192643855055 5.923881553833207 3.570888601194501 -0.6279089005119701 -0.7040050694456005 -1.6365339016313494
Ni 0.7686291769535265 0.2180756396455006 4.499605486335068 0.8755804398251631 0.1994731252310952 0.15110707522288172
Ni 2.2570275987087975 6.694402511142992 4.491782006399476 -0.27533635221831293 -0.3420454235100883 1.1892971915938872
Ni 6.313519217694917 5.759375752166387 9.263997496527871 -0.2734936425826193 1.4784581084001183 -1.439866107059533
Ni 8.66282678947621 2.5785211705449513 10.034780266784608 0.8739292773749852 0.5675573960071064 0.6911752646707839
Ni 2.8850695866593847 5.359811014066162 6.761502078598947 -1.5772501762693676 0.8716327680313246 1.2000256337549848
Ni 0.31374190864642715 0.3588373706130728 9.20097057491336 0.6786915303814763 -0.6955672230908924 -0.3031140365522134
Ni 1.6264311163799838 1.1593131835303039 11.220141111318222 -0.24139856182028752 0.9437774085163746 0.044352300863130065
Ni 4.261069346699983 7.29949950332617 1.5649441639742667 0.9241220961792924 -0.6471289250838468 -0.6613766932521126
Ni 5.9103727330287805 8.119155841825673 7.846767651779068 -0.21772127280800568 -0.21702527518224557 0.7432439603415651
Ni 5.418818925130448 3.2681619268473496 4.89989202818487 1.221971799008773 -0.8330700772667782 -0.16521214716569613
Ni 1.3416095385714575 7.657519617552756 7.190195325192806 -0.9118857020141005 0.30942686614411874 -0.10894741113569623
Ni 5.493908332832036 4.997763707634756 6.887941368666537 0.1746388397962347 -0.978252816585425 0.2750776992402876
Ni 0.7398324800072411 7.700182400887327 11.293945090176106 0.9830944609484424 0.4611587194351928 -0.977581244439697
Ni 4.768386475779255 0.30755748684746953 10.200296957329927 -0.4041817878295168 0.13807723862211704 -1.131940250940973
Ni 8.316806435318156 7.414033576889401 4.570322254193499 0.4488796449575237 0.08474895951262179 0.7154927583702259
Ni 7.642683550558932 6.288728804280604 7.12796747851013 -0.7135765151841195 0.43133803652933456 -1.8068360617254433
Ni 2.557521590425016 5.653286964287753 2.2357389334599382 -0.056785127309844134 -1.6355052032565187 0.4254957188159446
Ni 2.530576674634761 5.227140939490258 11.253443172726605 -0.6991186878875766 0.695926406202524 0.019121551320799325
Ni 1.5646959871183037 3.6272729283528937 3.7434442419072953 -0.8552952072135658 0.6787205838471988 -0.3024854018292791
Ni 1.911598141826847 1.5385056016959946 2.4247260638120323 -0.22576368349650794 -0.8482637542880811 0.26548002824952344
Ni 1.358327386121484 3.5316021139883054 8.0370047571383 -1.2380841311896034 0.5042563219556154 -0.4634392879392535
Ni 3.834596055718802 3.0876291729071776 7.162853144618465 0.8831479677597759 0.5353964950038457 -1.7244442895910883
Ni 4.418084389051293 7.193828888904468 5.938828527700391 0.22932774669868247 0.15102891368677862 -0.2615917489387108
Ni 8.318606399328438 7.634101903964464 13.116157746510625 -0.4126677138133409 0.4696736988847395 1.7465370077250695
P 0.4751232273317645 5.7271582145278375 7.7459805760761675 1.186233465066899 -0.6665826629330842 1.110683398444726
P 8.582873842655935 1.7984094959076629 7.869107205106656 0.937133935057928 0.419076188442846 -0.30997039735241455
P 1.8144182667263666 3.3197154415054246 10.157906895815096 0.44411564790997704 -0.0473167828080927 1.4523159027871118
P 4.349767573206568 6.462943502730145 3.73217446724293 -0.4987451623293992 -0.1743922710030674 -0.8656066164419027
P 7.158820497977252 4.192907073219778 10.372014432983388 1.7091328560449985 -0.5666371981856823 -0.043519777659505696
P 6.591359116918114 8.15177337146651 10.008529882561955 0.6858407398317479 -1.450806922341753 0.19048994789587836
P 2.5828483567514837 8.48942116575856 5.660989537549927 0.07876188869125145 1.9222639383791607 0.5033867748664685
P 7.085749231741737 3.967220676658082 1.4752405030255764 -1.0354392930987457 2.1326601382806625 0.5728065602211877
Ni 2.954395473237146 1.5333784314848935 0.005902609251893532 0.7414912393165165 0.30544139913380947 0.33281310627854294
Ni 1.9121072225570273 1.3920630752232503 6.584223805040998 -0.5052341124878524 -1.1560885660524025 1.3847719942988665
Ni 6.878053384555518 1.1464861672752267 9.15501422106907 0.0677357127840769 -0.6204501302410799 -0.3481404806642327
Ni 3.1323555513444425 1.9108345207315767 8.959986302409748 -0.8688930005026584 -1.4827364240604979 1.0134679310339771
Ni 6.894671234104973 2.0284867137671627 2.4634043813602093 0.14526038663411758 0.902557225524323 0.2307192277295704
Ni 4.44765652503837 6.75439222075834 10.361237375740018 -0.4018161158108176 1.080979186512074 -0.59707288896772
Ni 7.510913457988169 6.256902167917013 11.376596164866335 0.0990077834244811 0.04408002103834989 -0.7772503991939969
Ni 7.704373226183988 4.088400071895632 8.148888883686398 0.9187173802239533 -0.6902689508064305 -0.5500715805175173
Ni 3.3674326692324987 8.476803236231952 11.915709930909024 -0.8590870701558301 -0.6262942477266827 0.5477840700349211
Ni 0.28566247008605633 5.111770519013159 10.138600918195742 -0.09332178878329735 -1.3611983207439848 0.020603020962332255
Ni 8.923639756420343 2.413060842509045 5.747485989898481 0.5978449912470543 0.6375909036864245 -0.20556869660587176
Ni 3.8699953479209785 2.707691315100866 11.111476920388517 -0.5269375656032151 0.39858526757834584 0.9246383736940785
Ni 1.03026121842961 3.7493068519589605 12.663063169631945 0.4373397626387242 -0.18476487248664308 -1.7313186481134182
Ni 3.5162569662643004 8.704544137169016 7.802221269742831 -0.16343242955745402 -0.0536424679158044 0.43120793870937346
Ni 5.878891544303526 8.066829615345004 3.6367763746980803 -0.2618689138594974 1.1736093485449852 0.1640554078534336
Ni 3.4569854241075997 8.641218130625523 3.642963523715235 0.10998022327558478 0.5719388129042537 -0.2848270653175675
Ni 3.5627378550752224 4.550599921262678 9.158939597127853 0.054187541785997 -0.8370827979705969 0.19145334025041222
Ni 5.544661863485542 4.851402997707933 11.526892250651995 -1.625876421917503 -1.6849650005495431 0.15437957532656638
Ni 8.129991988796654 8.901676559203993 2.5889391440589975 0.511189558740339 -0.031963697390790115 -1.1310776458303617
Ni 4.957700872315035 0.583846507989082 1.7041295628237452 0.10442304090278144 -0.672158614358965 -1.0816962671837562
Ni 6.214766646767272 5.899209319874113 0.3567974114014219 0.04601580460848204 0.08076606360547381 0.16648021524484233
Ni 7.948886519035029 0.3846841265425102 11.206223207784188 0.23803864420911908 -1.2435472111867034 0.38570481207125185
Ni 0.3957620868603255 4.988554800854889 5.5649123676739265 0.1878460825151281 0.321210231932292 0.7664152562517059
Ni 7.29341780674598 6.461561712176799 2.575766680165583 0.7954170428006947 -1.0404218339150015 -0.7797883351245021
P -0.0789484214509 2.0026326852558656 3.278320814632643 -0.46611374944762307 -1.2484744732849917 1.2345370372682933
P 1.9137162812934898 3.477157748040992 1.5388792305890375 2.5521461605674176 1.5373911352909007 -1.204334545542984
P 5.071053151326063 1.4529982204803615 7.976439604483303 -1.483314150940839 -1.2608322235193963 0.7238056491112953
P 8.762279346407851 1.854135654407751 12.462553542395861 0.28766556320762715 1.1269384268510074 -0.6289306569082652
P 6.525660430542887 8.068284131716947 1.2234609918239456 0.1816378968218872 -0.7847184254362679 0.13865907926751606
P 2.073676719297985 3.4499128382490243 5.898859326872114 0.08146206123123391 -0.4805381524030692 -0.5237990199742335
P 7.4386512664845466 4.111435974936287 5.76697832742799 -2.256235326631863 0.3753944312841793 1.8650378668771557
P 2.3789887964962664 8.778769925774762 9.704478689243603 0.09600139249798949 -0.3666287692764073 0.7376800931005425
