# total energy = -340855.0017292601 ev
CRYSTAL
PRIMVEC
9.37842612176442 0.00000000000000 0.00000000000000
0.00000000000000 9.37842612176442 0.00000000000000
0.00000000000000 0.00000000000000 13.72627461503921
PRIMCOORD
 96 1
Ni 0.45017852312086654 8.783299367294473 8.041331746871338 0.14421960407442905 -1.3706849200781814 1.2756700598631772
Ni 0.06795138671233687 8.235074087927092 10.493421614482724 3.367799327909329 -1.680210259473377 -0.2279820313040654
Ni 6.572054048264071 2.5642586579634066 9.666824952114272 0.4703038762695707 0.9616661158713375 -0.671468787380792
Ni 4.244647542867095 8.277774062214757 11.172336200174733 -1.5653441688604008 1.1813499117223525 0.06491855505025593
Ni 6.729255227488719 3.03032892420539 5.0544943361211665 -1.9423442540688032 -1.4949802744248577 1.2726359010225436
Ni -0.03043486856102072 5.86565223335183 3.704447382761288 2.532016479697078 1.2010250215537768 0.9279988055258792
Ni 5.065513049011696 6.370624211288352 11.64905004226101 1.2098050817392518 -2.264431232179094 0.7148556390068592
Ni 2.4424329021986897 6.941057603792828 1.2172212415569452 -0.23913393415582687 0.24598720963223444 -0.25341127001044744
Ni 3.9369507591192425 3.01789313112271 0.8909232873715461 -0.11793315957407431 -3.0343077075065223 -1.2911547857623376
Ni 9.0818428071142 1.4567134210862518 9.54906755761597 -0.5487634032290549 -1.3853427792006723 0.8435419233323795
Ni 8.321711988754995 7.71955138056522 13.304287863899894 -0.7165404829084497 0.22250738134273937 -1.2288710972317676
Ni 7.342360459002391 5.032379069403016 8.910095688921801 -0.18351300235741297 -1.6655559998953122 0.5209800624681995
Ni 1.0144268435755477 2.9920086749325163 1.6271541245151382 0.5724448060063948 -0.17090714066794438 -0.4102557619377386
Ni 0.20868123607943553 5.686946322951778 13.37731204131994 -3.5204176975704145 0.21171877536766764 -0.9840167156523957
Ni 6.978955823888687 4.744836523464124 2.251548167592628 -0.3330316500472522 -0.8894782808531778 0.5428686350111748
Ni 5.223811504096581 5.3333327647447994 8.08970379329807 -0.4191160405418459 1.2665930372625736 0.49459951559214177
Ni 5.199493245074416 9.320608158616427 0.45605129357967067 0.19219124685770125 0.6055256477207636 -0.04817090327827188
Ni 4.260956625952148 3.367201991724145 8.665891788091786 -0.8219803951115198 -0.02415885663439065 0.6332205425328707
Ni 8.04928746577936 4.319168517101616 6.3191929222495755 -0.948799030100682 2.3389014354735265 1.9643778368300746
Ni 2.5602446915686947 2.326449905929078 4.783112694134065 -0.6522150813575026 -1.6066003472967103 -0.5671305928823329
Ni 3.2312429477425364 6.0573566424039145 10.029610611101688 -0.5164873168041686 -0.127461925000116 -0.761904769975862
Ni 8.226361530028292 2.3310734700239206 2.347590754169634 -0.16268346720657142 -0.4719375552182517 -0.5084809015599243
Ni 4.261547466799967 7.710773173683328 8.382841508281555 0.8083370932964723 0.9797137174016675 0.27116833688355235
Ni 7.850755562485804 0.4011143488438309 0.6344036373136468 -1.6291887741201878 0.614665919459135 -0.2765931074435494
P 5.353280677178329 4.4915346114203025 10.519254489329061 -0.4596775069039761 -0.8975582296478349 -0.5194489705356538
P 0.5219187940001738 2.7338487381399554 3.8017251080630223 0.9277267828114153 -1.4279575285474053 -0.2163015096423436
P 7.334801447520762 4.605248028560194 0.17988008935476693 0.3173322370341245 -0.6509794091781885 -0.3276580444401647
P 6.048625327652803 7.973059617984471 12.71887618698188 1.9198226759275194 0.840135725864308 -0.49230454891037795
P 4.143698163725338 0.8040706205846742 3.6713668601816978 0.09882292110718464 1.1358401002160115 1.0734918769960933
P 4.280979565794925 3.3831546946152757 3.6875502723562623 -0.05629147550287725 0.46777133965570405 -1.2174811102272711
P 6.299451335191474 5.0529272011105215 4.5679115761910705 1.4069066214143768 0.5405880665071141 -0.3707366207971938
P 1.6913147513752735 1.7198626805937336 -0.11877870510667556 -1.7166726160654693 -0.5846827428334834 1.8314389478757878
Ni 7.364878060202629 8.96955491075 8.468891381789483 -0.024400540331551528 0.42571631946718297 -1.430270235840982
Ni 4.160851305164419 1.110837064457864 7.967800196596261 -0.09552085331714516 0.03205651421491253 0.5289664231077859
Ni 7.631591121649341 -0.15394592750594693 10.62489120586352 -2.16129142886411 1.1919446565190632 2.2873209922930737
Ni 4.492631887280539 2.690689220970654 5.767299740412635 2.265187393618828 -1.4478588954570226 2.0265201146867744
Ni -0.06533293012961872 0.42070119187035987 12.559444818017367 1.2798288192265572 0.39295917964082 -0.8905504308714339
Ni 6.1126518430189085 0.17571419245633063 4.6941526949899695 -0.3636452611680511 -0.7536479292837085 0.4512851690752228
Ni 2.2896114479888308 6.456962002479266 7.659631678012768 0.7025390264230352 4.017718414143804 0.2621285952787873
Ni 2.0571202635848795 3.317233737165684 10.158967243069567 -0.4825736947758592 1.0780771823739306 0.23314197823845006
Ni 7.82144798074872 6.627574331106805 10.829481572453766 -0.3107646111189357 0.6927220403326135 -0.3227942885899602
Ni 3.261525885799832 1.99176201170464 12.319646901795382 1.0475720718065378 1.204948782088215 -1.5647530722436211
Ni 3.7936296506052773 4.861841768184724 1.8397602319408042 0.4929673793053575 2.3446095416018977 1.2317638453985302
Ni 8.350663190298157 4.091188355678637 4.070224759692427 0.03126050067617842 -0.8265901259693894 -0.6227641230862371
Ni 3.6897635809290468 8.536815571065969 2.633276371729665 -0.016059367455707827 -2.1462095948303235 -1.8336963764513967
Ni 8.620424240245526 6.725194368963228 8.1574019625042 1.865700440161819 0.47592713599361897 1.1144161260142806
Ni 2.9990049808447927 9.310845216988168 13.220502880308604 -0.8524677650670996 -1.985104527854465 1.3232578369444694
Ni 8.115583560275185 1.1902441987195929 4.569106387683328 1.1915795598701608 -0.5673897600809905 -0.7007420824236125
Ni 6.406055905305219 2.3011093984559245 0.5698613085089677 -0.3988099819946422 1.1142921988419068 0.1107960343086608
Ni 6.7339444405666535 6.628296469920808 0.8925645119488228 -2.7700695220839 0.020863730822886648 -1.2704651186234701
Ni 0.5586015700662333 3.2978203950230385 6.003255315438563 1.8702057842313402 -2.230538693196707 -2.2094985846969557
Ni 0.6875052240507833 5.54370024184706 6.2639577435619795 -0.6437723499067881 1.6197214580597006 -1.3415849173884313
Ni 6.0735625628012535 1.913001988847666 3.164825871549299 -1.4909194740919225 0.48769301828029554 -1.6410834686752447
Ni 5.459510110245838 0.5721834068251604 10.350777628337212 -1.2058730936746973 0.10594564819489496 -1.1705847027860485
Ni 6.126644454843463 8.487569455321509 2.531029018407937 0.35617929180830915 0.5899627602855001 -0.3965877775323428
Ni 3.230398889388508 4.4644966088129365 5.447491657127095 -0.3681210375512176 2.591034867212815 1.5674200775528233
P 2.113006305047693 4.549812151552862 7.503756608246559 0.15438471753288896 -4.887354720570389 0.6235889329803777
P 1.5096358798838112 1.474241699571568 7.184414632740967 1.2052853394920273 0.27966660416255057 -0.603020879021039
P 5.130486785419545 9.13061062312471 6.611685401513535 -1.5260296875314945 -1.449227493669775 0.8974960089513317
P 3.3865027927529203 1.7380662057622722 10.075716829769163 1.486531629436872 -1.5888759334337539 0.13280673425179707
P 6.4351665400930305 7.208502182479697 9.118858517308793 -0.2077641615952938 -0.8262769656043448 -0.13894447171841878
P 1.8363521118757622 7.458990566676758 5.467642143565591 0.225227865597696 -0.29156644092393014 0.28477050104801926
P 7.921150029211744 2.0204224820369707 11.385231163125999 0.18846623259763023 -0.6580658837113248 0.5713783124150933
P 0.9330446127653932 3.8625610828509025 12.138405064962782 0.07086834487578762 -0.46275357472613854 -0.7193630399589095
Ni 5.724966462587664 2.2457016567270602 11.899156724513528 0.3974341846930381 0.9212308906744264 0.6639879056227145
Ni 8.784359129450088 2.643656413798979 13.45412416506434 0.18659266972400124 0.5266264621206994 -0.44658802070986964
Ni 1.9309616749361518 4.531749302776661 0.09505316261756233 4.159397511184566 -1.5841253061226461 0.8760131564872075
Ni 7.236187296491817 4.672603885211633 11.73065266608583 -1.1842310899248896 -1.3865208586691733 0.8508286868017798
Ni 8.910583367081907 0.8947740691511452 6.895654767087042 -1.9228982295290495 1.6962886530924788 -1.7754477772221486
Ni 2.7783118565449225 6.471329751350056 3.8421761357585096 1.654668663558847 -1.3287368577811698 -0.12067678375748249
Ni 0.46935459108176847 2.97545575276741 8.20194292184626 0.45597254724856306 2.2689329767041895 0.8142827693569461
Ni 1.3082998271696509 7.942983005302604 3.2196212020501855 -1.3401150177111243 0.2600837969346166 -0.05044504402442926
Ni 1.1178427487962967 0.6270565782631402 4.219511485084139 -1.1098200220031662 -0.27585802904973783 1.4828467243861172
Ni 2.4954397668316517 9.041121680745423 6.835313973200192 0.9436542526749491 -0.8327263207741141 -0.4468345895030369
Ni 9.120810167791829 7.71716926032163 5.446229320966515 -0.25126311331919304 1.1236651554163744 0.4848228958213521
Ni 2.0543536278688985 0.09023546510129328 10.987855054947898 0.31247619449340375 0.4171038952078236 -0.98947619610507
Ni 5.314369587057636 6.2707064590237405 3.1303592175838713 -1.4826947721892851 0.6955489682584474 -0.5389497595727428
Ni 7.2131069897222275 6.60729817375782 6.454505792669045 -1.6232798648349207 -0.2494592273412349 -0.7682679931897285
Ni 9.062101220056098 3.9068178758804404 10.386768276552969 -0.27836485463199157 -0.5696746994604254 -0.09517786815542963
Ni 0.707614445414194 8.983510008869931 1.2418996321434947 -0.5496386067451566 -0.32815555290187354 -1.677412385013266
Ni 2.1606018177887196 4.203138628701225 3.3954826357971633 -1.1304677801605048 0.4879213322410178 -0.7619803604088038
Ni 4.169029292772335 4.217853379339781 12.414248962114845 -0.21020748092946379 0.236844881011334 -0.27270071436767873
Ni 8.514954459696641 7.086432587634928 2.0568135890495824 1.360365283319728 0.8244368270718124 -1.0826038665996904
Ni 4.135970340572904 8.224926630826443 4.935967910678085 -0.21893380505886811 -1.1771407587370115 0.2170576710820778
Ni 7.295036920619885 7.082352972257126 4.025024496991608 0.12917042305079043 -0.1826102880374855 0.9761311422567318
Ni 2.432482392047314 6.3930011360962515 12.25398103753723 1.322253049829039 -0.6857741482598706 -0.17359240080959137
Ni 6.5571423506762425 1.2189703180350147 6.8230704378537075 -0.43342422963440197 0.2464834325423626 -0.5669243904087978
Ni 2.23213107407952 0.9339918338071357 2.268939521056068 1.0073952424773358 1.265646357078588 -0.8702592847225658
P 8.19391217552899 9.248769414262483 2.5745411644006997 0.6300064064709472 0.2558486758073465 2.079882846578631
P 7.319383314920516 2.896404998699604 7.650641518699753 1.0922660722798028 1.1645212702007879 0.9727519413718536
P 1.0964974508655427 7.6728561967351565 13.085284731993312 -0.9197015985140935 2.603950032612586 0.26168585131441385
P 0.5938541361435231 5.807599775447011 10.07662278573582 -0.1834404972482647 1.2502192238902403 -0.5089894657652267
P 5.042995447811458 5.844222529585674 6.078598777646954 -1.4036042965140212 0.9043022332398878 -0.4324996609376035
P 4.2928338964559405 7.1510030517180745 0.12084102101835079 -0.08391746475026193 -0.27752693211172846 0.27981495681495683
P 2.0042634537704114 7.9958679503955405 9.20894392759159 1.7939890305594457 0.27017100596728955 1.1472766241877275
P 0.8967200925784877 5.4780700156083 1.7424684389998364 -0.05293438610518625 -0.15267236282747254 1.6226939104244633
