# total energy = -340855.59394693404 ev
CRYSTAL
PRIMVEC
9.45358303284497 0.00000000000000 0.00000000000000
0.00000000000000 9.45358303284497 0.00000000000000
0.00000000000000 0.00000000000000 13.83627435138378
PRIMCOORD
 96 1
Ni 6.092285985991766 9.349442406873047 4.08159016610267 0.9323059175416653 -0.9884055887487108 1.0463253438836304
Ni 2.0842598219693356 6.858905398540965 11.238237109045471 -0.10788477419913678 0.8760247264514333 -0.09943998586589325
Ni 9.040773465791279 6.32141247905473 0.6636141166889535 -2.4247639397653016 -0.43935422196559176 0.1323930437531462
Ni 4.851106156506986 9.373681393885196 7.410017149809453 1.707936521744052 -0.7876638812178369 -2.9536054072594484
Ni 8.969068038144187 4.178332463173699 11.569823426225076 -1.4170388247523726 0.8124806831512006 1.1116917851045822
Ni 8.625458654005906 1.697447563164315 11.89753566505929 0.17277093334956053 0.07096424702370359 -0.038742410875520376
Ni 4.8773776638809165 0.873376835533125 11.416573281663243 -0.21415103895824408 -1.0050753360949078 0.6559148988065929
Ni 6.279022612532704 6.408253093209798 4.855135273614856 1.9811817957612912 1.6944891379898945 1.1628281987690812
Ni 3.4164871100789216 6.57610146076077 9.076429545086802 -1.0802402514635203 -0.03457619531297271 1.4755275650168846
Ni 0.4887190483115944 1.6758177650817117 5.932344595327283 -0.8165597383165809 0.7287545084761384 1.1759446815463812
Ni 1.072215939130597 0.5118689825531502 2.3383579547329973 -0.1171271187330112 0.6265765548537918 2.9063876119230656
Ni 1.3170353801031418 8.863254082751451 0.5897362556505227 -0.5685776097415046 -1.550464423535091 -1.7208216052368366
Ni 0.950813025242138 8.424995424835622 4.503610404365312 -0.26767215080483575 -0.1556766968714351 -0.874582594688268
Ni 6.2724523722934515 8.607213238665247 12.092751210262941 -0.3452132797151087 -0.6333097598125673 -0.552550381075313
Ni 9.147854201316475 4.786869059491561 4.71183218916776 0.3595286678965163 0.6757432463864298 1.2741613365281346
Ni 6.27451325340447 5.925477512579381 12.671287806040885 1.2088799988218215 -1.4759613101201936 0.5081821393725829
Ni 9.6479487461459 3.4867366859319926 9.637601799466962 -0.7835424028502957 -0.28905267336314094 -1.2043378879770936
Ni 7.310228908270672 8.468652071490107 7.567335171169773 0.2981968017562542 -0.4508385684561074 -0.055029835181634255
Ni 5.095263846664066 1.673255844067557 5.532641430637018 -0.3711554535021672 1.0855578070216918 -1.755280044025022
Ni 3.1155701071211626 2.7421724827039107 6.179404535489329 -0.46342668953376315 0.6149392277251796 0.28601285809555255
Ni 4.708319237695952 7.458621801846996 3.4544612079451844 0.6158627679807135 0.9281736405408467 -1.7699042216961
Ni 8.196549589754278 2.186169447550833 7.639214544745502 -0.8080385882194472 -0.45651247891243313 0.20774847786600995
Ni 9.605313086463845 2.4452165310558596 1.7416137579467081 -1.1631583284149905 1.1425195691187162 -1.32384687667872
Ni 3.560276108696229 3.095471789497205 3.7866147401094725 -1.5775206563219348 -0.2416489872681967 0.17437170217777712
P 5.010956792773918 4.271506977991068 6.631297150920338 -1.1634727743316156 -0.048379419744652166 1.6945940389988754
P 4.424891363432607 2.428521503340004 10.23816524381679 -0.34307746431902847 1.976186399429229 -2.0394602197872103
P 0.7563348595185755 7.715314943165585 12.673501835197767 -1.468688173497548 -0.34707501551419584 0.26202755092454877
P 6.977424969590614 7.084808219774309 2.965584284796187 -0.5017009025236133 -0.9927399544580063 0.06477457327322393
P 6.384713671345425 7.4387787309661455 0.12091132756839977 1.0151100946230907 1.059413030305524 -0.15452072889012097
P 8.726290571116502 1.3974759185143626 9.764646611736408 -0.48397803132255357 -0.7730993531401007 -1.169794088563953
P 2.082425826852192 4.910484111820286 4.64617989076555 0.33515203882436473 -0.3115426269355409 0.4429154569542888
P 9.44504649254148 7.565522919293709 8.235433122312651 -0.17916346713946563 -1.7872519689459283 -0.14519353795192413
Ni 3.0696256933617865 6.168169897359361 2.6620713279251924 -1.199649481362489 -1.3408794066809746 -0.024834799655492713
Ni 8.216553371547455 6.773435553932215 11.976983577247315 1.7099363257829003 1.3686570910148752 0.376331598386468
Ni 2.799792071564692 2.660937843314133 12.987031808698275 0.8822383114613129 1.5177702757361795 0.5190383653607965
Ni 2.444479151575771 7.837493050866445 7.329987842262128 0.39645099484416235 1.1677595746324276 0.5701205287485923
Ni 1.5096143209863218 4.524645572072306 1.7137474311075078 -0.5540907289792393 -0.8650669418883489 -0.4990205274779728
Ni 7.091293377765859 4.345433997661504 8.298402493837306 -1.3758152993262112 0.1956213555851728 0.850201337630426
Ni 3.608858072134384 0.45203536453548665 2.680515268510489 -1.5963002509222832 -1.9560785729357602 0.9133350328661173
Ni 4.6418227343248715 3.417961869039099 1.227321822050651 0.5190062265712804 0.02641422832747064 0.6242000842018154
Ni 7.099773241786879 4.306324524467566 0.5900794207162563 0.49313707211400226 -0.23417479037833863 -1.1034187464625127
Ni 4.028549892884901 6.9649746006768085 12.961198947579165 -0.5509915212286253 0.5942559883442152 2.2966738942628835
Ni 7.79729641561853 4.513178375798618 2.8511997109848797 -0.653683438372913 0.02204438139454913 0.071198988742329
Ni 4.855199557979786 6.164218299632733 11.045719616452299 1.2705674485292893 0.7932033229788275 -2.4660363161515275
Ni 8.342626355476478 2.472405035988363 4.318287088494544 -0.14522670518270472 -0.48945268128387964 -0.7877263590246563
Ni 5.436074970211242 1.2276706592662314 -0.07086973090299185 0.5167431415687165 0.6983890088104037 -0.17449588646046724
Ni 8.171459780265105 8.95349798681462 13.477251140644357 0.5308919222652728 -0.5872489608987628 0.39511967762724853
Ni 7.802458071979151 1.870788462483641 0.29066270139298594 -0.7867236287917547 0.23219401250288396 0.35270238900330225
Ni 1.7242106568583055 6.447995956469966 0.5335970978997654 2.8217353258893083 1.8332286927863588 -1.452836551177272
Ni 5.510408493954036 1.4080261172294786 2.505762949237609 1.7649365932781795 3.397191922138833 -0.6741229371741874
Ni 5.07833247937126 6.640149486114633 7.568192611154954 -0.7889969982069637 0.15684320637571053 -1.7387637915375538
Ni 1.654301409996045 0.0798109297782219 10.057532795869355 -0.5279338680782134 -0.09090160937757893 -0.013146564684287036
Ni 8.558432749982453 8.417196218796223 10.055249755556003 -0.36620762257858863 0.9075407947818434 0.02068503915317728
Ni 8.307988427078461 0.018558328940541487 5.272298260891991 0.2037434704716749 3.7567727834295233 0.5029694848233919
Ni 2.702788855600709 7.057260478684839 4.9803394732590025 1.2083961172068671 -0.8401778919561531 0.34639778694151313
Ni 4.280780942990645 4.317876802988957 8.914503847334235 0.9845203947616914 -0.5349280400078593 0.33560712408391236
P 1.3342692620544467 1.3237096097562528 12.400124065104709 -0.40922063580500495 -1.6160560933929715 -0.1362766950782685
P 6.673180305389378 0.7778237992133159 6.406403027001422 1.4565667076436657 -0.14153125860898852 1.1577420424954254
P 3.0697864042741134 5.007629131530441 -0.28669692329173935 -1.2795539682986157 -0.9680059420464361 0.2002439419588487
P 9.542068615671619 4.002892868411044 -0.2840225046389559 -0.23938538804500065 0.06318923106397505 3.0138846637654804
P 5.551966445165191 3.247069447736991 3.663028993888289 2.470534204021881 1.035473745881107 -0.7819776294663372
P 3.594904583511166 8.017262386678853 1.5802685101951337 -0.09541852341132599 0.48450973545630743 -1.344761001123568
P 6.637445761354308 3.15697680100307 12.379300657658664 0.7235292555214572 -1.2963255313299997 1.0966086655192147
P 4.617441943566552 8.082104513011274 5.398527228941799 0.3527610101553796 0.4379699400235554 2.3112998717061743
Ni 3.865891542443784 8.974806363072569 9.16586800387172 -1.2772168355250069 -0.049193688115831406 2.9603848920751274
Ni 9.431168632582885 6.12795435494529 9.98162714126068 1.3032811367122266 -0.27602335098300845 -0.9562282326852176
Ni 4.661476733544161 5.216940914461789 4.555289361619841 -3.356942073479851 -2.635095090756823 0.1691958144037925
Ni 3.241208226228593 4.74952740633322 11.134008519534925 -2.1487788982193963 -2.3784036073332073 -0.23281621946791517
Ni 3.2291076398886753 0.45019286119357255 13.726925941885794 0.2708646896002045 -0.36073477238947554 0.02216856567723924
Ni 6.032132836866063 7.628483782593595 9.511138382556819 0.16937090652907605 -0.023589871504798084 0.4451564304696656
Ni 6.538911064931678 0.595643799716003 9.300632612082712 0.39532716565236437 0.4983895787621932 0.1931790646922673
Ni 5.110918980241335 2.2116941218615973 7.928489460142629 0.5394585808883612 0.8862438330762801 0.48357951033255425
Ni 5.931688516661666 8.854670229316572 1.5890688506825008 -0.00013344025407073794 -0.8595902350444938 -0.02528551403966613
Ni 0.8054396061009476 6.672036421836933 6.380943582413895 -1.6039454261723667 -1.2979684662500612 -0.3718540222310886
Ni 7.180573016355067 6.1504538826710755 6.979569987591026 2.373422866289164 0.6984969951431776 -1.0627328387073762
Ni 8.292597993827378 7.478379790480143 5.021986288151092 0.3506473062464865 -3.720441295988341 -0.7083016399384253
Ni 6.916175204827858 3.0835319140696145 10.130490823274291 -0.13158623158113467 -1.0731386074217326 1.482454374043705
Ni 3.096852012626602 0.28467763794626555 5.818125459219843 0.08907715457433046 -0.6177918666826263 -0.3723080790493717
Ni 5.621138312547364 5.425704389574609 2.170344149478159 0.1353968635764765 0.19703649076514454 0.4054624543141533
Ni 2.7663452946345126 4.994384661638078 7.14545295522007 0.49925784029975956 1.0614334031696622 -2.2502590544437697
Ni 1.1082908121564776 3.2335413703522855 7.564526511637282 -0.18225444735996355 0.5110946850336875 -0.5236750928018594
Ni 2.7491114126832072 2.2789374582958453 1.7293127556455352 -1.4399185575640232 0.18881333152440385 -1.0511047675501446
Ni 1.9721686874127669 2.4435337932679646 10.64427321104244 1.3590373085369238 0.3712963499554057 -0.20965623641168407
Ni 8.427623520931323 8.386661145454084 2.241379318085017 1.3602405848164056 0.8394942356255671 0.09013644907678026
Ni 6.778011088141996 3.8146625757437715 5.495200514856359 -0.2144256327758694 0.4609016091190643 -0.013443784209731685
Ni 4.829835594581349 4.240385782498091 12.88371643531307 0.88808679982229 -1.0082647895664831 -0.23039141207650643
Ni 1.175174912433759 3.1916998116487876 3.614547238430761 0.13578072927845647 -0.913182309338337 1.4731058429492694
Ni 0.1261731919096485 0.104075441464681 7.86022135530272 0.571845481859499 1.698736600412339 0.09626878722676324
P 7.436727303438207 5.430015223458205 10.46287974965722 -1.3978205999527087 -0.29831275850882816 -0.9128277542123958
P 8.520920932328707 4.2443751945570325 6.795492653969947 1.853107948208789 0.10421143911260762 -0.7289997917177252
P 2.0650123268224037 4.703356106579971 9.083182239479461 -0.8602427810268282 0.29928309284189747 1.909652163152421
P 7.922745463064399 1.1453961257378669 2.5361618909834216 -0.08680661337259889 -0.20467678091922167 -0.4955186849723014
P 0.9678294747826476 7.005804625990954 2.549748580583211 -0.9158932805115968 0.4854476738895446 0.037957710190695916
P 1.6387124515003222 0.9837304015199462 4.488376900593325 1.1682635108520396 0.4851370846276612 -3.3710067791030327
P 2.109132199047714 1.2348648359886358 7.557303974165643 0.07119024699158062 -0.6386969922664096 1.023840789627869
P 3.944658796650188 8.233919603661853 11.228247507806884 0.38503838213184655 0.31769296280765286 -0.7577668365480884
