# total energy = -340861.6423450376 ev
CRYSTAL
PRIMVEC
9.38315677573722 0.00000000000000 0.00000000000000

0.00000000000000 9.38315677573722 0.00000000000000

0.00000000000000 0.00000000000000 13.73319840531492

PRIMCOORD
 96 1
Ni 7.022513816506128 3.8077130453739514 2.562449953909632 -0.7663923734335705 1.0152314506923032 4.047510557804571
Ni 2.8181935134187888 3.7802860790094144 6.659722516398334 0.015215531398173795 -1.0287140585597703 -0.8068221993138427
Ni 6.842591791175991 2.788420757936519 10.163335905390175 -0.17004427844701683 -0.37629354605968096 1.5985319684662793
Ni 8.04250984067888 -0.20866263360060405 4.96040379172734 1.766930483779757 1.3921317770980477 -1.2751231862207717
Ni 2.620086930847984 6.317144411960225 2.422028202375181 0.2491447814246096 -0.4351201292795861 -0.8441196502127204
Ni 6.500397457837542 5.349159224105852 5.422100129248296 0.553710205711369 -1.0654201557315524 0.6488495073193793
Ni 1.2667730393582852 0.9861134461562138 10.183770543552574 -1.3893930380106458 0.04580960213494691 -0.07992017066541074
Ni 4.537234694676036 4.4175150012634035 10.489251400567206 -0.4027807937169322 -1.328715517624931 -1.166150835384411
Ni 4.36627358377564 9.099588099224759 0.04485242624670597 -0.9466542158435375 0.6559285256533477 -0.09369331319010316
Ni 4.4713930857195 4.290945603626991 4.117542057097212 0.032066284406925424 -0.043558601317241104 0.9712020803862307
Ni 5.052707778563201 8.781611692737787 8.490701001091221 2.767335410982189 0.6401748623635167 -2.7799070769996126
Ni 5.140965748328795 1.4498478052626553 6.663800436200601 0.6630198852824903 0.20473565918161513 -0.5788792487778289
Ni 0.5524408437513465 6.246029469067024 12.216214780832859 -0.7032833607882274 0.09157600973678422 -0.9057204537436531
Ni 2.9004650293559275 7.083307287281301 13.872727545683459 -0.02146434052136303 0.10885845096631576 -0.71604503132927
Ni 1.0963843010026162 1.4586210565629778 3.2974372918560353 0.16405592207406586 -0.7885629959933387 0.9545786128969367
Ni 7.586122493089178 1.3297903182170703 2.3803341465965913 1.5283233686616777 0.7922219329021647 -0.3218458086337619
Ni 1.2339226085535495 5.368835703225399 3.93024862404351 -0.48780897503286963 -1.0947297033289467 0.9526312593625788
Ni 9.450621365958826 4.574720404777413 10.613029309153514 -0.7657197728465781 0.24288543077845912 -1.1576093735723032
Ni 7.459374815479818 8.480327921612606 2.842098981159784 -0.0780023848174076 -2.19233467132316 -0.06909711190797777
Ni 7.569110830407378 1.8436588823477058 6.355957838702238 0.7310998687798635 -0.1522123924719185 -0.4943061527214391
Ni 6.866105981292148 0.3939161684375249 9.59730825106892 0.5159594693251565 0.41719619781131373 2.078967533853213
Ni 8.809507816925871 1.3029075749278476 8.35255841826356 -0.4618485464133659 -0.7069430690280019 0.9904920389640942
Ni 3.379184289346449 0.8392079335003482 11.733081684038412 -1.4673391156688214 -0.0931901483014395 -0.08094192706170575
Ni 6.276646708631678 6.805753518871109 7.607738470651267 0.40711387387464726 0.16539340993856677 -0.04539796851882504
P 4.261876584880041 9.64260074735411 4.373858927466742 0.039209837430242145 -0.9494914281820164 -0.21421865897138592
P 1.5994903846610922 9.395166911215613 8.209018643833819 -0.36474723598297826 -0.4784568443940082 -0.412911968613663
P 0.6702876591323802 6.566192151011723 0.9407393164097239 0.22153139058271523 1.2224055441120816 0.12006717519794159
P 6.536700890223581 9.344845043062001 0.7259888908907786 1.944119600801671 0.3812035817667886 -0.22143625976574766
P 3.1021372113856867 3.1418279632577324 8.83858997209188 -0.19242753123822343 0.4990560087015986 -0.8397312913370376
P 8.739847263285666 3.37164961470029 0.5800657947174198 0.7987777317428114 -0.9541764923625116 -1.4444645250634929
P 2.0578951108920442 0.2905700830666708 -0.3068217100743264 -0.6625414029841751 0.5044103310349766 0.9854447063481737
P 1.0754973946983197 9.10282528820723 4.63458306643067 -0.595950859548135 0.23193150287011668 0.2602822860986679
Ni 0.6205822643589077 7.413350432989893 3.157949164390442 -1.9987038638054544 0.03308084171436883 -0.2951323038983175
Ni 5.325372922452038 8.10839836541777 1.964355362348962 -1.2280838254437818 -0.3621715048360021 0.3265226452841409
Ni 0.3077665939309494 -0.16769858739545263 1.8950579368641818 -0.19203646644739183 0.6188395912208503 -1.3253298889821497
Ni 9.372628569372432 3.3631953907199796 2.5725434153254145 0.4156653629890842 0.5599217338387196 0.35720053398397195
Ni 3.3488203950065105 9.657238471448768 6.681392916267954 -1.9271449206205455 -1.7674079376368077 0.2893306096148759
Ni 8.485141480882193 6.073689034165401 8.104783973545167 0.8622634110012827 -0.5408624032144234 0.3646158526114366
Ni 4.719905984852156 4.859752548894939 7.857229094688193 -0.9482675830772445 1.2235738533885703 -0.40349787438861473
Ni 5.165540235126168 1.0824784631126938 1.9743390408340344 -0.8688665181400972 1.4529951882423233 0.6385126441697455
Ni 8.665814158730004 1.067634309575678 -0.034583499804917095 -0.1255500526893838 0.8203657423262324 0.6646700192914038
Ni 5.399274662817104 6.174811311452645 11.974236311866562 0.335124528020539 1.4491243924330075 0.8519723134879198
Ni 4.792465933841879 1.9565570210059697 9.170288306601943 -0.3151730245992766 -1.2295318707442178 0.07772881944104677
Ni 1.6565868917867184 4.8022150334151785 -0.033540092805349364 -4.099645073716281 0.8337601613552674 3.590506998188333
Ni 8.816732847408488 6.2130852066975795 5.570143818784087 -1.0292532188926917 0.2904472397178224 -1.2887515756374839
Ni 7.285317262944015 7.368817972378846 0.2274946286377662 0.2775374736346898 -0.7996462503906938 0.4113448812368593
Ni 1.071828580518185 1.4575326104123496 6.724707443169074 0.2557563732038563 0.30891187418091315 -1.239491295949775
Ni 2.3560355245994633 7.359950889513814 4.623707049765211 2.876750505782923 -0.33987978331733726 0.10063991971126539
Ni 2.327642093118421 5.155143697756375 8.516779607870886 -0.9167581996150534 1.6929978981563487 0.706965437625505
Ni 1.0913267796647834 3.2666427106340805 4.7234650161015805 -0.43702865915620864 -0.0060863154033959695 1.6011503799257327
Ni 8.299289300662428 7.529936152141232 10.2801364988247 0.2748059336361396 -0.0690909412603907 0.1665025838423455
Ni 6.921654267600071 5.246404277592667 10.102758247213833 0.0726442058292878 0.5180472050921208 -0.023175666785514925
Ni 1.1021924748581235 7.638489889353455 6.45625064495745 0.8338411511048479 0.652635713834689 2.1967667389525847
Ni 5.83547884083783 7.909644345050471 10.463680422552619 -0.13530147564919276 -0.7720441724027091 1.0324467861293252
Ni 3.3380391482214087 9.30812875179124 9.473407423132839 -2.1926902548903655 0.686752710123056 0.9693796824655111
Ni 6.659376277924557 2.856242212908421 0.7183763360459108 -0.8752312840158605 -0.369121453791274 -1.4143908456065641
P 7.812031368283358 6.167370468371194 3.3724884688887915 -0.248275748556095 0.43219549943362334 1.3905335793729923
P 7.625634964988277 5.512754557176566 12.640131715454897 -0.4903697937815103 0.07345101800129931 -0.7152775570356262
P 2.824864937669622 4.322200897831668 12.23840782251791 2.4741129225120746 -0.7324111313921192 -2.137367313948345
P 1.2477721475046462 5.262871717199154 6.2549631723429995 -0.42611766867065964 -0.2991234273355816 -0.08319678453415348
P 8.131302650363319 3.6015369482381443 8.742567440346589 0.4672015831951631 1.30949446461179 -0.0006615448433988606
P 4.860700247698503 3.328243132865755 2.173512488295584 -0.47983649835035425 -0.7786668199255493 -0.7969977570242532
P 4.906433752337829 2.1561930580815365 11.323378354838542 1.163787477358557 1.6666970554782907 0.04368741358562154
P 4.683546253527291 6.61585719821237 9.161594812131623 -0.02437457218962254 -0.9047010113402032 0.763716112152988
Ni 6.1668168621394095 7.882555172318888 5.315544066048736 0.22283236878232593 1.9204456542234989 2.3025732904664538
Ni 3.646407202482145 7.328339035363241 7.404350109302974 -1.0728974379452039 -1.078022417876595 -1.014927289188323
Ni 8.128581534986747 5.387433119350788 1.386229066074084 1.4383049332200002 0.32125805445109185 -1.1803728925210637
Ni 6.117602206449367 1.4296552525372082 4.252319840014396 -0.005467965093106712 -0.545546438953654 0.008234729204966464
Ni 2.6623486675930654 1.5210659628770355 1.5793316112989402 -0.8222989547932031 -0.4672069825118018 -0.12185974832199013
Ni 2.9920352533557613 1.8577242338976343 5.048309893125275 -0.15370671762925786 0.7537086073183149 -0.9126364641371959
Ni 8.32154614781148 8.286096582664296 6.934633049630666 -0.10471203289810997 -1.2959177543686198 1.299796777708052
Ni 5.7322735028140395 4.03855746087184 12.481196996203298 1.0387058796651594 -1.701971562409869 0.46882574906214747
Ni 5.438130313763238 6.631198659042346 3.824791328466696 -0.9047997417015965 -1.1869757425495622 -3.808898557590485
Ni 0.3285972012964202 8.314762125682995 13.210017723717002 0.44316588240219806 0.1338089502640663 0.8375013735652543
Ni 3.987025165533477 2.3492984182533334 13.773024001654619 1.9533308349872938 -1.7676447362379621 -1.7823175077587885
Ni 7.43545714963541 8.958906434256063 12.293532928468993 0.4054282586421082 -1.143327152621676 -1.7418740550317613
Ni 1.9029791975569432 8.253790374934875 11.088925177361931 -0.731164917689844 -0.6940191618774822 0.730862813068393
Ni 1.6510602126253389 2.525682993593929 13.09542780194703 -0.5642877241168991 -0.8906915844349887 0.053644524798333426
Ni 3.0711727950316083 6.096199226539169 11.099348925885492 -0.7309291475299541 1.5053073673824784 -0.5441459590617016
Ni 0.8401340510440293 3.1332986740256548 8.66586764272189 0.6841836638442991 0.30783741016981175 -0.9720659710484228
Ni 8.618917142688284 3.9502901079497748 6.663622156227654 0.5482386410738365 0.546729917738794 -0.32078188614562175
Ni 2.716423798335051 8.79208329535935 2.5086985420658934 0.922723673169869 -0.22794732141138807 0.5986610593904464
Ni 6.148773052245805 3.195574683523236 7.803134259317619 1.775362416597194 0.6421019041829006 -0.425844360404615
Ni 3.786338214933166 4.430003982526216 0.41145516451299247 2.2832154547651324 3.019973036051405 1.6890437986046072
Ni 2.625707441574073 3.813324172943569 2.5168281088323092 -0.40052927867859406 -0.4513425046757194 0.4977740566653813
Ni 1.9875026710471062 3.1669748225998324 10.724446785720664 0.4368463679420735 -0.2191047834190936 -0.0522386455897423
Ni 8.676754919175114 2.856354810786072 11.989012906676988 -0.009874321690918477 0.8828592328747635 1.332106288474035
Ni 6.221933523249669 1.409687895567063 12.861922323273983 -0.7455145015432967 0.253484289340228 -1.4192790269368007
P 4.632717694924248 6.158981926486181 1.7300804648452996 -0.2909714876524086 -0.6142599422699679 -0.5902872335044543
P 8.422471378812833 2.0418968291091035 4.429931732221389 1.3155491554463021 0.2948623380663825 -1.6530252144181532
P 8.417976846863256 1.0407515662864555 11.022003567095592 0.544870495932552 -0.8436838482268825 -0.6790491708312112
P 4.331189961730822 6.205118906853757 5.590180611112115 -0.1934999383667958 -0.26437393966953826 0.9890478503183999
P 4.039420711267166 8.158354290469017 11.877814995971255 0.13230974001072052 -1.7725601712617083 -0.6543730082407698
P 6.9115579912373475 9.623834434412245 7.558477837494517 -1.3635223408914712 -0.23658082871666997 -0.40617362144856506
P 0.7518957859070241 6.414260081434379 9.664202650181494 0.46198250088806886 0.7461539348995085 0.7918169841542622
P 6.050465721899843 3.1807399131426908 5.487854474849652 -0.7848721774053128 1.4968695210277705 0.7991230308973721
