# total energy = -381171.15252682375 ev
CRYSTAL
PRIMVEC
9.23401168109922 0.00000000000000 0.00000000000000
0.00000000000000 9.23401168109922 0.00000000000000
0.00000000000000 0.00000000000000 13.51490948349119
PRIMCOORD
 96 1
Ni 7.0943987560290145 7.99268340243402 10.88189389396265 0.9119813470517002 1.131558185011206 0.091551584256752
Ni 6.7377442928017635 7.883962150102888 4.90537104349534 0.27009927218908963 0.4415211477099235 -1.9586519900898915
Ni 6.991199442622122 0.2666477821632756 6.568610443116189 0.8048095397591881 0.9439275609409937 0.8091050818107485
Ni 4.97953308409091 6.878249012987809 5.898946995790983 1.0667033933193502 0.0579781191766808 0.13137231579811567
Ni 4.70266048090621 4.02899316616035 6.160662892369914 0.052800688740799386 0.2963458645904445 0.7169415750016105
Ni 6.088113110196036 0.35606071628272135 1.9684197887021286 -1.0632501446634268 -0.21675736623283962 -0.12317023960329755
Ni 1.3756091729466142 0.9585365719579738 0.3036244581302186 -0.12105242192934636 0.4238622969775797 -0.44085677465304723
Ni 3.0135289128178484 0.2366723337755296 9.847287534616884 -1.2026067642185998 -2.055767698697982 -0.8440137207624755
Ni 3.2131405411210663 0.3706836970192239 12.186799163650027 -1.2026005935710127 0.567040861382004 -0.8711884814050544
Ni 5.970240952390117 4.162609313708463 12.737477754774044 -0.11985737317998069 -0.270363838704386 -0.3018264280890415
Ni 8.352874492096028 8.854216682754611 2.6683837216226616 -1.9969621985239996 1.5975734612077517 -0.4286481484019973
Ni 4.41396834290039 1.89842044052637 9.831826105629009 2.4116194319635436 0.4019917221567335 0.04721496712290578
Ni 5.978523860776479 0.887102258382839 4.568714679144726 -0.40443401304963894 -1.673255682532415 -1.5314547152018079
Ni 7.138260311029258 5.827640111575637 10.35692094427225 0.712348042093657 -1.6979963798122049 -1.1956362464380377
Ni 5.996890309807108 2.626549955565165 1.2865277398428545 -0.752577321927349 -1.6303262301587405 -0.0658040429790028
Ni 2.2995643715412375 2.234021357353504 10.619691364973503 -0.3280262264128609 1.4019567336082697 0.29511404906587235
Ni 4.160134598605292 8.36226548187187 7.938739230190667 -0.298354410380041 -1.1030029990813326 -0.5069683215701398
Ni 6.6313961814464335 3.876197976562656 7.793615657412806 1.747133760768804 -2.4795081253857165 -1.0880216951811519
Ni 3.2355884232696126 5.420900369543897 12.99107141476809 1.0218746670404337 1.0356010154875908 1.3857765243039812
Ni 2.424011145591405 7.790994121525528 13.64465290752731 1.5397742908110965 0.25197787999803056 -0.762026897376023
Ni 0.5963758676261659 8.922225178033937 4.428119465645206 0.29047886428670616 -0.3040278066157345 0.04037737537578208
Ni 2.1640921876657457 4.791233119971967 11.20027799620074 -0.03878663384989449 -0.7100649024864352 -1.300167016563277
Ni 8.90404340923489 3.6797997842889303 6.455248176565452 -0.13213464788543694 0.7469095821186105 1.1638622964605503
Ni 3.373249067889327 3.110661480617337 12.681660924982468 0.09309810280826547 -0.8754660257344857 -0.0880721103485838
P 2.0924547258358728 6.626003518684298 3.511768475585888 -0.7470155115688554 1.008071442608754 1.7128200750885985
Ni 5.129317985913851 1.6019717327941916 7.376735123865009 -0.5157573806166795 0.3140299121337689 0.0016367642724746006
P 0.7224589085281319 3.3921787916262742 4.5635390156546976 -0.6523258959037539 0.13444169875205877 -1.0706646919599432
Ni 1.3253669159452814 7.37482645367163 7.669034990194743 0.16029208415625942 0.1493564110803621 1.0610899037873145
P 4.37126103934752 3.7237444453933857 8.426992209436019 -0.14002356371521046 -0.8428281850948065 0.07585011436109518
P 5.0139667132689985 6.368863998243918 0.4932808985501177 -0.20616930630434815 -0.33467895584268814 -0.07742980014338924
P 8.411030297020563 4.590402602140321 11.640823454623195 0.2901554195090164 0.5008627228930342 1.1103684383074683
Ni 5.243902835597647 1.550593692368642 12.723611039585862 0.5404427991785015 2.3186303439293163 0.7462745196377728
Ni 2.6302158581620274 0.41136413503050323 3.1018743951987617 0.5579646101123488 2.045886435028528 0.42916005504140925
Ni 3.760440407408327 7.614892286702441 2.283979206798203 -0.10301870435608709 -0.22320929250577043 -1.0557515222935365
Ni 0.4924784629439027 0.3304077087151046 6.942527890990378 1.376519010261455 1.5855759225262436 -0.859030762996598
Ni 0.6122315889084649 5.952936414691073 9.933728963810205 -0.33175766843083504 0.2553977043128569 0.03939418552690634
Ni 3.074030156683449 6.222421808612575 9.280566695176672 0.02292832666139922 -0.7440350887842928 0.1729552814462247
Ni 0.3236539526462249 8.01860327293627 12.774616949344777 -1.536821635940676 1.0901451692820578 -0.20389876510261662
Ni 1.5783788332098496 3.807801652797012 8.957587748776872 1.0121774943573276 0.09913608147222926 0.06631106452240838
Ni 4.262318170738493 8.538339614660218 4.271549412114018 1.8631753597471201 0.44624863509257984 0.11377388599006212
Ni 8.78661448398476 3.3397757759154563 9.90052253477097 0.5594193402810044 1.7043765723069355 -0.09761373129043188
Ni 8.381112099504605 5.501190100223292 8.051885420870455 -0.5304417221017317 1.0368024919948595 0.5307050030654473
Ni 1.9615718457151432 3.3435986567091613 1.0968629888125343 -0.3750856417945089 0.38730249557567487 -0.8037877833628931
Ni 8.556521383459268 3.5749014127515037 0.7246806117140389 1.5014494270889691 -0.2594199380983726 -0.5913159318792848
Ni 8.709593593404332 7.760734265581148 6.294312282359713 -0.5876233135190461 -1.850166091971646 -1.0366160870156662
Ni 6.3973047539072345 3.458912993307699 10.070067297971809 1.3254003372087688 -0.4183696492941246 -0.044320162073614
Ni 5.155911939261368 8.532171294925448 12.966690853996058 1.3472300314893506 -2.049291861165651 0.21798661065425037
Ni 7.877073577464954 1.2894004408450812 0.4344214619432633 0.8033391258612487 0.30947623132481544 0.6917745888176795
Ni 3.7155354090996555 5.408083561472247 4.437147558765993 -0.10158351457145731 0.5601901570087578 -0.30783355351506986
Ni 0.5212645706402737 4.913011264675803 2.4786340176858146 -1.4627610093798358 -2.284688696876549 2.0027129849648477
Ni 0.8107286720140975 5.80502601721867 12.9816924292073 -0.29991944087431577 -1.6173141341697888 -0.7906605019523157
Ni 5.481392379397919 5.581950765493216 8.275719708347703 -1.0982698552717216 3.041592414093394 0.6723974698426485
Ni 7.763606043182217 1.393624729537241 10.015209881983294 -1.4047512656342709 -1.8751032215329577 -0.48102229112833933
Ni 1.1924802553119094 8.43548195968175 1.978379593591237 0.015786573410295393 -1.3445743390340585 -0.08088279168899619
Ni 3.721482112556531 0.5744598645445701 0.8726741152906532 -0.21614518657013743 -0.5759152810534984 0.7073570166369689
Ni 1.8582063200998302 1.559144387090795 5.135314553033253 -2.3127270910710043 -1.023757228775127 -0.37802981202449737
P 6.81192110781586 7.520834644758758 7.542522567754354 -0.9967688731117414 -2.4384715191593807 -1.453632050495374
Ni 2.5058891262623875 3.5030238666205764 3.373239833877748 0.8360510142719729 -0.4325148304462551 0.6020867972425437
P 6.093570411039225 5.522668411156044 3.9897772423855002 0.09588929240015744 2.4911341396604194 0.2278177378120593
Ni 3.981484176586401 1.884458615018924 5.146058325505418 1.9512284439323104 0.6546594291329371 -0.6061036317114207
P 4.408797296416151 7.717103560870378 10.091015576639926 -0.04403348407113061 -0.3251627888221368 0.38127660109656913
P 3.911785857188118 2.166483796664706 2.151749084388098 0.09892499390268769 0.9813229708703166 0.9660717011382006
P 1.1841327088444944 5.2128211526227375 7.4884223407153145 0.3045425414686239 0.5075776730193645 -0.740948222328853
Ni 4.213885780006644 4.251246590855273 1.4968979150367638 -0.2205893383844201 0.8949094791710781 -0.42332005132086453
Ni 6.7702110775135225 4.605066212527771 1.3225422318032658 -0.5888391882040181 3.9023910676236917 2.011629313617871
Ni 8.255668052203907 8.60501841227217 8.601820674062363 3.8533817276045244 -0.6052299708572157 0.9614719975826603
Ni 2.058288882993577 6.037796981102073 1.565297009005882 1.27312826727793 -0.33562229359256396 -1.9513168898810587
Ni 2.716396888228824 2.0227471724260107 7.903099639100364 0.5967964953778819 -1.1342781550455305 0.764264014236658
Ni 8.597428054754234 1.7114132380284859 5.231756416766633 1.3635315968628519 -1.2354271531827303 -0.6463187704777255
Ni 3.2736971890561404 6.126074131797301 6.996141485619203 -1.3699642398620728 -1.9548876379514526 0.1671286474621186
Ni 0.9006716383981778 3.1472281664701725 12.290971741877344 -0.7753161582857615 -0.10844913134303905 0.7598944244140526
Ni 7.677009482594366 2.5122975302982122 12.042365371537118 -0.28924730587245023 0.6717341252270367 0.2832041850021638
Ni 0.5714034067119215 0.8532660697539136 11.43560031748342 -0.16075179740149734 -0.5196497736925502 -0.02416039929628742
Ni 5.305290544574832 6.259625641264361 11.752862487314662 -2.569496478920407 0.7722886843133474 -0.9964174033095936
Ni 4.521590747853622 4.110760338692385 10.818779424820193 -2.3870193740266763 1.164546981232401 -0.05926392786763987
Ni 5.377768301458394 3.6305363325149718 3.6837316264192674 -0.5285198224886704 -1.789100592118893 -0.4961599181007262
Ni 0.6418616852631563 1.3205559959126232 9.00274021859586 0.36735947679484476 0.31206841753202386 0.19424735805578158
Ni 2.5741284718311888 7.861588140046974 5.541707096229623 -1.5057850783498454 -0.8990553830186516 0.1804472189478957
Ni 8.609663120096407 6.481611279623493 1.2444114130310409 -0.1743238796589772 0.975245911438301 0.2098812079382966
Ni 8.656719643102985 6.905572453250066 3.6379974138708024 0.20629426191798667 -1.6598252680591221 1.1306541851396978
Ni 7.307833699665993 6.536858370900643 12.681080105654152 1.4124427207412578 -0.4147065986202406 1.7273619774585154
Ni 6.136093034360515 7.219611953040238 2.2002673514276316 1.0317453891869262 -1.2231663335375063 0.4510177743464491
Ni 0.45235391242967904 1.9415340405887158 2.3590544911389375 0.198690995649432 -0.2695027762556714 0.7267883858887032
Ni 6.622974762886386 2.6159216082377372 5.644055957170088 -0.650482672047428 1.871880343720286 1.2424177255679507
Ni 7.280768811727947 5.82669824239458 5.948493008319259 -0.49321806186358286 -0.8387193051327556 0.06513504193643621
Ni 2.251418235168338 3.5195896833933005 6.226237302197017 0.18072206987583714 2.3859104572332135 -0.14911035650782706
Ni 0.9004620263353345 5.641740990467233 5.2677062706459905 0.2708310081487917 0.07910255986012184 -0.29566966445902626
Ni 7.4541927831931245 1.8786042516778387 3.202627618938376 -0.0955157111108226 1.1083393236925816 -0.9179794736166642
P 7.583191924951738 8.521681457771706 0.6829040965283324 -0.13569022644717924 -2.5758036520853578 -0.7265749843263164
Ni 7.826194173664671 4.19972080624446 4.210516289181467 0.6457461858037072 -0.40937130245025627 -0.6952270661426543
P 7.91871896968624 2.0791762171852723 7.750840945575409 0.18199270905814463 -0.8718618533229953 -0.014848634977058298
Ni 2.445563328616788 7.416822738332916 11.240674026655386 -0.7158342008700446 -0.2308989478405443 0.4380388455882778
P 0.18117961779037822 8.006091187246726 10.470149317655093 -0.1331936852775706 0.7621999326187776 0.5282141183227935
P 3.226326709655876 0.38419767296508867 6.510064039501862 -0.134358137899317 0.9718679961050036 0.10614799401368817
P 5.984184309874405 0.5686802966972747 11.119039932532182 0.18892825983571335 0.72774560759565 -1.1252427843161397
Ni 6.186113675083952 -0.14513927059754578 8.86655055202068 -3.1054408760079224 1.2109021714581727 1.5485798049178685
