# total energy = -340864.76818377833 ev
CRYSTAL
PRIMVEC
9.32879052943713 0.00000000000000 0.00000000000000
0.00000000000000 9.32879052943713 0.00000000000000
0.00000000000000 0.00000000000000 13.65362790842812
PRIMCOORD
 96 1
Ni 1.9834500980020988 8.868339955906004 4.756487149031618 -1.8186731635696871 -2.0194300406092123 -0.3945357800993205
Ni 2.4268008613856153 2.919454281991265 6.093314006764895 0.6201446831855191 -0.15073606503670814 0.7296654503261821
Ni 3.9263479441698337 6.687716544176942 4.7980347828008165 -0.5307461407160279 0.16889499533392205 1.6597507060674448
Ni 0.17361065495465372 4.879246567559053 10.013543197316563 1.1247257354704048 2.37430578311475 -0.0996508163251187
Ni 6.726104516640343 9.216527728499932 10.369083922497527 -1.6787218478533088 0.08775380777721661 1.237232067601953
Ni -0.1899621587538884 5.9608265256166 4.410722063302514 0.1696637551791465 -1.2034459722904434 -0.3127970681679323
Ni 0.8509909171461576 4.628889819806851 6.7069217249571125 0.23236267687026435 1.8506391749533226 0.7460022398129926
Ni 5.2726230008122075 8.566609559464627 6.366522559461533 -0.7318272338641912 -0.34048913476656195 -2.0306151106917545
Ni 2.63685723464404 4.348708929171174 2.6313271276996164 1.2605684283350485 -0.6381706874492945 -3.20436458435903
Ni 4.378952867622291 3.3914164455072853 10.678106634388392 -0.5364077098771795 -0.5687712138095495 -1.522398004316178
Ni 4.998776358852751 3.6261941133047175 7.463755294917947 -0.05962516786180054 0.11633521895933513 1.271021248237256
Ni 2.332682695119938 4.957925585725841 4.638191556706792 -1.1731838309717924 -1.1495049992976138 4.194087349257267
Ni -0.07301457664071766 4.777441478010304 1.737478814613212 0.3673805598407673 0.6496264946947199 0.7914858260670885
Ni 6.211519109822917 5.2007633284220285 11.805977916129509 -1.1034166895799835 0.2326043605674252 -1.1955534569162443
Ni 0.05759222036453398 7.806378444042999 3.1004654663639544 0.5367794913943014 0.3978460754194761 -1.8726737861558587
Ni 3.8778568917118106 7.401238406105434 0.03183076569681003 0.5646584771927565 -0.3317008470509707 1.437276749065802
Ni 0.1318335329418099 1.3104804879079692 4.191253873417521 -0.5733205237431288 -0.6475043061453946 -0.5007675920760666
Ni 2.0240023498364628 8.920683798795956 2.250131296061399 1.2466543893571174 0.006019209610886408 0.9797366002198029
Ni 5.0453270229092215 4.8514001282387005 0.7005949570821904 1.017584781415828 0.84977736271913 1.3105972107576653
Ni 5.297362952931998 1.7843457246639736 6.3049721333336395 1.3461031169737592 -1.4337805629870854 0.6565111376296952
Ni 7.308416941704256 9.062807920419267 8.257563525597783 -0.0610475021306239 2.1371300011265584 -0.7760244972066958
Ni 4.77392452403249 9.479263781102421 8.33816147594822 -1.0292439629213113 0.8107235912507779 1.3380720191391666
Ni 2.2357192477846777 8.338082181229888 7.670430914538283 1.0646827633448954 0.3135295754585826 0.3733869139358472
Ni 2.851036933255764 4.93794331670601 0.1839488204671548 -0.9230733431998037 -0.3449083468801802 -0.22474732641685166
P 5.38661149061301 2.014169804763212 9.280151944731983 0.09091086534895956 -0.24610676592923425 -0.32996098154172854
P 2.18927120042252 2.6910575068220144 10.507449474471871 -0.8373715328556094 -0.4980903023542195 -0.6747891100032766
P 7.932541005305464 1.5736176784973193 2.67616595871914 -0.8671919586511516 -0.33871610202653923 0.2645780852605443
P 6.511243816329998 3.678071516675064 13.263816909949785 1.7813682564716418 -0.572075081371802 0.9149710258076436
P 7.540918384646021 4.466270345692144 9.343068105773277 -1.3421086511023854 -1.1823886373995118 0.8025371987852437
P 1.5800918590294215 6.265010393931094 8.277839651514965 -1.3645890915930887 -0.19894759174492835 -0.9900948035256755
P 8.936421468187392 8.340656927378102 5.05533774787896 1.0536735567185853 1.5103040492661213 0.3729757945403577
P 2.092998083576273 6.622041859816711 3.466560784994514 -0.15007580574488993 2.193481126222777 -1.3710353614390645
Ni 8.391498835014927 7.708603391943627 0.4460477166858663 1.9329489288968325 1.323496949538469 1.6186444229454382
Ni 7.5142193865438935 2.1041366593044146 9.575998673073077 0.07060969189776226 1.1825048512624021 -0.9735988627531813
Ni 4.483659210982977 6.61233991780895 2.488647010168937 -0.538496216975092 0.0059467045017381455 -0.7308116481154834
Ni 0.7337662699583423 6.975173891318439 6.444430086662895 -0.741086290568614 1.0269991327511927 -0.7742355236270729
Ni 6.223562578219091 0.8857192051387472 4.113893013333135 0.5004521177181769 1.2353160815261628 0.4012921249865476
Ni 5.91840851570382 5.718949648330796 6.683259248127607 1.7049998077132313 -0.5597245302262489 -0.8616239776450709
Ni 2.841670827702117 6.115134047491965 9.857072328949275 0.6066430491546585 0.4766483304303597 0.8618852017262576
Ni 6.4132262156804325 2.09621651626154 11.736712580347369 -0.13858708837900002 -0.7753714370037291 -0.6130916329934797
Ni 7.290225800439703 3.0467922708431323 7.24072350710318 0.66887351584979 0.5933321909783653 1.2270903511822608
Ni 2.384783989459695 8.959155730372887 9.998660978004082 -1.6714008887118634 1.2355569938923754 -1.8068352903944949
Ni 9.069478005549604 0.5503566535758495 0.9722791854287623 -0.2782733233594498 -1.0731666324461904 0.4946062004603611
Ni 7.8659054555348495 0.8773979241090134 6.08675959863542 -0.908809634191938 -0.5233349358536213 -0.8421918370623883
Ni 5.470412014705048 5.472193813669936 9.50113606305569 0.38919739860554264 0.1022550867171852 -0.5737059321070056
Ni 0.5768709416282142 6.069852098928817 13.208723872531289 -1.0684214044517213 -1.0426047004989336 0.023004174204657158
Ni 1.6322864412730989 1.826278637476365 0.5512764723085084 1.605691462329196 0.20149966874282071 1.445977876384226
Ni 2.747785881196242 7.686596775408714 11.702933963216692 -1.0000123197497035 -1.2105213910799861 1.597568061891113
Ni 7.423664818207991 7.763456679449048 6.374168436066879 0.5250200368655281 -1.9136000920565752 -0.9542687949660018
Ni 7.466549267640374 5.743045913913535 0.02055785538702273 -0.39397219428636665 -1.978198030542619 0.8839822907356131
Ni 6.20686404341727 8.430269287884405 0.12959182461059354 0.3143433296091296 0.2593744295724178 1.668772449950081
Ni 6.335666652360694 5.780799528630276 4.152942397035335 0.5082785557411311 0.736179597295616 -0.5461694172496336
Ni 4.231912473462355 2.6183115993445885 4.495688686193562 -0.236063008539987 0.9480125296436446 -1.9128848111571057
Ni 4.485198461397671 3.101281735523261 12.892505864611012 -1.1325984533502622 -0.2561278976106621 0.7322481234516937
Ni 1.8427626100991672 6.88952626672877 1.1747549836145845 0.7036410012379625 -2.4640295701341435 2.329128929467795
Ni -0.030896020899523792 8.296037322932792 9.059891740542703 1.6103533865812394 -0.8025251146003856 0.313114342298035
P 9.028645890003476 1.0579128168328442 7.9221347396231 0.5003708708582801 1.0862993131734064 1.3480239881455558
P 4.883705729366467 4.414803409099048 3.0165100843514074 0.19454971978754884 -0.5887659117639215 0.020308629650365024
P 5.1643903746833155 8.119900431539962 12.089140288174494 -0.0645971671550952 -0.3096209844327958 -1.6321033766638215
P 3.661792777440888 1.2731093535973041 -0.03591024573526582 0.6826402306165792 -0.6858088581525479 0.21556514569695132
P 1.5498852357398725 8.664636488904586 0.2689966038346141 -0.6006860602402752 1.2484793583809983 -2.2655427200757177
P 7.702987460127596 6.514322317159384 2.098739954062597 0.15187094997209974 -0.651636068925581 1.0591062976983825
P 9.557345756684116 6.760033327296331 11.24667028817246 0.0470946394949576 -1.5986080731198533 -1.998314855897152
P 3.94339164421616 5.195865713466188 11.80775318494112 0.9364752184280065 1.2122669130161832 0.5310904114293241
Ni 1.1889356778895825 0.7739752223062777 6.401598811335746 -0.4613296977954184 0.36135517958229374 0.7127172525076177
Ni 2.950547140368062 4.085394491564375 8.758106304238012 -0.2767316899039428 -0.09159606434144225 -0.7285994709555129
Ni 3.942048298399701 0.12812813739807646 4.127983218341329 0.9367683241883932 0.6720531991293522 -0.22570043435874035
Ni 8.10350041803069 2.6430422226739876 0.833988263777556 1.2543183336602783 2.0423429406516442 -1.1382715924756397
Ni 4.457240076592612 7.80939164333964 10.049711850545691 1.6139346761745947 -0.2943851413196479 -0.32857232872431796
Ni 0.5705478875004636 1.9941968645337729 12.236940978751385 -0.3975149173323025 0.254294186836033 -0.5213698417074505
Ni 1.8709822010352037 4.8856834329295875 11.700325633423066 -0.9673099444206761 -1.2982019224171062 -0.8794103550942144
Ni 2.0306351198052304 1.6154293170346137 3.0062418847668466 1.1965091359612943 2.345693775805012 0.7102842175860928
Ni 4.206594136338254 2.3468158125639365 1.8178715315750245 -0.29044286884244813 0.39644071043151724 0.4083225494707678
Ni 6.52229843294461 3.5130825298007693 5.054900227609572 0.018674950701683967 -0.025460349054633572 -0.14809965585512558
Ni 7.159230925754142 8.750424045350137 2.610013640290835 1.089473082915698 -1.303432060467794 -0.8659606573472118
Ni 5.049534307376049 9.239541854397189 2.0620526200876714 -1.7036584631939884 0.18993716071620192 -0.6360374431563756
Ni 0.6706999153917368 3.2195241537428525 8.635687386559889 -0.9172035146825881 -1.8984627221945047 -0.7196646303597283
Ni 7.5083329198064925 7.479674875722028 12.021390880831063 -0.4347573466235287 -0.15750166589531583 -1.7202130251185601
Ni 6.136795498782371 1.5684401998297157 0.44346550750533903 -0.8848047866369084 -1.117334070992024 0.22532685306940547
Ni 3.9874515212379458 0.4992908549696134 11.427117080726429 0.8559269272602937 1.614747658994193 0.7298762807854076
Ni 8.311149963367958 6.096485795498201 8.067614427150444 -0.06385977476843839 -0.04702213438580934 -0.14066762505711256
Ni -0.026998452273713523 2.762002957753769 5.991321408529264 -0.5166269277058264 0.38318590230414007 -0.4089267587136699
Ni 2.442697120213716 1.6065203222101792 8.425243868500193 0.46191462376461095 -0.4199791598730896 0.07499933632502567
Ni 0.17406589992578714 1.1163297022680378 10.156264361524968 1.275777531975319 -0.49938305302371416 -0.4160497429116964
Ni 0.3876569518637704 8.639019630487939 12.006904202231206 1.3085691245840432 1.1058147574985149 0.633035165994942
Ni 8.282547892025846 3.717504313662379 11.6320304918417 -0.4488788736265753 0.23395804638184226 0.6197672452414423
Ni 4.160351322364723 6.660607079297562 7.689640759713649 -2.1129860568905032 2.068600588796592 1.8333981284846876
Ni 6.94501391198085 3.9597823289350416 2.4734634709267906 -0.1237921894580126 0.1808269708848176 -0.029112601095240182
P 3.758952129374382 5.052706096109356 6.519703163457535 -1.322449225000245 -1.5470723671344067 -1.7981794144917096
P 6.127681270569311 7.435083257647895 8.25989852183292 -1.2352767436477952 -1.762895651588751 0.5804023702905746
P 8.036640977290665 5.153755553636346 6.020553173222841 -0.7513771309716608 -1.221353962919116 0.3034295109101032
P 0.7792068079581551 3.6235354080429754 3.49452290131573 -0.3540185367115645 -0.8494145800630726 0.6342674957401464
P 5.505889404566122 7.911719145150346 4.1692855049232165 1.3850329612697372 1.2198161861183507 -0.8934830311371966
P 3.428003961425016 0.8161105698701773 6.165868674039283 -0.9359031479746204 -0.43475580396163194 0.7723606752018634
P 0.7374194242758799 3.798459556684833 13.628600600651218 0.4938477250277818 0.07764500147798886 -0.7535435424953603
P 7.983681434234837 0.48893869627152425 11.957054877892098 -0.2695130606683165 1.5468101146119555 0.24776461324763135
