# total energy = -340854.67181653733 ev
CRYSTAL
PRIMVEC
9.40938845277620 0.00000000000000 0.00000000000000
0.00000000000000 9.40938845277620 0.00000000000000
0.00000000000000 0.00000000000000 13.77159111619515
PRIMCOORD
 96 1
Ni 7.01172562162428 2.809417525338831 1.5970225457318106 -0.489369377541454 0.18722413266041305 1.2720610023556802
Ni 5.2810756477465395 9.297774150143553 7.647020233381603 1.8615450232325488 1.1840457133869606 1.32444722926688
Ni 6.610132928368757 3.0077580216165534 12.219105999154172 2.792771591667106 0.18748664229318035 0.9807053918909756
Ni 2.5604357011533945 5.475247785001014 4.53508146434881 1.6364464841238655 -1.896334105887276 -1.7662182882040807
Ni 8.95483958363955 4.645734929986477 5.59465386364867 0.23537523844434305 -0.4679680290475425 -1.207404185607243
Ni 8.137389564443982 1.416254082131096 0.24263613270625334 -2.5535954914194345 -0.7666032038927959 -0.5353036781797232
Ni 1.4046334875629007 1.541455403041546 9.614773619636773 0.5113165712365065 -0.6321818168557113 -1.8338179896309257
Ni 0.3405389362391745 6.654413509775985 0.13203441870431495 0.6869452857498363 0.9717993476505974 0.8849194578379017
Ni 4.0752154883238205 9.010063283656343 10.998585071798896 -1.0906110531748832 -0.2812419190694705 -1.8909281043803563
Ni 7.298787240317804 0.37105170066487775 12.1174987194419 0.2583822408624776 -1.2568220739187386 -0.6371959822408509
Ni 4.749736899024746 6.00111026972387 5.486505177180276 0.794185998607071 -0.9724881461875058 -2.172229673043169
Ni 3.989750014264778 2.1102999735842523 7.037916653997214 -2.0260889406866265 -1.9841529625744732 -1.5835041275988793
Ni 7.307236871024069 6.144038878218514 13.603136690064021 0.7925708316011512 0.5307731372992214 -0.8889753730748302
Ni 6.303847929349063 7.22020943850485 4.071391512912877 -0.12087013071521117 -0.21819435578968227 -0.32926986901197486
Ni 3.1839582271906615 8.119135351114185 4.344000311155591 -2.4328040364609587 -0.7889052098241058 1.97508982393094
Ni 8.517933456040355 2.7196707795967696 4.2335105688745935 -0.6216238388342068 0.0766543554299454 -1.2440087242041542
Ni 4.884479339685924 5.869181236168676 12.971103372296444 0.9110776042905083 -1.1143641897304228 -0.09851104629372066
Ni 8.320759723913609 7.625754074852391 7.205929750799025 0.41221031456094814 0.04785388625848533 0.15464362762123043
Ni 6.149129357296566 2.316487899716124 7.636801637672244 1.719802934164335 -0.5343919649987312 1.423733977384361
Ni 0.9814180199610509 6.663248925403139 11.258523187737536 -0.8620435816809928 1.062962695329995 1.3458025550142048
Ni 2.2610948307096743 1.6977641617191646 0.17455356261910085 -0.6339731044281791 2.0818515402692275 -1.965810198401227
Ni 8.363403071754142 4.588224748609304 10.115481045640104 0.5058352364069612 0.26383580777788107 0.7593449796684858
Ni 1.2746239692238293 0.9318361891775303 6.357021323652162 -0.945377663123959 -0.9016043746927505 0.1769965413951339
Ni 7.615046190950685 4.9600179090733505 2.750806445528881 -1.0321320831023837 -2.263189903572825 0.7426724041088112
P 3.889737625871785 6.407529979184645 2.9634812039646508 0.8999015330690309 0.7518149898400279 0.026727902913147517
P 0.3231428591236447 4.390222990310897 3.2679567776115 -0.27307146744353616 0.3852736380711042 -0.01991216554289474
P 6.775766390865876 0.7706966505393357 4.0379129092904975 0.9327363202108645 -0.05838435347616397 0.8288912632987402
P 7.71747679214046 8.238643992094467 0.13834811826322913 0.7900637489085813 0.8039700745770282 0.7541171556106432
P 0.769879915633652 0.977409620539147 11.60744024333179 -0.7294235095187049 0.9936958906133726 1.0206968446822486
P 5.626804802579897 3.9539190635638164 3.6945182236979246 0.7107737556280017 0.41416383874289314 -1.6018353218078993
P 4.727135548293729 7.994715009433825 6.228105176235215 -0.9845121672315755 -0.750871652090152 -0.9271629398881451
P 2.958518692567674 1.2392540785502697 4.009033614676162 -0.5977753143513834 0.36224529549673096 0.06711659114283924
Ni 2.786853812161072 0.45969190234117424 1.8313050234926034 0.022062122006362 -0.2553941047684311 2.582150163128676
Ni 3.6958195421017965 6.1845274761350675 7.43726520813977 0.15171925488558388 1.1772058076469918 1.1112549546774797
Ni 8.338741064982289 2.140184190870558 10.860042179197562 0.6354972543821894 -0.3726916876410356 -0.8241231524861355
Ni 4.122262429895461 3.2717948671049144 5.054532391874282 -1.5840679705221494 0.6208967308601953 -1.6612455454454162
Ni 3.9136092440252352 2.8800349846378634 9.104164694310276 0.12201221473945437 -1.1351878113439935 0.29925712469996846
Ni 2.4113063057596085 4.24774603245534 6.9834362956572535 1.533596958355791 2.4090473003609927 -0.7201004323455663
Ni 6.732407929513451 7.670552172616906 9.112951181118195 -0.9562035500948692 1.0537586602332238 -0.22632341265471992
Ni 8.270795871964527 2.461938224279008 6.696863024217245 0.2947322402464214 -0.46867456819626385 -3.463977869415131
Ni 9.22676149653532 8.395950145933403 12.278640139957757 0.39223927075565995 0.7199420523908311 0.003581289593355123
Ni 1.4353080934676106 6.617481660642248 8.61926692255268 3.2838826344900154 -3.1587221039295663 -1.2827740178978102
Ni 4.579699842796522 8.653165184893878 2.8709502202203794 2.757492456749838 -0.36833623888581724 -2.309352003951184
Ni 9.247575063486613 4.918870653974793 12.538633771287452 -0.2250041796226641 -0.1716764147338011 -0.7237845660653729
Ni 1.5154572631290575 8.793073379739623 10.443038789760832 0.6379763120503013 -1.2701002790848834 -0.30196938142480895
Ni 3.0669054365604196 0.14121327700494204 7.659221387208793 -1.2332157473537082 -1.3463085481163457 0.6582808279356082
Ni 7.399975802250087 8.77917571319936 2.4216792154373237 -0.807130731693197 1.760766263950574 -0.9653862450354019
Ni 3.4128415979366924 4.902498318307862 9.403793492036414 -3.074470652878653 1.9974118844669084 1.0754099199544125
Ni 5.8170626342956115 6.183765315681607 1.7161190555039245 -1.0116234216260707 0.2676551815239713 0.2788723903960294
Ni 2.7063659045203092 5.167109136483397 11.767934297931623 0.6393199705623892 0.44253596212768304 0.712263967020283
Ni 3.6595369407617473 4.466250847890668 1.9119924101656298 1.7959232714676814 -1.3512602356946664 2.1231467994735884
Ni 5.532296906350786 5.451272663576106 9.217684259628486 1.4831277459616456 0.05831107703606732 0.8007376836826596
Ni 0.15324976653663056 2.7100732035161545 12.891572399447247 0.9256398183753993 -0.3540987551301966 0.14624254804172876
Ni 8.861018572757386 6.778419838370515 9.343349463382834 -2.0141322825453827 0.39221407394467933 1.453798400869909
Ni 6.40478243779686 2.6648234551125505 5.287409107020913 -0.2507164967871037 -0.6162252935264548 -0.27587191300680874
Ni 5.239787251823269 1.081044623433157 12.268049873409982 -0.8299724121780608 0.033118894041155866 2.7019939094619017
P 2.2473006674408693 8.282952801666639 0.5831609548629563 -0.13436225166437504 -1.4859708718373956 -1.4723707645554578
P 1.7670643066541911 2.555279356357143 7.664317511919833 -1.2952073585651565 -3.0820374094823175 1.7401323897503063
P 7.63649018691904 7.391479124602249 11.107861943926178 1.7407484260677506 -0.19680997657663524 -0.3622895184711051
P 3.0385173120160918 4.076645715347598 13.61915335085267 -0.10733327257104094 -2.15816805274378 -1.009248493635991
P 6.277369910632544 4.348078340051021 0.279780634015895 1.0158621422977665 1.197504409995028 -0.22010237144567252
P 6.556104220667885 3.612010120386076 9.67713151787349 -0.5429449967750649 -1.2827524206312553 0.5166014737845297
P 1.1441816190222986 8.539236311183993 8.229888556267984 -0.9742683780163801 3.496071664625882 0.8497303115312785
P 7.876438998322721 0.6806553909430356 8.951396688455338 -0.7213900976912673 0.17986357853028379 -0.7287419100706481
Ni 0.15592579657322547 2.464459940347248 1.6145127167304836 0.25560082146259855 0.25914534428074726 0.9948315468797124
Ni 4.5571831765603354 8.204393818630312 0.3594508658121426 -0.007418918171890449 0.616599646146738 -0.10194783988941152
Ni 2.9892873923555268 7.427893457378699 12.264579690999655 -0.026888853971044017 0.7471312112111133 0.7664718205212542
Ni 4.883246709816747 2.856812614278102 0.2801842967745797 -1.8420259793630147 -1.2419680396250417 0.051911087046994465
Ni 0.28521079201209376 0.025220924437725074 0.7838462707086091 1.6205714647648217 -1.533538337203714 1.065515543658836
Ni 8.535331415033546 6.89997972600332 2.665587497443674 0.8101042124992243 0.6423250759373003 -1.6810168145350728
Ni 8.877842559063405 4.81642123400839 7.776018242476885 0.06883691626805565 1.2585771089366324 0.4130940027174821
Ni 1.3721240509368973 8.070629954353823 6.199239995703351 -0.7502306760720434 1.8227329354613575 -0.8100949565278436
Ni 0.5120363295337816 6.5080128369933545 4.440098394009825 0.044729738807206834 -0.600535907815656 -0.12339135447516815
Ni 2.130163192315799 3.2625736665568725 3.1306681564724643 -0.08858144588483453 -1.3667603882127943 0.28855747889427724
Ni 5.627237634442357 7.489383810012833 11.51720891409154 0.898066536742821 0.3139674343269496 1.7603962822056651
Ni 9.025974559295872 2.7179864990885045 8.545974374155882 1.2261076755540175 -0.6438487116706783 3.2039005002384178
Ni 3.1022282802924077 6.059476705437648 0.5561531875843403 -1.722346783632111 3.721652285577307 0.0956190694579063
Ni 4.942921050506215 1.5892268675133896 2.8310807600549084 -0.028208858334048195 1.5981928399593057 0.2593458903273276
Ni 1.1912944263121394 2.8671158944822905 5.448909025231547 0.15058359861924386 1.358935492851737 -1.4472752550394108
Ni 4.69309238137249 3.694455180796219 11.531723836505222 -1.824259656518529 0.22150105156541205 -1.0086052036250372
Ni 5.960226477498114 1.4916326919171785 9.943983652345496 0.5708810610637007 -0.35188015021232305 0.08148700093189838
Ni 6.451801151203558 5.6930186681478245 7.166144034189551 0.12262285174025978 -0.2725420773026274 0.1839007247141349
Ni 7.283101789997818 0.20094877871845404 6.214582003349863 -0.8016285709280452 1.2700794531492772 0.48933029677340245
Ni 8.462201649054588 8.229592160536084 4.84623676276 0.06944575349664815 1.0462618376355464 -1.1439678715294685
Ni 2.008687989177823 3.0532053671747583 11.204787112013241 0.2819605424030499 -0.31048461798467175 0.5568487513403506
Ni 1.1810005554962646 4.4288391199529 0.9064374273006645 -0.24635513449461446 -0.028500421432538014 0.1257750242159963
Ni 0.2780841213028217 0.8096552819159798 3.514634242598757 0.43646584467420313 0.5876965899591428 0.058468428549538015
Ni 4.747346914392907 0.5244209664331002 5.076759248950387 0.3504359615666287 0.08623222892636762 0.9940357904512944
P 4.884658118063896 3.948122880362191 7.00070534603054 0.6653009680071833 3.1497481825657307 -0.043240298745873915
P 5.714274476349892 0.8019847485621395 0.9618822479428429 0.013595736406563683 -0.387434650278165 -0.7692573536861913
P 0.8664033028396926 8.280064119454138 3.192199910415181 0.18197291156380274 -0.6867249422089141 -0.00053041858217328
P 7.620353085959967 6.291051161241576 5.53805262918266 0.18494022172224278 0.8413940237514412 -0.6185793955809282
P 4.251970847808474 6.938689949528467 10.094038931549413 -1.5446172207256947 -0.06676872088511727 -0.7495732449937027
P 1.695054257884638 6.156798008772744 6.235142457755502 -0.031085151440578725 -2.51269823898444 2.2150470253190107
P 1.171581757793622 5.005879267717385 10.165306579580966 -0.026691907468889515 -2.282339479918082 -1.0204713589350038
P 3.909073918857729 1.6586211063315597 10.755117149165658 -1.7403406491063704 0.5940107051026287 0.371744750346734
