# total energy = -381164.1543272033 ev
CRYSTAL
PRIMVEC
9.24818547965764 0.00000000000000 0.00000000000000

0.00000000000000 9.24818547965764 0.00000000000000

0.00000000000000 0.00000000000000 13.53565427039133

PRIMCOORD
 96 1
Ni 0.5384580344556719 7.911702546281104 10.575636856720354 -0.6026719803220524 -0.6224036544230249 0.4646343366886192
Ni 8.85781042856295 1.7246571380345677 9.675217785711379 0.027820364646377896 1.559106158370489 0.29157749666752364
Ni 3.418268117041744 5.600257280713342 1.6509435499667322 -0.04829380200938135 -0.25321560905987356 0.32454469562216365
Ni 6.867887583235365 8.152136875263562 8.284131604104324 0.8793712743261629 -0.2199571041170599 0.707125360242137
Ni 7.893844299905801 9.205394235797225 5.331409751141115 -1.1481950222369386 -1.2369309914217665 0.686412810285134
Ni 1.552196973142465 3.3684203967088164 5.983165457629186 1.2053532166154852 0.508218649037473 -1.6676321656980508
Ni 5.0415651410041615 7.802962380107716 10.56197913624027 1.46794821000773 2.3089393418937982 0.3372937677577159
Ni 9.03409009410394 4.876503524584479 10.530685125839051 0.09344597306598745 -0.23896655534002714 -0.6958140489943758
Ni 1.1746120518525274 5.1445529357402435 0.3760164290137847 0.26585103843569696 -1.0187044968425683 0.6200053293941774
Ni 2.099578581874434 0.6815172925369375 8.506563415016268 -0.1268075792455687 -1.0607875420555473 -0.11855048144309907
Ni 3.1194037514983517 8.19354100215234 0.9309954222083697 -0.35786105038610627 -0.0445217365614588 -0.9720155774264616
Ni 5.660971619115137 0.16676790666113456 6.422586522233048 1.280008282227215 1.6309355816079654 -2.637072783308484
Ni 9.434721493885464 4.055440359672116 4.260346858890014 -2.227063590163913 0.06360369289357433 0.4734583627381523
Ni 7.480163710256046 1.8760499361514549 0.8722352254218536 -0.5870620416989373 -0.01923879362495396 -1.0652149816992815
Ni 1.9164275144396852 4.326375204732124 11.545304491794063 -2.0561052845430585 -0.12512633488840386 1.4518286787380479
Ni 0.2875584586589761 7.246027395660735 0.008202215800236253 -0.9834400172133193 0.2848147240223934 0.30473023199939775
Ni 5.313572775592671 4.480810655908295 12.012338788934114 1.534916448498163 0.41881959234734967 1.1523897770445766
Ni 5.73260806469934 1.0318663072627803 1.9038037411086193 -0.7985838705644505 -0.6002973094422888 0.9546883990019236
Ni 2.3206564584159244 0.3830663208894416 10.849111253543521 1.1322305284878824 -0.8943268671947308 -1.1542733672205345
Ni 5.766428679403888 3.4831256425880928 10.042995006182567 3.5264613326613334 1.6179252853912265 -1.4189198438251691
Ni 2.3961678937625575 2.098468799603571 13.053351551745925 -0.5762793492611366 0.06575647757051901 -3.1716922909369893
Ni 1.766098257665708 5.215643738374606 3.265991192382402 1.1480924352208033 0.5789638380718353 -0.24137053679582945
Ni 8.91737799195152 6.180793634787341 8.593150477426112 0.014792070707510008 0.02997417776458709 -0.960837449322455
Ni 6.365729602041062 1.260037542152203 9.912484611129083 0.8964266871465528 -1.3325323202678598 0.07448357303087172
P 1.3056126007423081 2.1950568499110097 10.955785375055987 -0.4349170121298445 1.1275459785280193 0.7880893987910299
Ni 7.296485496242638 7.5859999461540095 12.524094537134264 0.6137534349471946 -0.599615967104548 1.1107463904721775
P 3.1801828271992787 5.114255879745685 4.969912973504454 -0.34940880585369505 -0.07956612976010168 -0.1770615903051144
Ni 5.390055270426309 3.6790761988801277 0.9964041396159139 0.4730508428870885 -0.9856295686654702 0.10934696056696008
P 5.585081008159292 8.840710533406071 4.116706814753664 0.5672061833152747 0.18888095153754567 -0.7115844244547551
P 0.0025506495858666797 1.2915461104591202 1.811314486654901 1.6196489529505527 -0.20041800564286774 0.41213086747326444
P 5.914982284544485 2.4537840899915255 12.86142950509712 0.02577453786094271 -0.40808137999423916 -0.9581529605117565
Ni 6.6707255146309725 2.588215715735391 5.005228095000431 0.5128294083366072 -1.079845330017947 2.092593095056448
Ni 4.055791790724556 6.372305061995926 13.127419345321876 1.9676842754954884 0.4258217346967957 -0.16366485728323427
Ni 0.21334731820637065 2.837879733937193 13.456687120994118 1.4083389829855293 -0.592691729180889 -0.33330392987203245
Ni 5.577432758675927 7.995296895833856 1.1181250590841623 0.39794429156023725 -0.6012013093137968 -0.5412308422974357
Ni 6.498644525348082 3.9388484839323725 6.924516073243267 -2.066310250100519 0.3850306688223627 1.0492474026264318
Ni 2.8397108746841164 7.700363009166437 9.151848166046648 -0.12373382541625143 0.2130385226203557 1.0695658024688097
Ni 6.85684524964028 5.961898330045216 11.020350657937676 0.858356876858025 -0.5656246977607677 0.6419579224058687
Ni 2.0150316692058583 7.507334879521007 4.452702645443013 2.4809888236963014 0.3616045765889385 0.8667196470004236
Ni 6.55626072157705 0.3893153198929591 12.354722341410838 -1.3202092799261327 1.2062222494839998 0.5560753635094359
Ni 4.41128279663873 3.215566385268626 5.915785027053742 -0.5345724564406535 0.12457457614999191 -0.760865015857438
Ni 7.124672704341871 7.523195517808757 3.0653111139793734 -1.8393517749649613 1.6986265571970358 -0.28180833309590175
Ni 0.22513690519717142 3.582950557852215 2.1599516622279373 -0.2083118065686477 -1.1151329495756472 -0.9263674405700433
Ni 2.2846902646543743 5.050360165500751 7.495937415599244 -0.9312785047184154 1.7256403667817182 -0.8797957634580913
Ni 4.787591468317176 9.078740334134993 8.288300686168533 -2.6816325721967296 -0.1125263867362062 2.40345823630899
Ni 5.883492212608749 5.5868289152359 2.261645635799905 0.31620300852568767 0.6736354560148077 -0.27029904690472156
Ni 1.1926645101252313 7.477222787238259 2.2420320837995202 0.9778375834248774 0.6089711830672029 -0.44152808968845897
Ni 7.889025995213138 3.306133866756633 11.815448616986082 -1.5141771590682824 -0.43380141046816256 0.06288995465600136
Ni 3.9955213652311072 7.462934340500898 3.0023032255511293 0.9287086871087101 -0.4662232784422938 0.7723640176359731
Ni 3.5896184996629836 4.128639748621119 13.373267562149026 -2.3253149550383436 -0.1747188011045507 -0.8689516216547358
Ni 5.4108451916338085 5.256400492272047 4.3925635441849495 -0.5966684544404498 -0.20264252409801228 2.220539158781834
Ni 8.736058065263695 0.8872348576311254 11.916180779256633 -0.3081950506195466 0.38340753139664296 -0.602129220444705
Ni 0.3228134669486149 2.0905616009236727 7.406507460938872 1.3414797592691348 0.35311479395037254 1.6088428634739842
Ni 8.048436970237011 8.734263917259133 1.2547919712852573 0.3542221680819384 0.12601336547904748 -0.6796618647145456
Ni 2.857680099286506 1.0001912716152337 5.690605580202854 0.7369763821652985 -0.05257237478007721 -0.5004557172626026
Ni 5.821982530246169 5.959188611667193 9.205314701401148 -1.318154197169317 -0.2050315931554791 -3.2063178514306587
P 6.372998675915215 5.851493490465534 0.27537859823625527 -1.342995424582713 1.5754398625335062 -1.434099379779085
Ni 7.6254249613264165 4.158779585460637 0.6594289260725287 0.9972578969330179 1.4493347086716009 -0.3381723137079272
P 1.65189241380832 5.930195549840898 9.736670129323297 -0.09453509236510815 -0.006398447327176078 0.2740436015488184
Ni 1.9740899515966062 6.584939345093266 12.16113562135574 -0.09549514228553231 1.1756415484836655 -0.8198345524131107
P 3.693836303082605 8.339403385286095 12.251635591088938 -0.5284030944051481 0.8217158285962236 0.049422002076553596
P 7.399769232917616 8.634078322756979 10.438548227256332 0.8871334347700851 -0.2900340634398037 0.2118838401906222
P 8.449086866389717 5.606610784214032 12.48733114977481 1.1094587820090054 -0.6442893987525227 1.0319145677749388
Ni 2.4308763342837962 2.51009629205223 3.783378160788623 -0.7203660273021271 0.4322893446990103 0.9009906523681515
Ni 1.7121720874873592 3.6714556939535354 9.152674029019881 -1.1687157678981097 -0.6887828531792073 1.7411664874417758
Ni 8.994655830745941 1.9157616450771675 5.270486403744975 0.18816309953491467 0.6741753876786777 -1.2777801642276443
Ni 4.47404098405603 3.4925495437048375 3.00744614155802 -0.538388230642318 0.8395657122934509 0.5565011381929448
Ni 4.232802062927196 4.284360697594371 8.167075469447937 1.8213170289504377 -1.989830729685541 1.6742856664588264
Ni 3.783728667022504 6.040507907564674 10.65365639999914 -0.7854673877871504 -1.7939082979201812 -0.04738491704186678
Ni 6.637792725743115 6.524594934115093 6.429801031812217 0.5569816773737891 -0.49954297564034605 -0.1222901509911894
Ni 3.085851334175928 0.3778031784698741 2.9741212296011232 0.13553210360276013 -0.4686108048378639 0.8160750853706784
Ni 4.656239488374956 7.545909061619086 5.521775328155033 -1.4233876497885358 -1.3413470903460123 -0.01394437799523405
Ni 7.618368595720845 1.0284629749654672 3.2265079136407757 0.3741178785646008 0.07752930183573101 0.7555340905628278
Ni 3.686576477394043 3.6447191894113287 10.642056400812946 -0.47265412166930215 0.46704088924758275 0.8037723567439254
Ni 4.817231903134807 1.5895318983714128 4.160385995297712 -0.40103784288389643 -1.0603360563404256 0.09848996324779813
Ni 8.602079600613765 4.1002755634149795 6.432101980387139 0.6498347540507841 0.41305209373595314 0.7409718764779367
Ni 7.083074365555692 3.68529097959696 3.2647732063401302 0.571247443264184 1.1756981127532138 -1.9674590468585602
Ni 7.476751129773142 1.4121424505595608 7.720832018333945 -0.3573625134831329 -0.6384972175507778 -0.8787097294827639
Ni 2.4127776350831396 3.0603170937604895 1.5335350594393455 -0.3095451368895379 1.1896131801724092 0.8776020982408821
Ni 1.248301594637827 9.222873306563317 12.777508694593024 1.1577212165598192 -1.043359319276771 1.8434794239800898
Ni 0.8981634385434484 5.775935814190947 5.724173719440782 0.06099556584676592 0.9885865944112653 0.48490337135030037
Ni 4.213149668547332 1.992706549190332 9.450675538847678 -1.6934154453097416 -2.4103716755993716 -2.8444121986615336
Ni 0.910921310565577 9.309778506557478 6.271542380712924 -0.7094049003049332 -1.6373024043662576 0.36598985014082774
Ni 3.7109084536827135 1.2536193013523789 1.0199564938593029 0.7868030758794384 -0.44027621955922885 -0.48157919207307387
Ni 4.483039468635611 1.2144439871909165 11.481294100047807 -0.18304531869237506 -0.27068394104796606 2.332534869825551
Ni 0.9049506819483344 0.3188977851695868 3.748835262789455 -0.815170571278538 0.7239257196289275 -0.6212919094160848
Ni 2.8372786018738085 2.503363612942328 7.560177162348147 1.0182033888364335 -0.24103372228170097 -0.34967054415551396
Ni 9.162649121997822 8.952465608081969 8.597129971685716 0.0028212714988790116 -0.6143684428233742 -0.7607472593326512
P 7.889997054700143 3.8481700242172794 8.614239115028187 0.6851082325410974 -0.09347091276665193 0.6995118095609372
Ni 2.602198972348264 7.431610735905792 6.931094307653806 -0.13490192621792896 0.5598235176979585 -0.8609994566871945
P 7.625323231284919 5.849875057987191 4.268144004161386 -0.11970464965220029 -2.153978954363097 0.3920860330072473
Ni 8.73580836425275 5.92918749761153 2.0625627190483597 -0.7645357798408059 -0.29181738059247164 0.3595451229567485
P 8.672282577431437 7.5525954998010345 6.904469706157245 0.19907357579983134 0.5650076330020591 -0.8216091278150301
P 4.36014033032313 6.170935068947843 7.442972131903751 0.8080151911806794 2.2393267238019825 -0.49017721815473
P 5.526928417166073 2.078067302190874 7.754061673979258 -1.7726316479295925 0.3479774727238072 -0.7479197685506797
Ni 9.102868850340672 7.4380474730767965 4.208180618429543 -0.5677440580966158 -0.22435600451570395 0.6662103671953301
