# total energy = -340876.26070916513 ev
CRYSTAL
PRIMVEC
9.17219126721513 0.00000000000000 0.00000000000000
0.00000000000000 9.17219126721513 0.00000000000000
0.00000000000000 0.00000000000000 13.42442905886696
PRIMCOORD
 96 1
Ni 7.299633158931864 1.7532826503638197 4.832042288240905 -2.3099387296925897 3.3669493212042076 0.17099867194048615
Ni 2.922755344799074 7.701549395519985 3.0275843155187534 -0.435973735529133 0.8019401886311931 0.2620216373872778
Ni 7.5306164444016055 5.508836247456531 6.97352049470465 0.8894721102055907 0.8768492792352576 -1.3934150146858453
Ni 5.594110107005123 9.050365940203019 1.9241504789262338 1.0854493064682855 0.6074331491561217 -1.3679078715536763
Ni 0.3860474289722199 4.925787583379374 4.154269656247626 -0.513351085168032 0.6920401837742404 -1.4488863082802725
Ni 5.295225091704443 7.616780006475336 3.90464297539029 0.5009735374392855 0.9966176922458578 -0.7329366648782861
Ni 0.8695301255144878 3.773320131022541 10.903508985432213 1.2080739579807582 -0.9070342874590702 -1.468650121170761
Ni 4.74325181067027 0.7619375736522906 10.351093604792766 -0.70872304374656 0.10143876146347691 -0.4730721830433272
Ni 4.511543922113044 6.933167440484576 1.6022726152748599 0.479991792981296 1.6475544211115691 -1.556350450002223
Ni 8.759295631617992 1.4449961393078101 11.312309868570528 -0.24729975779607088 1.7770770852954558 0.27791208336528916
Ni 2.954362714918946 0.6945146321905514 12.269901282472677 0.8879633868705482 -0.5774908530707344 -1.123146049688111
Ni 8.254421551270276 6.982412933860546 4.68638789546564 1.1416271392114339 0.2771096420686518 0.5664186544169728
Ni 5.418297550284954 4.020666605202048 13.27787370699422 -0.5665945178732049 0.5424770559997109 1.7885604033447067
Ni 3.1622137347350843 0.17279857476387453 1.2261715102022306 -0.10834885831974889 -0.030904402888340322 -0.14197965900031675
Ni 2.628300497742126 1.0046117337461729 5.219511406815151 0.12115809426927521 -0.3546443432210215 0.31838433244772263
Ni 0.08212779804217399 4.413144657270914 8.387112886532362 1.2065035281698446 0.8889920852453788 -0.2974318985657716
Ni 6.277172341537035 7.933183906549364 6.268845826564656 0.5367602081205918 -2.342567314360888 -0.7267675599530966
Ni 0.8758800333305026 9.111085844495983 10.273514296257973 1.2102521965789994 -0.7980513950997482 -0.7979539502899354
Ni 2.8933126117506736 3.2220072477389854 7.3605337553871495 0.9918997179448982 -0.6962169408597494 0.41063397121276374
Ni 6.427853094969785 5.6469327548636095 4.693300975807876 -0.4021393034781912 -1.5985378820035503 -0.4522719584685243
Ni 5.236275420270777 4.275277454638356 6.8754018989065315 -0.7950869131547855 0.5750801867467129 -2.673198325386448
Ni 8.326157256931193 8.24110352996614 11.564460736385785 -2.8881728886872517 -0.18248816063732443 0.12794837771823125
Ni 8.153041324359382 1.7678389174503655 0.49246410595067724 0.6449249754539925 2.135672442744425 -1.3120812515023599
Ni 2.1897872191405745 3.215311548322994 3.9254638489167286 2.2975025608117656 0.7050389100267536 -0.17379706062122974
P 2.447002970815433 4.556450969155091 9.276011927741026 -1.32555434628813 -0.7941646584508323 -0.23628360919122532
P 0.36634739718363585 6.518997156746094 7.489139796786383 1.3006550119432891 -1.1232272965480075 -0.28744341989449207
P 0.6579139213007267 6.908576796465025 12.054653807849613 2.511806066187474 -1.0337994435024778 0.09149373443562306
P 2.7699925040136812 8.951342966374192 9.357766417610282 1.0343967107668441 0.8005083412806729 0.28152088376247003
P 5.267268253594935 6.273934558120809 7.475755735707185 0.6968599737603869 1.5077159768239712 0.6050294248106355
P 0.8158608844284734 6.939193569958968 2.9890565273038603 -0.5096522961602061 -1.6661401545335564 0.31732143840084703
P 3.438810325952395 4.785214584407477 0.17760938893330946 -2.397511017586619 0.1304642021615495 1.9691446620910988
P 4.678918063130869 9.051246470537176 5.509479218044286 -1.543850260652683 0.9617365640979565 -0.1959342588399013
Ni 1.712539778027061 4.988121793284958 2.107326470565797 -0.12077448567761136 -0.09845499624480462 -1.1303595367174144
Ni 0.5763575507566572 9.080744236731462 4.515642057043271 -0.6449229185714634 -0.24006287372799948 -0.5499103723493045
Ni 6.862165510102124 2.3968769471053055 9.856765709634788 -0.6676069904325406 -0.8332940203521261 -0.5509362425106576
Ni 4.81921589637334 1.679657473360857 0.195220912835563 0.3364049373948593 -0.44810574290597666 0.17814171074317062
Ni 0.8149647613696483 3.696704819759834 5.967466892536295 0.24645746440043356 -1.1585095167890693 1.6065746362650979
Ni 7.412854684398985 2.864337660442294 7.24241244549808 1.0381885737091088 0.6556140797367226 -0.32839466549587315
Ni 8.75364556197381 6.572085798143024 9.684409234476187 -0.8839501519460969 -0.7097802813664809 0.7602942309556325
Ni 2.7502722934049393 5.47190900656779 11.285688501467826 -1.2893128474575926 -0.5590670991479081 0.7917419079419525
Ni -0.061125315134314934 6.611847246044835 0.685487361827238 0.22328719693155738 0.6992202464624473 0.2716668737865257
Ni 7.234207920665746 3.209578928959988 12.232339325968063 1.6136446557380015 -0.06729862524665829 -1.47068309244039
Ni 4.38016145850392 3.502712980515699 9.526376969972318 0.8029470326291527 -1.179667124703291 0.8689253964024906
Ni 3.222493373860969 3.2062402514429733 12.104847705772997 -0.14697454111174688 0.8356072418663351 -0.16351676174114418
Ni 1.3625197980083652 8.514388960239378 6.9679493059029065 -0.3768409339227187 0.43569039996075937 0.21761405780618007
Ni 3.327074695424166 7.670584078768769 11.034853843058317 1.0915456491740103 1.6058231028110537 0.6640354710311983
Ni 7.7852823269838 4.6365792295634485 0.6194585933945821 0.3134634981073376 -3.0406732447132345 2.5406224761985343
Ni 7.549070892654996 7.368406246905979 2.383184700409152 -0.12042790097147002 0.7091333918111012 0.6027748244485038
Ni 6.429476572773388 4.812556885721272 8.821971047028063 0.6833470268756167 -0.4178312602921514 1.0133702291138482
Ni 2.5164181121582043 2.199619807872003 9.85161093830357 -0.9480140723055416 -1.5635806492020747 -0.17677671207484394
Ni 1.8197535184017508 7.262971911581566 4.951787993152676 0.12724543811393568 -1.929239598366045 1.553291865681557
Ni 2.32503117515262 7.067640932454234 0.6732984372328394 -0.3415515145928053 -0.5351319284885494 -1.2385703267974024
Ni 0.45246784995975653 8.825234512579033 2.0409427383421836 0.8134906124729538 -0.3494010925442112 -0.5150477561441645
Ni 3.964009981513583 5.372968582457791 3.048808765448348 -1.1544929394305086 -0.8514421520160627 2.022462399677633
Ni 1.3830288170414569 1.9005788653246498 1.2722039850776221 0.5689175095794267 -0.09712290769694241 -0.6613656375085191
Ni 4.187352831896311 1.054948717848859 3.416033941308847 0.6683814067047199 -0.21855662422510747 0.5674650934036163
P 0.0629817665888309 3.355187460780349 1.885997833322456 -1.1800101098650064 1.9646303191605134 0.8750276526454865
P 4.531236616148844 8.398278194613303 13.189473964759365 -0.14571598611429742 0.8693884520818382 -0.14764328504399732
P 5.6589299806665085 2.2738044885247954 2.1889608047332034 0.5877788652603038 -0.9430058204576728 -0.17444317884566088
P 7.739935014774675 0.06536561902474346 9.577268871629343 -0.02442702269411277 1.197598255260415 0.34689940916828
P 1.4361449750113284 2.188448079257376 12.448808536429771 -2.2431424980036465 -0.5108162345613203 -0.2544715929541618
P 2.0900579866062254 0.8215026991007698 3.0186973796774463 -0.37028204975827844 0.4677733965382331 1.5868619883275188
P 6.011903406181024 5.704662524896827 2.485505994114678 1.8571335244284146 -0.6360739528212658 0.26854632587967303
P 8.146318108370448 4.148435225564733 10.19048395462329 -1.949514289454681 0.6846652314664079 0.42090012902546214
Ni 6.598208198056371 6.390696549306522 0.4065050837358188 -1.0610960744349016 1.8329805813312947 0.11846923458320241
Ni 7.777366726167361 1.1136507401260438 2.6323692816612136 -1.4205039004828375 -0.5408279504320621 0.550433077621994
Ni 3.3953524850853163 7.542870491551969 7.748419291431924 1.615557042269366 0.22517747197573476 -0.5179222494784822
Ni 8.564771805296969 0.8921175630238308 6.468104337869971 1.3580034679557709 -0.5592483619207788 1.1741387386858941
Ni 4.226426365474562 5.7878451249017955 9.34450342945203 0.46698303942645375 1.7973029254240271 0.1326936057127005
Ni 0.7045260786461056 9.272534750140203 13.035549924595804 0.5537114912629496 -0.601145516375197 0.39668856477626524
Ni 6.307789115030979 0.5226708825077793 7.599098773921629 0.31861033241559966 2.496614960269332 1.106238475299495
Ni 5.905505990803627 7.87291343961446 9.0333111682933 -0.3306832044197337 -0.7628740758676668 0.274524654950295
Ni 2.4311717691825545 5.503332932868045 7.091521648891871 -1.1200931217944001 0.3675834198801928 -0.026115466140129218
Ni 3.698199886889706 0.6937707675020077 7.607851795774616 0.08102703057634433 1.5430473051354132 -0.4535312847969221
Ni 4.548425302046883 6.295470862543751 12.746226918392617 0.6717382389920947 0.9059389975123625 -1.8028161419327726
Ni 0.1190898932566427 2.0933966641232407 8.83828103703014 0.0532989685334566 -1.1695063821202052 -0.3136049087812083
Ni 1.8982399566245431 6.859899978929865 9.357296801432064 -0.9828152391451268 -0.6204015363913316 -0.247318012628516
Ni 7.972358334228403 5.69313308083395 12.018139315555008 0.2003953799350484 0.18815512911511467 -1.745372297993007
Ni 3.663556521555186 3.112766453157537 1.818418964614043 -0.7185726828471303 0.8141590992948882 -0.6781762813079545
Ni 7.249929056006855 3.6458083320073182 3.115500683288916 0.33963887095112477 0.39293886792584587 -0.5362534436875023
Ni 0.6580404975362618 4.445568352388078 13.01588291269475 1.6239830615495323 -0.13825824428467157 1.5878150962694073
Ni 4.1840049821883145 6.501918537139826 5.606336637582543 -0.48525586959371264 -0.3706929120434519 -0.1988483471629027
Ni 8.121800841878743 7.958462464892476 7.875199149606877 -0.656376926044676 1.3711510610813225 -0.6805280693695829
Ni 5.796888905208873 4.86121535887447 11.061017517831077 -0.07816333587530411 0.35317675753655947 0.30916281384945465
Ni 5.031166885557901 2.0481319016329427 5.692508454628156 -0.5127664163091556 -1.031670827195249 1.6888643356039494
Ni 4.940829976587902 3.4152011063677894 3.9412776233867435 0.27988283393841473 0.6174689361255689 -0.09485776581184953
Ni 0.23198030262935582 2.1640775678213635 4.001096818525391 0.18679990063880086 0.8579380441530515 -0.6835948812203647
Ni 6.532131734230615 0.7626704317116573 12.104135943752889 -0.12141289059255865 -0.630561764753785 0.4382787295132258
P 5.481227952604293 2.581623217840783 7.939784215179154 -1.1002287787703051 -2.671448946795509 1.0420172034265796
P 7.842076533536976 3.9318431077438825 5.331041580265409 0.1401840005524747 0.4758060370347226 -0.2676554386342874
P 7.789116302813778 8.951214555700462 0.7157665986930885 -0.8742761191914427 -2.1642394557488402 -0.14942608797603296
P 7.519894153145039 8.96809138710515 4.722351139082298 0.16252071637646204 -2.0196254444494706 -0.6698875589366012
P 6.349357484556011 7.053295625760247 10.996808512089014 -0.07484866967977431 -0.5726600073409944 0.7259257807780917
P 5.176848794906109 2.596436306274792 11.615473710963755 1.4814755550702035 -0.9433107532926012 -1.1391133716506445
P 3.50668453921039 4.390865405378526 5.3817592102938 -0.8294065123722619 -0.10813365698514926 -0.29984924975801264
P 1.5089538270169993 1.6708796865922215 6.922508437345777 -1.525655077800895 -0.3602904857632053 0.8366428822197012
