# total energy = -381164.30477976095 ev
CRYSTAL
PRIMVEC
9.26659952171354 0.00000000000000 0.00000000000000
0.00000000000000 9.26659952171354 0.00000000000000
0.00000000000000 0.00000000000000 13.56260508226354
PRIMCOORD
 96 1
Ni 4.666159046287295 5.530436236313873 1.970496949660342 -0.3953788448259062 0.0834862907501143 -2.0120100939960577
Ni 0.940763701225268 6.851834773254839 1.6033301894687744 0.7729227183529205 0.586617497962351 -0.9048311091601643
Ni 1.2572829359010178 9.32812958965942 2.3099695509751945 0.6238169898307837 0.8286678344340246 -1.2442709767266054
Ni 8.012531943923976 6.074441218919915 1.6664505577364015 -1.2010332490838929 -1.340180323731421 -0.4459167056744578
Ni 2.1575330646813295 3.26289937051313 5.390932216100562 -0.7380485321835547 0.23212973492385183 0.11650414043703163
Ni 6.263869043238259 8.682034481795812 8.467961209793431 -0.14152071708602723 0.8941453473115439 -0.22036950906413016
Ni 4.181089635673459 3.13843967437676 1.1466100863071012 0.7405252758588214 2.9316800679412673 -0.4896591408677309
Ni 0.08413516231855851 2.835811072156406 12.185024028702093 -0.13375727109052446 0.024431650679803085 1.091852638891468
Ni 3.074194340945634 7.50500029643764 11.275895571065536 -0.9836071389188029 -1.1400371690164948 0.5499013734882401
Ni 7.093998814586964 3.4588879471853233 13.108732553787167 0.6645987997338361 2.264066135530191 0.9580573154741565
Ni 0.5714007569830476 4.632530557174133 11.167544004613765 1.0469483221796099 2.2698333770312717 -2.0453264487600005
Ni 7.911025614426709 0.7131250544053735 3.44076525879772 0.4409236233352406 1.021595445237118 -0.7879086502387914
Ni 7.48301992273237 6.713456644864964 13.094667709263618 -0.828146928933548 -0.045860509977540376 1.3073735616140454
Ni 4.401727366669436 1.399590102423707 7.152727741413223 1.7371776779973565 0.014397406372252624 -0.48295627492625853
Ni 3.519982636830703 8.150724740326455 1.7742739280240913 -0.9820539354990698 0.7783803990333821 -0.6490230567827662
Ni 8.525669884029071 8.880969837067616 9.757290826295181 -0.1279524914832893 1.2253756824839992 0.32955731834540664
Ni 6.668875035296646 8.133701997284053 3.10347679495434 -1.3478113579141173 -1.125031439636282 0.556377468130887
Ni 0.2597668734950794 0.09603347590943778 7.6518721898099145 -2.7998986896301905 0.09594791355223475 -3.3408971042018463
Ni 5.871354427130421 1.6041502835130055 13.25156050319444 -1.0183717960934977 0.8998166866647085 0.5867231703022798
Ni 8.50616369235555 7.097557188744983 3.55813600641616 2.002290809825764 -0.3259798854067934 -0.21671211481720098
Ni 2.067508051803298 1.3344181090555964 6.969009068966638 0.45627516609064644 0.056846833785715 -0.3319520438298283
Ni 2.357042949114063 4.912835921512533 1.5913679363422435 -0.24792736407774077 -0.28216777331784954 -1.5544480907731872
Ni 4.4647031759868945 7.230190025525556 3.4921948853003526 -0.6815248860652133 0.43221118316290724 1.495427389264605
Ni 8.350642355131463 8.624470366510343 5.181010380615873 1.3366327155894786 1.5192260343460997 1.8939411801750672
P 5.976771261561764 3.6799982747491633 7.435060637693744 0.4323250830329522 -1.0254099338872016 0.26809509727486736
Ni 6.824294439927664 2.2575011386832027 1.9089639498647688 0.24281961053753018 0.15111581697363008 1.0039944443259032
P 3.424184532545259 2.063143483500102 12.493858472520433 -0.008230358329592277 0.14464537875793798 0.2899404752847329
Ni 3.757782109859631 8.748689131063097 8.902304328796806 1.1674772675053182 -0.0036540518128195133 -0.96800568493612
P 9.08215697598629 1.9575876500782126 10.138725369536495 -0.3561841769043156 -1.302168620374338 0.6778366385803487
P 0.9077829474080574 7.517222941006463 5.894565405232006 1.6587425765179047 1.2474650581838709 -0.13744474724444072
P 6.4028402339878046 4.251191459906326 1.6106952826479264 -0.06632880513422125 1.078982210686703 -0.4506045980684304
Ni 5.362831253511511 6.941646654347364 12.109751442020855 0.304650784911714 1.228612701364058 -0.04466803233133597
Ni 4.951839038260205 0.7159875069507182 3.0052425016945645 -0.9253505692697547 0.7927970886793443 3.0465304748249595
Ni 0.13832994207315216 3.9701169678202284 1.220169278764857 -0.6411112581348571 -2.8732077827369875 2.9311787028248166
Ni 3.183252948929324 4.976636458173907 10.18287144893443 -0.7569895920624318 -0.3908806998452365 1.0667843830689305
Ni 1.8093683931575633 2.737483186242995 10.474481137844103 -0.09078488129405654 0.12605630290184094 0.7562154329005686
Ni 3.7848776464170535 8.53157270782766 5.389914743489753 -2.7679486190861557 -0.7170559890922876 -0.009426435520222477
Ni 7.288217470779517 6.8617593011799425 9.578833728970793 -0.2843457548057748 -0.9434951013892654 0.42626216466832395
Ni 4.998134968711945 6.155570296402896 5.588131937310394 1.0203106649874234 0.5677108908658351 0.2784209046809076
Ni 3.4377415674233402 5.188128055591848 7.804709919856493 1.605285742250345 0.1325172280358363 0.1711915046775826
Ni 3.5812719250628486 6.580026880538586 13.61400685766701 -1.3941007278989603 0.015038896610993453 -0.4361444567790424
Ni 7.194152220576234 1.7997681962104053 11.410084269880306 0.8575449224796908 -0.20502593672852434 -0.8713172936734348
Ni 1.2076324964773955 5.351526002280302 7.6618949436883375 -1.2086681399213313 -0.7703863250843119 -0.9371557894347989
Ni 7.850449854346041 3.791373532575314 9.97619106990931 -0.020598135866325813 -0.3435865427449631 -1.1642926991297498
Ni 5.699931605387684 0.17531664679794615 5.409919478209371 2.708723771986567 0.7809450744367646 -0.5751874017485383
Ni 2.8091047327725165 5.807655823062117 5.593977308192891 -2.6842108744468676 0.6716557065806175 -0.6381493472930558
Ni 7.3171199942140595 8.925671912427742 12.389045820368006 -0.27775036097644423 -0.08959497475101344 -0.29029965839636457
Ni 6.1025097484111726 6.4455407238840445 7.642446204930908 -0.6428223272886929 -0.003276099648110487 -0.5417846579183766
Ni 2.3994747076285776 9.029374425975663 13.277505128110127 -1.1271929660639748 -0.8642405893323116 0.2901991282627583
Ni 3.445275312711023 1.9837287269005417 9.174695090613424 0.7791918391910839 0.8350976492197683 -0.8870269910992078
Ni 5.023534717584686 4.8216803835113815 12.978545172580295 0.1928779885120807 0.6791515007370303 2.2303013803749203
Ni 1.497269326381229 1.9159898855069846 0.6539114844320726 0.14192078073792333 0.4912771360871281 -0.2737841772398446
Ni 1.8724276018693493 0.6739894252867128 4.377276517572167 1.0700931357271892 1.033486026027117 0.7251850459573254
Ni 0.41303086711267156 0.5662930074103898 12.011178917884079 0.054716674816589636 -1.1053097928376383 -0.7012671016891471
Ni 6.195138675712129 0.0882208059807226 1.337586359380146 1.290191393407804 1.0657130043816228 -2.450773990675818
Ni 8.12794743907538 5.032588185169024 7.640032255795064 -1.0205922007835844 -1.3138002910759954 1.2786391697938302
P 5.654367736286162 7.444776667133025 1.1162842132093507 -0.6110167527423219 -2.402269615317527 -0.8837413783694006
Ni 6.029044148607051 1.8167168064578494 9.352799130501818 -0.4285213930161459 0.2476661399965541 -1.0425051988065916
P 2.930154320340784 5.090995560997148 3.5829556661683495 1.831509138992091 0.06506356526855246 0.43722200611393736
Ni 8.501484059673778 7.417134401212782 7.3856112834764485 -0.8085409817771624 -0.4442706854306026 1.2439984397915091
P -0.16860114223462044 3.921698986112795 5.234975348706093 1.8540880527338712 -2.654286061862977 -0.29381744174163593
P 3.9725262836563875 1.6361571177364456 4.991811441301962 -0.5092033815482456 0.20792922641824832 -0.8904059348737697
P 2.279416646192883 3.360170864098379 7.612704127593459 -0.28726472822478266 -0.21802877674609547 0.9225300691018242
Ni 2.025252358676811 7.062279244943989 9.0029117981552 -0.04692623223789338 0.145239303588195 0.5984306885471953
Ni 5.286159410325425 4.674239520937799 9.128595612068326 1.5919496872630712 -1.6053631324554996 1.1721929278134329
Ni 0.8006332588945552 5.255820563988556 3.5749131845752617 0.652739843512721 -0.3819846829071873 -0.020221212142881303
Ni 6.0922608895081245 5.630450643312596 3.6945486890796917 3.2487647077409596 1.7141740180133316 0.29334898674564963
Ni 0.294939178063258 2.329817680165463 2.914970070613358 -0.15946341760737698 -0.3891526614105362 0.36187788485498323
Ni 2.9699636312336324 0.4712297444549747 10.896210561785248 -1.0848774931252156 1.638488968475191 0.5599302184791518
Ni 9.504009645699053 5.2508999997231705 13.277898958583346 -0.12217856511398958 2.9562377026759727 -2.281229277573039
Ni 6.643466019824535 2.444000717600676 4.5944680002625 -0.3822608193867094 -3.1313311135111235 -1.3602215586530122
Ni 5.16670367784877 3.3995075784233655 11.431037904375396 -0.5014777307692138 -1.9318114728582794 -1.9198386167671198
Ni 8.335232000379412 1.6047989454688947 0.1901209659512084 0.06037284466110248 -1.249650495870964 1.2275840029892275
Ni 2.5625205235409765 2.9691389038897165 3.069895565497963 0.4163107098825669 -1.0338490657934905 -0.705621779113417
Ni 4.754562404275604 6.726605949370772 9.883965239680942 0.46602838882266834 1.1007967354586332 -0.8631753812925909
Ni 6.898436501485784 5.15425863489507 11.46692466375499 -0.20843727640291845 0.7311914000524052 -0.2534207830921442
Ni 1.8308298372981213 7.6485213874777775 3.702184366960443 0.38522890087609785 -1.0479099147619308 1.5552140224049344
Ni 8.00818590881952 4.272421239062639 3.353991895638567 -0.8292239640478106 -0.9052476278722926 -0.8561629545304996
Ni 2.6222808228770984 4.089739499085541 12.693757554126702 -0.24812071103546948 -0.12535464884912606 -0.1372511431763959
Ni 8.7995442284048 7.038028554393108 11.32771810138145 2.0090926632389463 0.10804932480145907 0.16263230225366185
Ni 4.594101969587391 3.882121340204193 5.698083845473337 -0.7304966879782259 -1.190478099275866 2.541499993707481
Ni 1.6249537990983047 0.2914104570232215 9.107112854749216 0.7571911665502766 0.6185616549691153 2.52877740393449
Ni 0.05577566160708899 1.536670906901804 5.619624475268807 -0.5359999329157994 1.5908284291744343 -0.23044180569846764
Ni 8.840641596610055 5.953085833572443 5.590478240270838 -0.6481684220919548 -0.08269850474149629 -0.44559917443403907
Ni 4.966869462438091 3.7980362175222315 3.5923269781110725 -1.1284394368765662 -2.4059390937493146 -2.4219174714554423
Ni 4.546860845999928 9.353427405939096 12.348684220152714 1.3619632239344672 -1.5800128266161693 0.842173325119627
Ni 3.798666346279381 1.104643511080953 1.130673388710844 -0.9065632613599225 -2.0908306038393865 -0.9675788818113464
Ni -0.07718984609086069 2.5598146765249825 8.130618999673706 0.5864089814959708 0.05482800358347331 -1.0427522818203914
P -0.07045858830860627 5.749739577000594 9.42282311529998 0.022051580483400734 0.4175296698913326 0.059475015437181436
Ni 8.69761163533652 8.709815746706603 1.2337911798385273 -1.4770923384008432 -0.4516836900652221 -0.3799622531605198
P 6.703782315122848 7.446463188218337 5.294013779951305 -1.1192248602568338 -1.4635462242852924 0.3290135300267947
Ni 7.243672927608679 1.2046764512784154 6.823644851311839 -0.05321103680534062 0.4633600979618859 0.9506314553237305
P 5.766419455866313 8.880367508108575 10.594537345959923 0.44523844866051054 -0.014151351799717564 -0.381822189187394
P 3.8915640049620634 7.2296432961627355 7.107144412453024 -7.404777104503376e-05 0.7101361220440028 1.8544066124155547
P 1.3858384689588588 7.001425486882225 12.77018290576955 0.6622318421635564 0.7504363643249463 0.15919268044449358
Ni 7.069673991241125 4.190810298412425 5.640538263386608 -0.9731291222056143 2.2885594926858652 1.3546795457888603
