# total energy = -340872.2378959998 ev
CRYSTAL
PRIMVEC
9.19367535944271 0.00000000000000 0.00000000000000

0.00000000000000 9.19367535944271 0.00000000000000

0.00000000000000 0.00000000000000 13.45587319948871

PRIMCOORD
 96 1
Ni 0.0576783624578217 6.344408415822151 8.080090702023018 1.346734579910171 1.6173406165323498 -0.46518018188976007
Ni 8.927987545013805 1.4151824813319882 3.6691205340300757 -0.8205827434330448 0.6922476717993562 -0.02660731817488321
Ni 5.65058930116821 1.957324336341837 4.025526238858948 0.8167384299862902 -1.1779709679477905 -0.5523729749571841
Ni 3.5841544230967033 8.954217101430618 6.281175234581632 -0.8392013869754966 1.3565554226553347 -0.5663505201831988
Ni 5.877893736096113 5.3129515656591 6.966657524223737 -1.2975930851885136 -1.5561393624326811 0.8726447542356068
Ni 8.491857963064692 0.2353819982885101 1.4574862601249525 -0.6520523305273932 -1.005829440652113 -0.2274917219312082
Ni 6.929815708090158 6.663989772501039 8.77111677803713 0.2895614946787594 -0.06624704405369236 0.68572504018949
Ni 7.245544914702926 4.094780358233844 4.771614157262106 1.0284718606419772 -1.9112652732758117 -0.3469606014235186
Ni 2.5416100001896367 4.697398211179129 4.215550319328323 0.1689263627924897 0.72729797853527 -0.12723669636318732
Ni 1.70084836881297 5.317474854042231 6.297833255356824 -0.5259664599391974 1.207941546167952 1.3936533559488966
Ni 1.5124699562716042 4.036060352333322 12.109855225322256 1.5526071809097068 0.8981418700654467 0.2868052720898609
Ni 7.088893876572504 8.82777648124119 3.3358323264357206 0.18073158295753392 0.3402898742715623 0.03811120504942469
Ni 5.423542289156421 6.602327790416367 4.980543192817318 0.5062784945919667 -0.10119399244252249 0.10514140712604474
Ni 3.6693797956813037 1.5439215204152847 2.2562539395755485 0.9254050766567741 -0.09254454429764063 0.31026067489932374
Ni 8.564221383519211 2.3876251279761016 8.164862826401746 0.02010859782441698 -0.4822067983547438 0.34144712780445713
Ni 1.0467275452939053 7.571598618986943 11.813274606198078 0.784036825988211 -1.1187065258595186 -0.22139075123979293
Ni 0.8649042234378492 6.180503567662685 3.261461926603077 0.7295906312241887 0.18145406294585523 -1.458553141946075
Ni 0.03444226680838061 1.62033015812301 12.665502589752471 0.029512407636820143 0.6897153922958057 -0.08072492595489322
Ni 8.621543950732262 8.563991541629825 5.310225640850974 -2.2563034608656367 0.43979362349585543 -0.10107726435900011
Ni 8.818877003284136 4.352286017427163 6.65954095289007 -1.3640075080580056 -0.40278105082724824 -0.5997872025750897
Ni 1.1392435026098529 8.112959011572876 7.040490094035215 1.6578007814299258 0.5334298581957782 -0.019141348815141224
Ni 2.8667075622138065 7.144212222510102 4.941736688213261 0.27580712120714435 -0.048251121696904 0.057833366068700404
Ni 1.325709630631521 1.0320820201021828 1.7305871511969406 0.9450143662472693 0.8373298809843965 0.7973564259152526
Ni 2.872389253719447 3.7618957529972517 9.545677509697516 0.9403755819236773 1.9583244315471438 -0.23824664645486712
P 7.312401323487737 2.816675579732103 2.772165318801026 -0.16573870909312746 -0.813089006159161 -0.25130476519040595
P 6.602566825981329 3.2773890501700196 6.508619413378281 -0.5711160598926422 -0.32153907602662046 2.5200528795772987
P 7.348587630552785 0.5873443997117586 13.044715964948967 0.7837552901920503 1.117509420227624 -0.8162383504214201
P 5.003860192811823 5.10871406275005 9.163489980452354 -2.480907576836405 1.4480478715393772 -0.7920013322509263
P 4.10243868998821 0.2066030356346186 8.306485882436505 0.8206156535535093 -0.25193417124428874 1.613429711513718
P 3.7729833257412677 5.4352090634616905 6.173851024016275 1.4559082481240604 0.19582524406586274 -0.21943414173405432
P 6.276255698781197 8.885641475313193 5.622670866548182 0.8137412950311791 -0.611452811838476 -0.2922066456110903
P 0.7652558126104526 7.033143427882857 5.170581063800056 -0.9464223023383894 -1.5289903128217153 0.35876093649255636
Ni 5.693919094155397 6.921716079908171 12.08431611394116 0.4362259607492552 -0.1993330001088051 -0.3676896064407538
Ni 6.204618578697141 8.343738655868307 0.46843156108352363 -0.0762784601477654 -1.7337169731422657 0.7932668292269112
Ni 5.213475995932523 7.7923479632295365 9.860719948744794 -1.0727997360250752 0.6217480231168969 -0.41820484158148624
Ni 1.3320992351564722 5.699747884470244 10.085702061222333 -0.1598007463421377 0.15745358626619982 0.22879809944745758
Ni 8.157042685957252 8.869359475869038 7.882517694538624 -0.15346297704956796 -0.3713305456274508 0.38011549090893243
Ni 7.4250422366383875 8.258209891989717 10.735095496760492 0.027511060936075197 0.5467450872474454 -1.0072489467074588
Ni 7.583725077070987 3.459350277159708 0.5461107647557788 -0.6446866341909413 -1.293653126704159 -1.5705282841645016
Ni 4.948477491145195 3.219266633181903 0.7374596538755788 0.5023665611320702 0.8728992934485741 0.6974006767552055
Ni 3.2471142764999996 6.657517424895909 8.283341723542819 -0.015156910246096477 -0.1752682458501175 -0.48851551418159095
Ni 3.379521592137908 3.261741414340571 7.347391533360416 3.0941146523618257 1.367610909138548 -0.40237275964523606
Ni 6.313508472212999 1.3682211864924911 1.4317586783945595 -0.4565299624139299 0.01835304858589097 0.6068896179478257
Ni 4.04671582232529 6.361058162289327 3.0287424167612227 -0.9779522546258705 -0.32626322097516713 -0.5406762553455462
Ni 4.7639420349943755 3.7866543213219903 4.95466759291016 -1.3314216037021844 0.7746461288019304 1.8661172159842634
Ni 7.049747205972156 5.792558039404607 0.9585749064060756 0.43651906650964173 1.5543552739490651 1.3633727026874842
Ni 5.396099167563645 0.45019038937423506 11.980517677958998 0.6149006611777603 -0.010896078087213493 -1.0923606888761381
Ni 1.8411438580946313 0.06735654473611823 13.197076314688315 -0.07010884100194378 0.8251248542777726 -0.4016906459765469
Ni 7.611894499034226 1.4656097918634372 5.905729427635961 0.8168592718348705 0.3726171256493583 -0.8156835063592147
Ni 6.311936353689594 2.73904418317284 12.159413733511824 1.2601714500069459 -0.3141929200741944 0.08694185339888252
Ni 7.620582522453044 6.655991274750382 6.5328134900226855 0.27594518944690544 1.1250360676219722 -1.2833630576320607
Ni 8.549971186377235 4.054613189644619 11.510935068693424 -1.9190480025450243 0.17287840546170224 1.5974425920568425
Ni 7.848236317052814 6.0393070981746275 4.123632870292339 0.12364872190161286 2.92731124944961 -0.929265588053445
Ni 2.9626435668438282 8.905996273037283 10.412813957565088 0.6125658423969966 0.7748281629057494 -0.37569396480246914
Ni 6.480631106823879 5.07482617457887 10.650996349433886 -0.18813738850330178 1.0756387481357668 2.5860217302689397
Ni 2.011282018294266 2.5524033753152375 3.593875815650205 -1.3612464003731009 -0.613932126616904 -0.4268154660686327
P 8.976741606590519 7.290943284694593 1.5758309296026234 -0.05099294610809928 0.029253240438162523 0.3257675122856712
P 3.5925574425726827 3.7767895074295117 2.5190340104465143 2.3266223609958576 -0.26013213367404875 -0.0209730027072413
P 2.702471741733623 2.3115658499402443 10.994094208867267 0.9823408706118696 -1.6895001694157354 1.393342252466381
P 0.3897870214758442 0.9148231237099748 6.737786486977774 0.3628662169101815 0.9445811353645925 -0.0422131430329402
P 6.112286494892702 4.875829066747837 12.80131248472086 -0.5340507796092286 -1.0601460518168064 0.12389426225351567
P 0.658367382267374 3.246948790339641 0.6833135015738523 -1.186671323935266 -0.766173572554545 -0.8837460063550909
P 0.25801590818775794 3.6158909911832233 4.457218033607782 -0.09677580877016882 0.5541403512702521 0.25188249207074687
P 2.5974891603373393 8.34249750966562 2.905997654153132 0.1278406484957734 0.17810571529891261 -0.023489341371191807
Ni 6.292473342496326 0.6487995240959831 9.047918123528245 -0.5031391776320367 -0.5217117984279015 -0.40759929815149804
Ni 3.748620085466274 8.105015675875672 12.571283963719946 -0.2021187903840584 -1.0231175383085993 0.10516557549576082
Ni 5.538389684445183 1.3558281118167583 6.868295308609349 -1.7401627287676096 0.24876965747337798 0.5191337532880801
Ni 1.5490699787375475 0.08170051736896541 4.736952161607471 1.223382049092738 1.019447802766496 -0.37840853552015474
Ni 1.9184994443866301 4.617210972809886 1.6180960949581709 0.6515023715611942 0.6670583170179222 0.8477932424095658
Ni 0.7513788786968393 2.7246836619239567 10.29767236465791 -0.7788974478791167 -0.7100972983862673 -1.361796102228984
Ni 8.405722416598122 4.800689156269526 9.30937890195413 -0.20138474043151125 -1.7994976190825007 0.06692118730258152
Ni 2.372133784631436 1.5182895529108762 8.488153831175337 -0.7598905677593106 -0.8874054574845492 0.3992038749989512
Ni 4.814626768441938 8.853941681928976 4.022377404974351 -1.1485308083098025 -0.19077045525077466 0.8017707529328644
Ni 2.719663915059751 2.748991740145498 0.19446462577232648 0.11052606847672578 -1.8143488251627202 0.05938708370906546
Ni 8.042305614775396 7.514322020151769 12.843334937041215 1.1105725838984744 -0.14534009083211744 0.5196582583329824
Ni 3.6015488572854912 6.221608491160608 10.661626996501802 0.4239450864993731 -0.2176407972790574 0.4368602518991444
Ni 4.480114882628488 8.54841745520498 1.760620131199326 -1.20345882780625 -0.6170521603031244 -0.2543947169696393
Ni 4.127914365007835 4.082626319123073 12.082701704510107 -0.39290415803316847 0.7175329287287062 -0.8406363196498102
Ni 4.6152803009390375 6.050863548372993 0.7530631600622651 0.2844604260067682 -0.5303738449782737 -0.9517324016973933
Ni 5.889137601324912 4.5027497118952935 3.0036069077378893 -1.133109588658726 0.7840563663722369 -1.7553929154538028
Ni 0.5350921445785789 0.26204365745737107 10.465130568427297 -0.754390720987004 0.5710978050601971 -0.4499435674456639
Ni 1.665075777148819 2.909816706987182 6.146158753815404 -2.6951079809753455 -1.2953341139510077 -0.793454262647369
Ni 6.440224902669692 3.650707440587526 8.982508799279012 0.4603457366155943 -2.6692745648520093 -2.9456162184063848
Ni 2.3939595704476 6.9354698185690715 1.0256620764478326 -0.9361373754726136 1.693369679673471 1.8178169862169788
Ni 5.300218324987076 7.721336013084612 7.241452809704283 1.0243565529220229 0.4577466084298504 0.6259378928285284
Ni 8.662704036283639 4.445445532033394 2.135676126300596 1.3570251632029016 0.8600859437339897 3.081433714460048
Ni 5.118753556478462 2.323931343589251 10.350230769187753 -2.5508169002330328 -0.1964209686683327 -0.8110910018925257
Ni 0.38611598681855935 5.75480880749173 0.23136436206203004 -0.2618043791701491 -0.4415067495322203 -1.3238910996530944
P 1.0434454031134628 4.118067938466507 8.313711192071267 0.3757425586522174 -0.3571655669809784 0.061075270044765775
P 6.108222890288346 6.969412868793705 2.8577179862361124 -0.031397283364358826 -0.7002319755564135 -0.9753994062970297
P 1.475419443702463 7.889019461905596 9.207020195567086 -0.48327020662225156 -0.9457551010680357 0.24282500985416894
P 2.7046414491694337 6.066878931225459 12.662179076031936 -0.07245188731282362 -1.3176050095340663 -1.220064811794047
P 3.984281571492278 0.8688161323952114 0.12546241310819925 -0.2981698051730607 0.2734247370178968 0.5391256230289747
P 7.469208654102942 1.4678806297305782 10.551449988405379 1.172775025569148 0.7410410391529753 0.189083554466655
P 8.483105583916846 6.239370672372415 11.017104140097553 -0.08649782388292845 0.442659889300057 0.2899415037259974
P 3.2070574320176797 1.786064547721995 5.129378687341033 2.181799833230107 -0.9255320891529414 0.6766490460301509
