# total energy = -340872.3708645631 ev
CRYSTAL
PRIMVEC
9.25322013607479 0.00000000000000 0.00000000000000

0.00000000000000 9.25322013607479 0.00000000000000

0.00000000000000 0.00000000000000 13.54302299897070

PRIMCOORD
 96 1
Ni 6.531070856320732 7.365554012037765 7.137024457224881 2.1513374029751917 -0.2790425974253065 -1.1760745222560263
Ni 1.679542742102644 7.228957975703922 6.4886522443601855 1.605735428193254 0.7979120413084064 0.15992287374229877
Ni 8.95357315331545 6.476809973170641 6.178055879748844 -2.3964812907705246 -0.22908657722215384 0.5723283350331885
Ni 6.088174725506277 2.2403063916015915 9.737636437580141 1.0705471925454724 0.3097659946510923 1.3776379543572466
Ni -0.19270756352042967 1.2807659651182768 1.2591967088729046 0.30807832253602424 -0.3644369038314111 1.2280478299995239
Ni 9.03843443560902 4.021865886216132 9.595285823614812 0.7660694428765129 0.7937969906987684 0.3558324499918517
Ni 1.9843623213540604 6.960725629054052 2.5912403189544393 -0.08763887946590714 -0.5663821447520826 -0.7752775917383422
Ni 1.982141548510264 5.1663319180464065 11.098493649987915 2.052629153069 -1.1650570880996 -1.200769453899545
Ni 0.47865612553168624 3.8027866451756194 6.983933630593742 -1.2161724187181764 -0.7262934485301556 0.8123870949961299
Ni 1.3601956071647265 2.2749041818639024 8.738594939459817 1.5758712936439698 -0.20734610022126873 0.4043882474133681
Ni 6.876049411164133 3.534822641911041 1.767879533896754 0.49312653059104106 -0.5564731131684868 1.7134083434919007
Ni 7.686002280177397 6.421818085626134 10.287700588582082 1.0175752683341315 0.22466068024031632 -0.3669519569437809
Ni 6.841470127342188 7.212986917668954 4.509244097091828 -0.7367781501115633 -0.06285627320458853 -0.4388158329636185
Ni 5.736311774847108 7.790397110276192 9.271065942928798 -0.26595131145898715 0.8110979438710613 0.8102152841557918
Ni 5.316123046360471 3.7078393528831426 11.47385237733445 1.0650144356527014 0.5962431939775732 0.5275068078431239
Ni 2.6961385242311606 2.498887629601131 6.437513397699665 -0.5792271190355508 -0.6844394886088471 -0.668305559161462
Ni 5.2466498692303745 5.465377487903951 7.905685756495825 -0.31500050357715426 -0.3570215852039464 1.2622483871406325
Ni 6.851667175983286 2.930504085013137 7.470967621678651 -0.17838725109507342 -0.1821019809424993 1.494393548683452
Ni 6.939036080946308 0.2967119077275229 5.431145199838849 2.4961997271087846 0.11333011358442417 1.7067149906321253
Ni 3.715010598524568 3.020195548241963 10.130831672150435 -1.3866946652428762 0.23625198462234157 -0.8264003785560865
Ni 4.653777545698205 1.616065651650798 8.07640859418469 -1.1925642923809332 -0.29988884474669647 -0.6160203766045003
Ni 5.420101481551053 6.0287783051549075 10.830423234691237 -0.7365020136320413 -0.24854237195392037 0.3326423850286336
Ni 0.36956065958018974 0.9396922691918849 5.048879868948108 -0.0004759111951540191 0.09080904966377264 0.5012455601537498
Ni 8.536410227828485 5.4151139958726935 4.260499957468288 0.22547160617738587 0.6704524303011357 -1.9812563577529685
P 4.204691010581667 3.644639859036771 7.509145482829565 0.040642713222026776 -0.578441647019778 -0.043878446550505074
P 2.6486880111353783 6.4400376761654465 4.713608867398152 -1.0582601476480034 -0.7210070033202356 0.54426294425554
P 6.780010238890123 2.197547261138329 4.166443750279384 -0.4922549266193651 1.4138388297578361 0.40433888223267134
P 8.385249622927413 5.225867136700513 2.121108259854858 1.3911223619969268 -1.3737661301066664 -0.20869207272620188
P -0.09774731671969704 8.376135201047667 0.4030378848784017 0.44493120183273693 0.16867516601363208 0.8780458706465202
P 2.534364475780778 0.8742414668751146 4.567303427126829 0.8692987205815094 -0.6634988818014379 0.4919517935566495
P 5.199763802565724 8.92023380099796 7.190329482730122 0.47274642427279223 0.49685283040269274 -0.7544956219959845
P 2.9723286402379685 1.3643317965862973 1.7719962915559415 0.41775335586636436 -0.5267005098917446 -1.6527601336822246
Ni 4.372673969774497 6.907676917747866 6.129667090126557 -0.7983182756078896 0.23068066118215114 -1.3002541769604445
Ni 8.634411082781183 1.6528286954358105 9.674594248476872 -0.8292275635922365 0.035152122421100745 0.5015330094871814
Ni 3.5388385394702393 2.0467845447051034 12.647355014097363 -0.5685549840336853 -0.6379752836090369 -0.26395305008203573
Ni 1.052905418124587 0.1695819156403635 7.532792087005904 -1.856574309490835 0.3444889999545745 -1.026260454812955
Ni 8.760560233528999 3.05221169007336 3.246046295812017 0.23240869961685134 0.0992846912349516 0.5842523401642841
Ni 0.6368186421448452 6.274331009137507 0.38579358374632294 -0.5212505425207667 -0.36758521965240565 1.3167714578891774
Ni 4.2876831423983734 0.5273474954539398 10.439057361751024 0.47747956808240344 -0.2143716396094824 -0.024474588102596558
Ni 2.501700608536606 4.879121216802258 6.723420320220099 0.7591500900488602 1.4690658685519409 0.06942981265704817
Ni 0.9259882501016247 6.863992465266355 9.923799198465499 0.47150201034272987 -0.6907551464142297 -0.9806318583405629
Ni 3.4943398036126694 8.788708529324119 3.071611991507958 0.8759311382963625 0.7036150330960335 -0.6451828571010696
Ni 3.17487237681238 9.273762331289976 6.6438139416681645 0.19902395350881852 -0.027486121235410728 -1.8589785480569532
Ni 7.727539985576572 7.049861899071928 12.693171408508919 0.0033403772271426344 0.6642732980736173 -0.02940879217942032
Ni 7.0755303318581415 9.029283000848542 0.9604278102988151 0.4968664572494475 -1.2201841109807308 1.3901515134432252
Ni 5.172281738623743 2.767101469810637 5.624444969450957 0.3309670542087397 -0.2219759343193016 0.871503441542312
Ni 3.215734597138233 7.421869110068368 10.7590920109485 1.0467184655569908 -0.4051510937213216 -0.36361389370948344
Ni 1.9628948505306953 2.537057162853881 3.187594629241278 0.46211722669372024 -1.7175943565487903 3.924594086083293
Ni 7.7518204353354125 3.8976691649268194 5.634371824062727 -1.1492538025187562 -0.5138434514234183 -0.5176348001450505
Ni 7.748628074372455 5.342355925577815 8.003113837119226 -0.6838527628674416 -0.284342155261349 -0.4941395452365876
Ni 4.2031457228111915 6.552158945116616 3.3648724481074144 1.8817508087564623 -1.06512010799263 -0.38234360890850283
Ni 4.212121346388202 4.403663004165639 1.9723248072186659 -1.111137712373325 0.6730983525644149 -0.10952796622951459
Ni 4.224428129230907 7.340894180251443 0.6361033682247391 0.48795809901622417 -0.4898370612064919 0.6084950147617327
Ni 8.797184479011275 7.87283404888195 8.25141197152997 -0.7348513654024957 -0.775451141201729 -0.13187290958361803
Ni 5.934182635229365 8.536974674259618 12.333373821543267 -2.0382867683043995 -0.7254051323879314 -0.461112953798922
Ni 5.967290657042295 1.6792096261760747 12.274691749789985 0.6104089439549939 -0.9780283592794445 0.3068197675385748
P 1.7142330645667798 2.594010733077075 11.024115340839085 -0.4503055787707729 0.5828559740373898 0.2320392320925746
P 1.0764918763697409 3.6070347722151523 4.98186897370857 0.012081613754882418 0.18271827437025953 -0.7519625711614856
P 6.104182796421976 5.5296503552914915 5.86184003452068 1.1883461405345277 -0.5219694229646623 -0.5485523156595133
P 2.7192438150268257 0.13813299620615221 8.691478467612622 1.130424842737711 1.2479900774494055 3.403666217009267
P 6.996304260655707 -0.03696753995104526 10.446843946534583 -0.08644383071654145 0.5872209358743048 0.288926946418554
P 7.732416432612742 2.4068643548863187 13.694433679473038 -0.9811314236848008 0.7283187064903005 -1.9802037481187378
P 8.878585056956593 8.068724720145154 4.706431144502598 0.0888958918014598 0.8047002678748334 -0.7688164094940309
P 3.568310045751453 5.454634499272087 9.498033554174878 0.1886554657903009 0.5729348582689359 0.9039150251037981
Ni 1.3502391422483728 4.7915765006557685 3.079426335952067 -0.10884739522272223 0.5538331044424785 0.38388961323938403
Ni 9.157421593935593 8.76830517882174 10.463421090491504 -1.632602427787427 0.22839829290587763 -0.43741149641692406
Ni 0.8037985522698939 3.999176990328678 12.675470923621843 -0.3132626949504411 -0.8332299998834102 -0.1364384174671134
Ni 7.896984953558236 0.7552607858026695 3.200758260272881 0.1620013535378823 -1.768436121791006 -0.06302853711639468
Ni 5.6756106504500075 4.463929227214162 3.757633706651148 1.9322431610790596 0.3720795079783334 1.966270425867097
Ni 1.194664751320255 9.060956773533189 2.7897811124779075 -1.5228777721660742 1.7487584408564205 1.096525618887105
Ni 1.9644216318608057 0.31649714312171207 11.041247678006954 0.7612303696166567 1.7258321710775504 -0.638187913840475
Ni 7.012802752241077 0.5588547101753008 8.266715872389781 -0.2568717177552221 -0.9858586539571408 -0.7918038715281396
Ni 7.834460944785185 4.88273922589361 0.006026622304852388 -0.485896331391189 -0.9173346409438136 0.02380327306718481
Ni 3.513012801940924 4.139455808295149 4.4949839594686 -1.6809795335392341 0.9895574429649667 0.3417929411796501
Ni 8.096613925775163 0.35193975238668385 12.52236621716043 0.6031903147193677 1.1747851140206413 -1.2948980548548539
Ni 4.873865387738607 0.3428947296583049 4.871696432927833 -1.811424966647706 -0.3542057130217061 -0.24817573264312098
Ni 5.048418133261001 0.5410348587478714 1.2249338851811995 -2.0778033383417824 1.1704690031437905 -0.017503813211718244
Ni 3.899029388293645 5.027894490896251 12.707500019961495 -0.31767676485773677 0.6965635255658906 1.3838546246909198
Ni 8.519689658958736 7.36851504249616 2.370963711222314 0.5135598587447284 0.8277939164695034 0.8120225125678595
Ni 1.0457156660427962 1.6535689530504092 13.01021356629938 0.7741943859764924 -0.2834507537953312 -1.6221025566973677
Ni 2.0577218509608004 8.773015067894624 0.5641086885949156 0.3807361552120669 0.7152855274554262 0.6874358522330096
Ni 5.203224506913973 3.158290606245367 0.41729617185759266 -0.41036837625620287 -0.6739002796404201 -1.4011260101768581
Ni 6.404033396435398 5.989257801755515 2.034487015082581 -1.1830658659721949 1.0049683782033982 -0.29253214727130905
Ni 1.2467881406081922 7.678405386407578 12.093459104617855 -0.2715149215896937 0.09650455738665314 1.1882463817318698
Ni 4.6897077996667935 2.321882780730378 3.312921168714871 -0.3171751426309699 -0.7940373888443486 -1.469128089248444
Ni 7.794857162404149 3.3160950232374637 11.525356726192179 0.08526832235120155 -0.6137117830759818 0.6590603864141101
Ni 1.5197581359914956 3.2054080034145795 1.2656425020520234 0.27648974909646573 0.6950679148569706 -2.8293000256104435
Ni 3.3404680051981286 7.403242377841026 8.263451336309402 0.4008059293787484 -1.0874606804713594 0.4353451008061986
P 2.426832804040121 5.332140370496352 1.0598712422779617 0.8036178334439322 -0.7249065954849581 -0.32974295199365145
P 0.6534883183035917 5.713132458289984 8.135294236781986 0.27240863704855667 0.1917204778688698 -0.6171287791773308
P 5.695542086723079 8.088406319473298 2.724057340165754 0.2549837567038899 1.0057682483968744 -0.7478740029144088
P 5.846600906202145 5.962340184244665 13.41581366784631 -0.5104223415570113 0.018607587798858276 -1.1924683902330173
P 9.355375733299491 5.844315360817071 11.800482721878002 -1.382091105032594 -0.21836867658401746 -0.648260981805761
P 3.5647660624215614 8.687459794087369 12.536681874104753 0.530266629976448 0.7489374111819166 -0.8809486461156119
P 8.772376595702033 1.7081814585674346 7.319610848509709 -0.4522627024971437 0.47616316326382513 0.19500634770899317
P 6.761799901570993 4.41361021586181 9.80896766132288 0.02754757060096546 -0.18681944102282663 -0.14618752643407726
