# total energy = -340852.3976079876 ev
CRYSTAL
PRIMVEC
9.40722409213932 0.00000000000000 0.00000000000000
0.00000000000000 9.40722409213932 0.00000000000000
0.00000000000000 0.00000000000000 13.76842335562567
PRIMCOORD
 96 1
Ni 2.4773453988935272 0.9508351637326066 10.268917229570775 -1.984584393684937 -2.9812411666988465 0.3191500069691536
Ni 6.926811825635087 5.329662745611756 11.07960168901131 -0.434818024658135 -0.10538437637478625 0.9710455002037083
Ni 7.066678431762977 6.309302829169733 13.251832244629844 -2.5817665545370114 -0.8405075073814298 -1.174926524694512
Ni 1.2604080904515045 7.6692769782207515 10.062872684191575 -0.8712553300872479 0.1809583542563593 -1.0734329987336997
Ni 0.08080429109470785 5.887746308198319 4.121825044925148 1.4973240920666857 2.111462164046809 0.9041834482738363
Ni 3.4292623933837816 8.015801480731305 7.432801003990119 0.15032700252374756 0.7035008761156722 -2.8770672656923932
Ni 7.621460058732719 6.412763478496778 5.42712723037424 -0.3258783268319227 -1.153417961198775 -1.4491009953942398
Ni 6.238889757682831 8.882940572717892 0.36542455620786024 0.5300617130544937 -0.15584227591502195 -0.5371229907766493
Ni 5.340368166500479 7.686755600374747 2.7615602126531615 0.4032127390480281 -3.1522724916494806 1.0342884673237542
Ni 6.979115990961363 3.9935735382448043 3.095898597220612 -1.7367876416477896 0.504407502821499 -0.8815945072297268
Ni 7.909189411371111 1.907681543588143 3.803155332618029 -0.0999017559936602 0.10445029459629109 1.4765380085592699
Ni 0.6658103879883338 3.914044866721723 5.645879994627407 0.08332559680253392 -0.408333090993729 0.711646130930626
Ni 4.569464975824649 1.588306289482558 10.368435311327993 -0.3153828266172375 -1.7981166795745742 -2.033971171648181
Ni 7.062228814820651 4.7010908537464555 8.906545179127368 -0.6145844154889222 0.855583684988262 -0.5334365430639975
Ni 4.005981666673826 5.524542797572029 1.9283642662295726 1.1844084960430183 0.24468905964610116 -0.26177558281474267
Ni 7.475977339889042 9.096672701533176 8.02324541706632 1.0745331737764139 -0.3831630194860046 -0.5043316552782411
Ni 2.002073628998907 6.914328439414231 -0.043653282154685016 0.446296971832012 1.1528281501335758 -0.0563737508040384
Ni 1.9453951045221427 4.5055993322275105 13.100145461571657 -3.335151974187953 -1.575693373305209 0.19914710935024413
Ni 1.3190150958440758 0.28154598431663674 13.714644146363556 0.5271447965180147 -0.9505072710410404 -0.3788615638971733
Ni 3.4170141877624127 0.6991853372229667 5.8888789379654565 2.860875229313563 -2.2363460439071035 -2.7335277184041242
Ni 5.4892751148727115 7.353372989763618 6.363558993471763 1.5546393808483872 0.807162613372397 -0.46445487368796146
Ni 9.102947319927534 2.7453478028468115 12.257214919774034 0.0018550509308677729 0.5043676507224991 0.0696324155861575
Ni 5.116683194714836 2.672470038677269 1.0836425889862444 -2.317087682032545 -0.7696090805986552 0.7407535898195436
Ni 4.554131200737988 0.1915988122362082 2.1710461861195114 -2.1274138022800586 2.743293796651953 0.09585458250748008
P 4.349834517574189 8.204435135969161 4.946443484524187 -1.1176150925675528 0.8377332870704025 -1.627539925662855
P 7.465610579063581 6.586100987543893 7.648455028664424 -0.6229165895037013 0.6739074787292717 0.5491644953222156
P 9.19168566372659 4.865397427773205 12.240058965402536 -0.486334190259556 1.3869070383639985 -0.09594611378002185
P 1.5726244471086548 5.76406012731525 8.75046616319313 0.14985211976985804 0.20826372693953166 -0.17700605447683065
P 6.306640584783521 5.377686624027338 1.3409724973347341 -1.755413741389409 -0.3379414286440438 1.3608162548142178
P 1.7012588278049663 2.8053282629403964 10.292584864380913 -0.5958693555779222 2.5757136634747124 -0.409858783609636
P 7.421641214183184 8.28091586692287 12.259389869958106 -0.560506659807912 0.8485925983824095 0.06597604978049283
P -0.0016349755276450855 1.5920597718503968 2.4122276537847123 1.3656841244294804 -0.6604652371814368 0.11142929701728552
Ni 3.7721745218861904 9.149315526922715 0.13538688606882934 0.006316429136331058 2.6557801299100006 -3.853355759462596
Ni 6.20576692205085 4.049057345276166 13.501150961037354 2.171235427450699 -0.04212726818735325 -1.1809146239571469
Ni 2.2387217554283647 6.0269732230956 11.51144783157155 0.27243691918333085 -0.2877054153066271 -1.2833926253184156
Ni 1.4746576165856635 -0.0017657359409607742 7.06167284788346 -1.5521852628809396 -0.6825908654358824 -0.44688009802899165
Ni 3.180610649156423 5.634306286965372 6.959868810699212 1.8677375251965058 -0.12864360401304295 2.105269662082852
Ni 9.2395590265585 4.0999127981095915 2.9682378642061837 0.9976682449975592 -3.2342238338123073 0.12284602349465941
Ni 4.03572730889715 4.5119774300856434 13.42222999618335 1.3036606315388322 0.16380138286109852 0.10432585320328483
Ni 6.124196882924206 5.0716696279727085 6.495928042087955 -0.5339134827004158 -2.618757015718432 -0.5684439123771178
Ni 9.204310158307141 5.638059769333211 10.043844692248147 -0.3969248491567874 0.5107606987330365 1.9126544403138543
Ni 1.9409266731318584 2.1507830256675695 12.261923235375795 1.0900662364150067 -0.4936692904683885 1.5320470973701679
Ni 4.11673291458502 3.154900706020324 6.321743882882682 -0.45927950013460905 0.5383470929917373 -0.7915871275316432
Ni 4.498054738595915 3.4732505727121388 3.2970833706919778 -1.0675644557680646 3.2727741832816797 -1.7865598279749102
Ni 0.0833997441906646 6.313460822168691 6.990889131771764 1.4531535681970587 0.8389733301250906 -0.8407813298681068
Ni 0.44402755689135437 2.0016032677999296 8.8704722380554 -1.3757813607644822 -0.12915602487308725 -1.0617653325877845
Ni 2.1546117658272443 3.472676732049386 7.716265121276185 -5.019231743919066 1.703120331302331 -0.628670204158027
Ni 8.42052847800331 3.941702105221588 0.781410119138586 -0.1524551046103439 -0.4968152922965379 -0.7543953489726942
Ni 9.158675714782364 0.6031601577293536 10.817134495647588 1.8003561104280543 1.9243213351288215 1.4404965415546804
Ni 1.4172453286384947 2.323499657932033 0.9775196952729867 -0.8656564958432317 0.5184123017410233 0.15723272850464534
Ni 5.098593103002169 5.374384688410518 4.198983096005384 0.2763781632192659 1.582190036773146 0.8283395045603283
Ni 2.700898669543457 2.1921748111775714 3.3808086048323345 -1.4187468085824146 -1.1929234754925648 -0.2248272877251676
Ni 7.357305209387069 1.3588640966214325 12.604715892133665 -0.3945838597284366 -1.3128680090697131 0.6967095642254517
Ni 6.648132222465018 0.20631453270741193 2.6321920684864453 2.988497076930311 0.6080764391670753 -0.12071663585648242
Ni 2.2183268938407092 9.270170133387941 2.616867700623765 -1.2300648604295525 0.38230735635392865 -0.5030759284942691
Ni 5.34884407530605 1.7338642661180725 3.7666684736909626 0.6170552456269179 -1.165898867274605 0.9983287613996935
P 5.996221007906464 2.386687981402643 5.898956897014744 0.8023615924393278 -0.5665420673687146 0.0064444700737630945
P 1.9305599123063986 2.0121111369850824 6.02179924990685 -2.718834120947692 1.4662168291389202 -1.276017415900267
P 4.15753204498431 1.526792451880307 12.706492648368373 0.3171283485534344 0.785620368425247 -0.9206277098727886
P 1.0349921894536245 8.55375358400164 11.92860365316533 -0.8264147767337895 -0.09315620973971053 1.6349331328031325
P 7.326543586973954 8.010994389277757 3.8358002812718497 0.22823322808292307 -0.9100283370903874 0.2606458400856737
P 3.3999306690155575 7.791363931027298 1.4466344370729942 -0.13508524587332865 -2.6437221703042013 2.512671756621879
P 7.584611962404838 2.774613676647179 9.531893215334879 0.3684892195239138 -1.1814458138702686 -0.019406172440753676
P 2.754538660674828 3.8410448086404463 1.4505036282957813 0.7009202598726896 0.024031587027907 0.8603307127549441
Ni 0.7630528622649002 0.09601577226963366 4.580960603527654 0.23925169068061375 0.5223286060762939 -0.3495245054959529
Ni 6.127235416269601 0.2569752560044607 5.250725788476988 -0.9550498961064005 -0.5811397626772314 0.15893197058393918
Ni 2.4304880162514086 6.831958786249325 3.0948111221285766 -0.8520792713794293 -0.27733847025000624 1.6981971829691012
Ni 2.6163371331913186 4.389890477279096 4.406390748139219 0.3420125133896239 0.7433066952587004 -0.24186804525753827
Ni 7.950204907921932 6.595141329788237 1.5626198644064078 0.9952349529657183 0.9315189028639959 2.2542254952906857
Ni 3.4445303179025846 3.8396055033715757 11.15107307319591 0.3633171884046711 0.27134111501599073 -0.5964992758524371
Ni 6.928872007686608 0.682939061410291 10.145207530627754 -1.4090331808390764 2.565121746891479 0.06810620874961819
Ni 5.756619013147429 8.048482176836249 9.382657014123362 -0.24590262033822816 1.7944767688291419 0.9335930117842051
Ni 3.351078954889775 7.011232253627533 9.354583035601204 0.4857253530309634 -1.1085254715614588 2.154674694878541
Ni 7.804280049551215 3.1210346996939586 7.092280191823312 -1.2692618423439883 -0.8055446181529999 -0.5991166588706263
Ni 3.071195227050324 8.241405526208776 11.635997595615942 1.3929810124722204 0.21858259236703645 -0.060086937989567483
Ni 9.276162535062912 4.39104756582858 8.185781551540119 1.2441514204296058 -1.1604841240169368 -0.23203280433467136
Ni 8.744870746370095 9.31598331416833 1.0929068231613013 -0.5888042212010247 -0.18694722484994256 0.3576875009227195
Ni 0.9776175304023739 5.292146736381327 1.3246631931213952 0.09598365188617664 -0.20444435319344142 0.5435242663173027
Ni 8.121124760406301 8.221509247492037 10.127322516397841 -0.11630102328729003 -3.618469544839529 0.13252262735247497
Ni 2.9709518483242827 1.4816189623305276 7.946790085617357 1.2107463626065986 -0.4303515042463492 1.748289214529486
Ni 8.85977058005627 1.261188890041807 6.157720466297716 0.5092532609495745 0.688412357213666 0.39285839239689757
Ni 5.533827727639842 0.9525943146167817 7.613607848876992 -0.27240118084938897 0.2522738139718946 0.1827128750536208
Ni 9.022346224870784 7.120196128982613 13.206450855430116 3.2317620025353757 0.8587859939756436 -0.3126931956002163
Ni 5.6766105732013905 2.793493975174128 11.612329020083404 1.9081706935108877 1.7763571764102957 1.4128862360365795
Ni 5.411185748618501 8.994594914131122 11.73104066092609 -0.1111441616766989 0.4756587128235809 0.3317311860682739
Ni 7.926282337341947 8.586434280106584 5.8434288760306785 2.222426605612534 -0.34227682279460403 0.080368571056739
Ni 4.632389897023831 6.90478010707499 13.503670215619076 0.18248404687226638 -0.30973874095758264 -0.6400830739806589
Ni 5.301140042505772 6.300168414685593 8.229069833404397 -0.8728735824169613 -2.7723860860322187 1.619112106610476
P 4.634694666898819 5.825479892677705 11.494498836127603 -0.1986999945104965 -0.09101653768888841 -0.15449707474103713
P 2.0032401247723706 6.176886744433643 5.501600459730713 -2.9416919436513145 0.6358374113304275 -3.1718427004719247
P 0.34745958057412135 9.14714245818344 8.835499942189042 -1.1546832010644437 0.42992958621758215 -0.6051816341177836
P 3.869172408339289 9.291919635228652 9.02156636600288 1.6884146496610406 -0.8478300091847721 0.9995878306177753
P 6.975964570928215 1.8320662772405527 1.0108748893372628 1.4527797297974077 -0.7427451663282757 -0.4740018939464482
P 0.5139994295736151 7.264907455459968 2.12317376401 0.300387895870302 1.1162272110810905 0.039081796492810114
P 8.052941201002552 4.052236986981253 5.015671245789666 -0.576242325375614 0.7574302791442762 -0.14544447762046564
P 3.9005549075350543 4.046752575401177 8.293974034528876 4.637842271393716 0.712207916971367 2.223625511016641
