# total energy = -381174.5347954417 ev
CRYSTAL
PRIMVEC
9.17421468244534 0.00000000000000 0.00000000000000
0.00000000000000 9.17421468244534 0.00000000000000
0.00000000000000 0.00000000000000 13.42739053158901
PRIMCOORD
 96 1
Ni 1.673422605805343 2.9452898405621957 10.067266543779372 -0.2624481834017351 0.3574375896954425 1.5682544005286603
Ni 5.1700276958029505 1.4301499584648627 4.9514979051158345 -1.2216609526365736 -0.6710484120139217 -0.6344469587408041
Ni 3.410037201461771 1.202858792878243 6.374236933063608 -2.399966678215964 1.5879534216194844 -0.6794392071807783
Ni 2.527312625461231 4.7632613708875295 8.58341899010583 0.28031323660761404 2.24603653172199 0.7851359725896607
Ni 5.907818030272211 8.3502966937484 5.5271972994155325 -0.7387183045570698 1.1967891290955581 0.6062504417019301
Ni 4.794444526158121 0.08752659395677681 7.437458675894316 1.9258362291114508 -0.10643132958206186 1.8458332689242467
Ni 8.123941298046333 7.955209143960799 9.434031062901413 1.6338612398951926 1.3671339695021294 0.8676825251343251
Ni 0.13163346527022957 0.6512664821632869 0.7034209744839074 0.13001503043927287 -0.3038791968530121 -0.8941471470837569
Ni 5.279457727008488 3.933499535509858 12.951121256577661 -0.42573148897583457 1.0645845472041342 -0.35775280694301614
Ni 1.1722719615536905 5.641710762905693 6.656870630528522 0.14308497624935357 -0.5394799210445999 -0.45070769930519794
Ni 1.1166028276372582 1.8349805241092934 3.214719091018882 0.46410983164371683 -1.3395185217777061 -2.257897544825634
Ni 8.22000449864603 5.9902483480439885 2.421119257150505 0.7699073285653644 0.9859393865964053 -0.9437157020405038
Ni 8.232068590785138 0.16884499692455399 11.740104752117597 0.19648370358546807 -0.31822055317634873 0.14169966586605273
Ni 7.5060212509455795 8.875547999634604 7.036328070979698 -0.752065415287937 -0.5153673442671124 1.5283256826545226
Ni 7.1430067552403536 2.12888566157581 12.94973778502285 0.21914694951093872 -0.2625134894220318 0.03563986069079668
Ni 5.995927186853197 3.40348681226989 10.206347636424908 -0.4084721876747546 -0.374066199391059 -0.3102015395266141
Ni 3.489504247932459 7.561616991145576 8.081462849816297 -0.8638297270471382 -1.7630584024188605 0.39511093587650015
Ni -0.029686840876760556 1.1820241516250762 6.642167116862098 0.8907314365339885 2.2241176201617114 -0.9567169993961782
Ni 7.557259239232209 6.860606082825123 12.173299236900036 1.3877932976236937 0.22839237936860665 -2.063975174209439
Ni 0.5681260801849949 6.613397697440782 10.87222497268762 -1.5455466745184994 -1.9069285935736708 0.00010104435423853566
Ni 5.1603488994480005 6.166549229136948 12.041401554250639 0.3981142414791982 0.1270970854615295 -1.5574112871665693
Ni 7.419535930340733 7.0899247498282785 4.496954105643724 1.9575646705629834 -0.20961921252616156 -1.0165522263862556
Ni 2.8996206005101195 6.48814214612881 10.565396119178244 0.7866655218603097 0.1376874593828661 -1.22963137243656
Ni 4.576822982711898 2.1180233915433355 0.40592596686223253 -0.24969602594238932 -1.4709512585001119 0.8664262841297207
P 1.0044480547090473 2.771814617552008 1.0526576347712524 -0.28960006122617865 0.574110880854908 0.910665199343438
Ni 3.7090432022205646 1.472048596335058 2.658958934631837 1.1726259015857934 -2.207150396179754 -1.8934773531647713
P 1.0640162298111229 8.411855673408791 12.351131294402133 -0.9522191115258246 0.15393220337650262 1.0307963950100956
Ni 7.488874643943303 7.8665495345065475 0.7690551402493885 -0.20313874700814044 2.5979063975216676 1.1256307637831773
P 0.2505202768384995 1.069685894405776 8.759640055532167 1.009052832685417 -0.966000224470317 1.4054742598432246
P 2.8194746621624014 3.33878107701732 6.503153913404264 2.4139272541611136 1.2131997092430977 -2.7258290642082863
P 4.596923686800708 6.851670397849085 4.93153114455952 0.8015612080252195 -2.0733856688900616 -0.5651297604022203
Ni 7.279519067810642 5.710948560148165 9.83038006719025 -1.2516616127637217 -0.04207944566855334 -0.06008822354114813
Ni 6.394739467749905 5.878396324196075 6.163507977012147 -1.4163525973186253 -0.4741669587694027 0.3931936642491293
Ni 6.453481963542079 0.036703280168007654 3.1839698760967154 -0.47163313660395545 0.6258152512077351 -0.4045682246346581
Ni 0.9494945095278626 2.316415781283422 12.325484777615154 -0.2248368008068644 -0.04605822781064326 1.072229979564534
Ni 4.327119210968744 3.3190840383689055 8.369547865569466 -0.2751643454168229 -2.0086728020927085 -1.2900530680577265
Ni 0.057706726968976656 4.781811632716638 8.94940960101252 0.30614356740715665 -0.3876639926801517 0.3891670595882395
Ni 2.803860148990719 3.671887633275022 12.99347034838248 -0.3096708638341247 -0.5725995864167042 0.524470077899329
Ni 8.058189702334555 6.626984709195931 7.594075362239238 1.4290625886861261 -1.251676268051741 -0.7233698471254575
Ni -0.03157672907497826 3.8118769731614495 2.8279158569739553 1.010968047430259 0.04574506744559864 -0.16665582159075812
Ni 7.504103840103698 3.827197911467389 1.1857231949334324 -0.4058594326422559 -0.17775655948961 -0.22642985632559715
Ni 3.8335648163681806 5.861451549913997 0.5528445910016394 0.6743008575129484 0.057908442281009956 0.9008047616095906
Ni 6.3900147472543605 1.823815504996522 7.012360435456184 0.45459135063032025 -0.14322690114385656 0.7204269624470496
Ni 5.587115012092133 8.292517490484443 12.557322683934963 0.3546736537970602 1.3133279794252672 0.9542970771007759
Ni 6.604177611813555 5.875726627760728 0.5128211625863744 -0.6042210699767272 -0.47381446052599036 0.03205214333953835
Ni 3.6141267784401747 3.7057771818391787 2.2385872495321597 -0.5930745664416044 1.2255520601608636 -0.9532131000079777
Ni 4.920571627852768 5.459520036068774 8.545298293789159 1.5876037515895496 0.741778174429316 1.2035017652290434
Ni 7.125750057663425 2.253196268788674 4.644212175721646 3.1333322031015522 0.5447226575007781 1.1316492020631157
Ni 2.973940912615758 1.1267678573635942 11.757640345816982 -0.4043391393429875 1.0375895066725291 -1.255591286835431
Ni 2.2426459220510506 4.978204043683853 4.416349456568284 0.7542297699291075 -0.7502211629903467 0.1051393502435157
Ni 6.031724972044679 2.862520076851904 2.8783355053223287 -2.3249884249368606 -0.24414321444496018 -1.3547507653464281
Ni 1.406113516332191 3.0121239935913993 7.8055703652059965 -3.1787725948225383 -1.9893144521707546 -0.13372281830816327
Ni 5.9079923403487475 6.918412808732744 2.6341179138827395 0.38911897995912337 -0.8606055636828855 0.053087366743282766
Ni 3.804253200866697 5.427511201488281 6.573459589220874 -0.46299294443045425 -0.32761382146579066 -1.507385590067746
Ni 8.691265551879269 8.586661157529374 2.69546772145129 0.6913048482701126 -0.08899127972874352 1.2682100040407063
Ni 0.696904529885878 7.353224707541132 0.9213012307805672 0.28313605076838977 0.17013169595450053 -0.08460394929432527
P 6.796349884085721 4.260275883724987 7.7954457020237005 -2.5069263694976693 0.9273763414505319 2.1374429043812864
Ni 5.495749009344316 3.56026496479097 5.839760037021444 -0.528509023855393 1.011285835780994 0.6152606156203403
P 6.243419972888726 7.737110541357744 10.616137782457477 0.19226375196684953 0.12078014210456617 -0.648314974972148
Ni 1.9115760414244372 0.2730943491711912 4.799513279699458 -1.0065107829898536 1.3025519718556857 -0.04753275547364072
P 0.19680708546507705 4.41487974739666 11.340250280447503 0.2347628016713247 0.27494631586874585 -0.2803790568485429
P 6.0709447392649745 0.6861156535698392 0.7338628532184996 0.9679203243111654 -1.2366638538033088 0.8720778259885432
P 8.008392065732975 0.4197964618471129 4.9928002190399905 0.005586492948841991 -2.23578040121162 -1.3450661910688124
Ni 1.3703616022134804 8.554267005937593 10.224971291970451 0.5068773045182302 2.0154348034068903 -1.6156858545377464
Ni 7.886595193308031 2.5823946096461783 8.792362644004996 -0.006233639614537652 0.6530671449451527 -2.1186388843009065
Ni 1.0701262567043899 6.780524363979287 3.6077653780681156 -0.4612571926862701 1.2979643524850033 -0.3982571948149657
Ni 3.176168124039607 8.089382031819701 12.407513264789447 -0.044497311081426585 -0.6789319285270565 0.9054872546869245
Ni 5.305842768067101 1.2554820875625963 11.613054724438772 0.7096699810408617 0.7790350018982454 0.6474703675836656
Ni 6.644314800489296 0.7218648154241836 9.655085597433912 -0.24844158470999797 -0.46696452748369255 -0.23945892159541343
Ni 1.8866130036217654 5.910414332991123 12.730173142933992 1.3808474624334799 0.6674802350466892 -0.6148140150012251
Ni 9.195223505784584 5.074625038651174 0.030640959190423863 -1.762506129459816 -0.8527837536456215 0.4443609311515637
Ni 4.492924790611408 8.318902531543054 1.342396761408591 -0.28909432523435374 1.0770340858213967 -0.1944155082025297
Ni 7.1331444745943156 4.522640071553287 11.883549101205231 2.2208242941224206 -0.1498068683542194 0.33638591123146583
Ni 2.486716726057768 1.1603638310620081 0.561880274916322 -0.2715545165783775 -0.2124947343017437 0.7263718671765749
Ni 3.979599963645994 8.733026576531149 10.17136910859314 1.3003685910511218 -0.6951000536464869 0.0051887432897910635
Ni 2.139206652949572 8.77378761179659 2.4739159444899372 -0.3771458667576473 -0.3683565506007914 -0.5138527073947989
Ni 5.069230600493155 4.842251358201387 3.957548821542906 -1.7172423725260104 1.1845308805534955 0.03673412219623996
Ni 0.7116456578319762 3.063261065517931 5.012659641286019 0.7511683573949643 0.497219469713492 1.2489701819744878
Ni 1.6938719300472227 5.25487083200255 1.8163495291921063 0.30099364777510096 -0.23383103388567472 -0.3812372632182015
Ni 2.6928429786672603 7.4673152397403335 5.434547824051548 -0.9616352626334019 -1.0894000635859173 1.1175189333093207
Ni 3.1180678232662444 2.6764670056875586 4.23807336708175 -0.5143700133508496 1.2937294884680492 3.3254987673689054
Ni 3.594218732857007 6.675718136909195 2.8901381323466344 -1.6546331823352214 -0.7240393623886562 0.37673500447247377
Ni 7.314848968059849 4.595272328180906 4.07824754048568 0.4745701077450924 0.09232702897019583 0.856983650659582
Ni 6.025376415572997 7.5324521630769645 8.460745980190936 -0.844328680899733 -0.12900818644131332 -0.09359561126997429
Ni 0.20210335952736386 7.975768558777333 5.8264803614538705 -0.3089478696251711 -0.8667340451781266 -1.2182213308274052
Ni 4.072452189151631 8.77362247593461 3.961389147755401 0.3659101459428279 -0.2237037156436857 -0.2104262818084892
Ni 7.972952074909115 1.7462842177968234 2.315620376881551 0.2641057736098161 -0.41667940607589526 -0.11201550853805868
Ni 8.247582187596722 3.79789547018046 6.498332863655898 0.8549182834901212 0.2522969539003462 -0.8150335314800415
P 5.477831768319466 4.62567567521437 1.7248156383179438 -0.5682577645082406 0.1613395515841673 0.7026781231040609
Ni 2.673577128102905 1.0807316487293397 8.88973775728598 0.05142694832172434 0.5772216585697478 -0.13216370135115948
P 9.17039808120023 5.377007150366007 4.880614253782295 -0.4936528354081563 -0.12638977498185974 -0.5541668336328133
Ni 8.441515909063344 2.5345877776029138 10.871057095174839 -1.0541846920270488 -0.3386379404904361 0.45814101565479165
P 1.1863085098220065 6.656498157417612 8.511797731922112 0.17915935337440758 1.4130654419269213 1.4604650142568072
P 3.7744094809210553 4.758077939664263 11.405655090849123 -0.6531309083035527 -1.1208935062085084 -0.23505796431424036
P 4.622721578127836 1.621028666484851 9.646801281691241 0.09011742291338673 0.07922828680470873 -0.24938235135671244
Ni 1.5954784789506944 8.79122779366461 7.400385674879764 0.0089698075987781 -0.4703810093644093 0.5801534875045621
