# total energy = -340877.2395770659 ev
CRYSTAL
PRIMVEC
9.15889115526704 0.00000000000000 0.00000000000000

0.00000000000000 9.15889115526704 0.00000000000000

0.00000000000000 0.00000000000000 13.40496300063640

PRIMCOORD
 96 1
Ni 3.8305322129339 5.515795664893407 4.133446968267739 -1.460374254315214 0.305370436686558 0.36527379791040965
Ni 8.480318082136046 7.462985086533505 5.899149297817173 0.6790023767536758 -2.0084154346662633 0.15722475808484537
Ni 3.2139556593673055 5.686837957493766 12.44341150641941 -0.12577528132631244 0.8590652157789592 0.4801766552985924
Ni 4.3600626648205045 3.058382733953133 6.955808740325599 2.166713885431262 -1.0364371382356408 0.884575958455554
Ni 0.9802211685815678 7.325290316683235 0.24600415327060735 -0.3475385854141757 -0.5783179769577201 -0.32646479546301194
Ni 1.5484204589880495 5.085410209922405 0.8160040816811175 -1.4297909822117183 0.13314534853813845 0.6340530657364951
Ni 0.4896004340526131 1.7592214981575196 0.4565487434873165 -1.6343505208267852 0.21645808982486592 1.3771939248412925
Ni 1.1348782048787383 7.2289387815744925 9.15604550254606 1.4539560094936959 1.2336482069054366 2.199501364274928
Ni 1.506097222891329 5.0352744396576465 10.632039281939726 0.16293697797827422 0.6349789199848741 -0.5510452572846961
Ni 7.590907319505351 1.2178852355527436 12.191921177337955 -2.429523565937474 -0.9490759379111524 0.5477254488828438
Ni 3.1264974075846648 4.641240623740504 8.673587171827839 -0.15608524516376343 0.4283064487918624 0.5857284104891783
Ni 2.0899398994162266 2.655199185757128 9.850797771694468 -1.910028572655233 0.7626902419916349 0.2532490334009703
Ni 2.158704854320831 3.2098066816672812 2.5138060556523985 -1.0648485994987982 0.08949290195551039 0.6191252407820692
Ni 8.41994267154319 6.569984038564158 3.339551533981963 -0.11333088491537256 1.609274551694764 0.5979588911170992
Ni 8.662167866317041 3.014420056336976 6.8567058743093785 1.4145435691343444 0.4103452363277514 -0.19035522209022704
Ni 8.833851281299303 8.546207145213259 1.8226193428364854 -1.4279120200214506 0.6580586846224731 0.48767116390342463
Ni 8.31582439672226 6.358889914877246 8.28615691644429 -0.8574801306800265 0.709322625003772 0.43753825180277545
Ni 6.266211095127686 0.5227510406425461 1.1259977440002746 -0.13564728902438575 -0.13559818095400517 0.6158625108703975
Ni 7.4658792961432345 4.444663342558095 3.726579714043147 -0.20322333630214678 0.21207744425866704 0.5114631241166998
Ni 8.911079051645018 1.7623629978288409 3.193209854978065 0.16661751215365497 -1.9943203900257784 0.4569529088839614
Ni 4.862464481061472 2.202191269596146 13.205228840271264 0.24040714444129566 -0.5599019363443777 -0.9143935560376187
Ni 0.5371625558985924 1.7365166069470088 11.584515421499914 1.0474735985554604 -1.1883438265416824 -2.6408114244153102
Ni 4.178496806265778 2.9086531811054397 4.109773982260555 -0.3492049173730051 -0.26301434031785026 0.8896369179182292
Ni 6.228137584533862 3.0156656655361007 11.000608632736828 -0.1517673345146999 -0.015749292414456748 -0.23049399909264176
P 0.9333184868998309 5.399459429251652 2.9353788255395945 0.2960267906881289 -2.3859716494884524 -1.168815783811084
P 6.987024989100421 6.909220208610995 10.310668445009155 0.08331659794146941 -0.3561204135459157 0.23895421404485298
P 5.132349527168822 3.536577600831704 9.034663633758734 0.9194223767107779 0.14925176718169778 -1.2158307191080413
P 0.254344239570039 8.466552268707487 7.659408498344257 0.8834361884241559 -0.4986564592703348 -0.1279064687367023
P 7.500197661357348 2.258060505733345 1.158482499202146 0.8775380777721662 -1.306219393404944 -0.7342399570707419
P 0.11118985469331263 9.02085752120903 12.734152263610044 -0.5136657881949734 -0.7918455233993524 -0.49591412063850726
P 3.2651904965724685 6.728506126935081 6.2142865934174205 0.06361089198242594 -0.11045639158105493 -0.3061299405604018
P 6.974046840312485 5.868825125042313 5.68442825322693 0.28795352676169117 -0.9177282768378066 0.592874020395024
Ni 0.23471581990354218 1.3781291954636337 8.630825224844074 0.36217587571137627 -0.9549118278666393 -0.659866170144857
Ni 6.86005528081026 5.834012179705019 12.283624575177907 0.5442855699633593 -1.4703501345810033 -1.7969882223970859
Ni 7.001413607128542 2.2006525758795803 7.994813504214671 -1.7256624782689056 0.2938729775699197 0.5473151008183026
Ni 8.075348550161884 4.872026363442986 10.298590615223233 -0.3855042660246716 -1.4390225281123155 -0.6222231629811026
Ni 7.3953558341339845 9.087241164409424 7.287742526442569 -0.38382842098414544 0.11569527138249107 0.890360683458131
Ni 7.27327697372862 7.954377915588093 13.248942396047596 0.44482270127933066 0.7912695962912243 -0.6152161355356501
Ni 0.10431152742461816 0.6099079649056931 5.905100745299461 0.5102567625134243 1.4806396894324694 -0.32907009429634293
Ni 5.92985997579941 3.8367602589295218 5.62226960652327 1.6119456707690238 0.31901450983255386 -1.0736363729937572
Ni 3.505968586541455 1.1153239722307184 11.383695741927546 -0.8534172734645624 -0.024132631382145532 1.0187458916034648
Ni 4.7693826701004305 7.397050229000441 11.593148592316787 0.7833007191531349 -0.7240313919688562 0.08481555108449909
Ni 6.345490457095488 0.8154307350938735 9.718893252841891 -0.5042851183110219 -0.6682001439318492 0.43832012427412254
Ni 3.536467694137664 0.9304700717459509 5.7354744172739895 -0.21602665871440213 0.9466968961560148 1.0240459636601396
Ni 2.840941498685389 4.531764397585105 6.20425943936447 -1.5295528701934045 0.26784158650316453 -0.9376643536401014
Ni 1.88017381494897 9.301586694461697 1.5560617218912078 0.20102247199608608 -1.2246544880472585 -0.9470954171460141
Ni 3.7568031390151377 8.75718220331496 13.38929232844806 0.17883359460387266 0.5136668166362379 -0.537434608479797
Ni 0.322924184873009 3.593573380582817 4.736885092450922 1.0365356114867181 -0.2177431271848766 -0.8115661417567314
Ni 2.8258568049283452 8.786051028282904 7.662625100923174 -0.8761949334807104 -0.03146593181876516 0.374684035480716
Ni 2.0750841779384337 7.334769769044219 3.024400500044961 -0.11584799491027145 0.01316199130325475 0.1805346364553794
Ni 3.627287258979707 4.310467269134778 1.108476785192002 2.7047555313674385 -0.22575417041481122 -0.2393059409573169
Ni 2.5454115573019473 0.9283452089945033 3.4724085775162217 -0.6448424430425153 -0.18642554801851766 2.6983694253354367
Ni 4.091331639000578 1.751491394010012 1.9958112271944506 0.658548222664382 -0.3809459572300278 -0.6418926163855719
Ni 5.968107505325466 6.440715448590317 3.739515731931701 -0.08637081138676093 0.750025759150089 0.5166433827660586
Ni 6.998794164253913 4.58382353499557 7.785897364847993 -0.8609140960622398 0.12446890381006306 0.18914217561873234
Ni 5.352245345270135 6.436355816393382 0.4008443673911783 -1.659599782311877 -0.014924225410000104 1.5489058207987196
P 5.320949414142134 4.437977352003971 3.058999127328876 -0.3893274964255037 -0.209920031596032 -0.16028179974361428
P 0.11755162050001727 5.133924856450068 12.39382710140309 1.3948031532826237 1.9318017026662666 0.2793125632572416
P 0.4210662832054933 8.781737190541818 3.9203488791928245 0.3552403249338075 -0.15934823218575137 -0.7529491034444711
P 8.163447924326428 2.2295946719768835 10.084232262723322 -1.6539754941465645 0.8644367645035177 0.7960845011813644
P 5.272334019811601 0.023651920557492156 7.790736922942238 -1.2254399600630315 1.0041775068709868 -0.11949664740645226
P 2.2350167355495425 2.5756358981630547 5.126768098889804 -0.007124526859923214 0.2863573859191649 -0.12782959275217987
P 6.728872482581882 7.500261773595538 2.033345279098361 0.5019217602851679 0.27261483952209176 -1.3606077383478377
P 0.8114127295375803 4.221497800309081 8.107965193396604 0.63964135845755 0.2952444039961496 0.7743306544440406
Ni 5.1957015773919375 5.230505363838061 10.30808105825362 0.2935392483795848 1.465990829171043 -0.24996162089895016
Ni 1.1397965294370456 6.2100029800171965 7.167593444406731 1.7920594176369007 -0.5368753935422174 -0.5641198310804671
Ni 4.52171709397158 8.20360966210702 2.136108038026127 -0.10929733827594725 -0.6289057172076008 0.618191159003574
Ni 4.123360281422182 8.472139192321206 9.623329382373772 -0.1890989810856227 0.704719836124438 0.2715203209063324
Ni 8.36108763688456 8.707907368820186 10.29040073473899 -0.16605161234785595 2.4891109385828036 -1.434481445708852
Ni 1.6706092260874545 3.4311129690087787 12.458224181108704 0.6115721110251597 0.5593681753280948 0.8306779228855178
Ni 6.2598090301998335 3.9680346460695994 1.1781906012218224 -0.34676082670788666 1.1138168018673849 -0.6830760326024171
Ni 6.422544208508973 2.3774008576788694 3.0338918589644654 -0.40395861607511724 -0.8948917385592654 1.1746575873038414
Ni 4.83387042282863 5.514449307891412 7.1407432390526635 0.28058885886650387 -0.27675817226650395 0.14345778620774002
Ni 2.3537526006778453 2.493425691020842 7.483789507826233 -2.7956154888738047 -0.8485473469667709 -0.571359543362016
Ni 7.9782826215418785 5.87084923999089 0.9928558589506278 0.6803241808888929 -0.32142234794309804 0.29411980347340316
Ni 5.650156598357785 7.531402003573648 6.211994122957561 1.141215505595312 0.6099875401468592 -0.08227710093336153
Ni 2.12459714360363 7.843079070089857 11.601070117289748 0.24245142856483407 0.6645016120343394 -1.2192651987108873
Ni 7.3892651715059126 -0.4519354100049711 4.338047438115097 -1.1448515596860025 1.1955722259693216 -1.1163192565742646
Ni 1.1098377964198691 5.829634229725743 4.940881991370174 0.5681636621325377 0.8115687128598927 -0.047210339137215465
Ni 8.969485300636315 6.8855169982629505 11.190356128773741 1.1185987966370607 -1.4801254688002123 2.246565921862899
Ni 3.6055532102332193 3.7517016366334293 11.263104285448195 1.1133684014760565 -1.3818203678697105 -0.649244685875269
Ni 4.048147467133875 1.727522575818037 9.162802016562193 0.9406406626596059 -0.9115889967092881 -1.3785473535453936
Ni 8.925302809632079 3.6374444692872725 1.967218084850726 0.5334206022243975 1.7702346084523255 -0.6627627749663618
Ni 8.145478179850825 3.5381071356570994 12.742838555995702 -1.5341281482689129 -1.2056892597986655 0.4571886790438513
Ni 5.919345568736212 1.2485308854076724 5.788035461920572 -0.5026036168435408 -0.3207569464449573 -0.22261716744772628
Ni 1.9991844468123736 8.296892968673802 5.361408815885752 -0.338079753994121 -0.700189295243936 0.17188364564860073
Ni 5.939412699289754 7.215521006010394 8.508358027453099 0.17361296963488165 -0.5317753533114906 0.8531367661096662
Ni 4.355025274676986 8.20877527672692 4.594966241993032 -2.530377144321442 -2.125602974323565 -0.43933416736093367
P 5.558118900990127 0.2348586986057947 11.682371762427893 -0.3337991243408961 0.8132198753100703 1.0615303337588426
P 5.275475519482922 4.276524418458637 12.61783709341798 -0.5129579634946714 1.184245745212909 0.17037183698976463
P 2.5783560888405543 1.720845744155083 0.36180550966803143 2.486171139228189 1.058189442311068 -0.9007050028069328
P 3.156593523969392 6.558398041234066 9.90078516792227 0.35696219272092067 -0.7480041007343698 0.8004386643850021
P 5.310581549337656 0.49740014577301284 3.6664854814092123 0.463062621326125 2.7514285099439455 -1.2964808259609413
P 7.74246865058705 2.10785469054481 5.0927602200863555 0.046160814826778564 0.8722367201639107 -0.5744875474680364
P 2.943621827592624 6.89670916327273 1.062647525555393 1.473912655121281 -0.1789166412359822 -0.7879305046156624
P 1.8239107464914601 0.4733818695687194 9.929980965304983 1.3491719857070699 -0.6267912419677593 0.12761490563821246
