# total energy = -340889.1633454711 ev
CRYSTAL
PRIMVEC
9.12457976270233 0.00000000000000 0.00000000000000
0.00000000000000 9.12457976270233 0.00000000000000
0.00000000000000 0.00000000000000 13.35474480937100
PRIMCOORD
 96 1
Ni 6.18688486830872 1.9452053059536636 11.384786637895647 0.9369920101634249 0.00483033150910781 1.0024255571768863
Ni 4.911806955626795 0.1661549492187174 6.271869380106523 -1.2266635480574875 1.1369341046111388 -0.9604145028524235
Ni 2.8457465895728586 1.5977869282022212 4.988518210875492 0.43864099794865097 -0.08291833406178623 -0.5650438855566333
Ni 3.6294658773850488 4.46002163356226 5.044995710308987 -0.975381922795533 0.7766024811973529 -0.7881572759144878
Ni 5.536813301545127 4.410329171704496 2.8031338892199495 -0.0728367814560681 -1.7931675630994153 0.6316961354685443
Ni 7.378053144699055 6.491746205644332 2.696950241058917 -0.43093283067111593 -0.4118148788947424 -0.019704420407462838
Ni 5.1858728359719635 4.424134661016063 11.643427416006046 1.4838885353870703 0.39882669416519057 -0.0016210805431907565
Ni 5.607610916593675 7.775419472544034 12.547597545031197 -0.34908587529663754 -0.12717678965952936 0.34904679452858595
Ni 1.5253377642010013 6.745874879019392 0.4509869213277456 0.8676881815612798 -0.6076041275163471 -1.3542296027356355
Ni 2.869826355794423 1.7737088276913298 0.34712730365425865 -1.026316247751555 0.037757421254431746 0.45570489540947323
Ni 1.0097533798321172 8.791514435371221 4.395941534198561 -1.4219072085882674 0.6891014128608907 1.0599725023534197
Ni 8.704840051385379 2.2886909897901786 1.5689423063834989 0.2055437569052073 0.20588957028040025 -0.09460194104730159
Ni 6.9003083929640585 0.9278876494267085 4.659016858115585 -0.3380730691259016 -0.37943697678466914 0.5628972715272758
Ni 0.5784445274067685 7.523900429005793 2.3453737922702764 -0.4095399668176366 -0.26437342544890596 1.2469120138938783
Ni 7.578155180788067 3.562819946167805 3.847341682561967 0.3170051927120089 -0.1498163814359162 -0.3915345313791515
Ni 7.621843669105176 3.6967231554521764 12.543403888132588 0.5644941837007503 0.3609463741796493 0.1767671989931472
Ni 8.448156495652592 9.044091930171948 6.572310770963271 -0.4572185038405222 -0.11837667486939613 -0.6873823732872548
Ni 6.896722433083393 0.6471434890900414 0.3767256157685102 -0.9439951809541356 0.40208325342927526 -1.0774403201208798
Ni 2.0218061537861876 6.446105057239533 9.251085761420924 0.05068029996368691 -0.02620725452298712 -0.017618227302395463
Ni -0.2016039419321607 5.007605919461656 1.3677927685278193 1.0596341451773943 -0.4984183751175997 -0.1319685546212179
Ni 6.320797202172939 2.0855778423509896 7.311549556927457 1.1874915058437163 0.3125322445423198 -1.026782388754696
Ni 3.6867591142570464 4.207289020904099 0.5314237425287979 -1.0770603110736419 0.9908653631431129 -0.23083287048929924
Ni 6.151463249334824 5.644127485149453 4.963277798097132 0.17193763881498778 0.48185867098670554 -0.8450323918349769
Ni 5.482859660897872 3.132112403554507 9.424483802123794 -0.2888819521132315 -1.5329678094122245 -1.0617882154059197
P 0.15662706294037057 5.446908816292732 12.54640861227687 -0.37943954788783035 0.2555293447947148 0.11388907141168772
P 4.165881677549246 5.98201067695867 12.624560638683727 -0.8784613609173839 0.9075693340269337 0.07534180726610895
P 2.362946820601504 8.518981484440687 1.6065757235127975 0.06657177438296277 0.6839802895842414 -0.8551777077990949
P 6.670861708080598 8.086804884471697 5.856376161933481 -1.0503992568426876 -0.7694437586653846 -0.7971137137768272
P 4.621033969578069 1.1031434545868386 12.735245442084281 0.6876227714328351 -0.6630299125848194 -0.9312371099575187
P 3.9615184626707416 6.06842044812889 8.149466111668872 0.738631144159902 1.3920230194343253 1.286132649957398
P 4.6404328263370855 1.1134907281356274 3.793682765843834 -0.9938365299562949 -1.3005274852264892 0.8987190827251553
P 0.2785259749753704 5.6327856323971215 3.477508774411407 0.6910605934697905 -0.1745676202386671 1.1351541298925805
Ni 1.8309746908237803 1.2706889897745466 2.634503441488193 -0.3575388911599971 -0.7517185734714796 -0.6140408842806264
Ni 2.0007739972341962 6.313634406991459 5.130385353452088 -1.491920404552611 0.13095168332092932 0.0699589456876408
Ni 5.8853266288784525 5.450914506846452 9.45060564931557 0.1529425857697237 1.7925980637491898 -1.308493277040785
Ni 8.779333121272778 2.5058103672976126 10.338549537995208 -0.24233058671625365 -0.48494913698657127 0.6649091318854033
Ni 2.36596705653153 5.087290875283149 7.196551564632271 -1.3391865923595838 -0.883694070071233 -0.46507990886647
Ni 0.7407698904628522 0.2754254427426734 9.209619108297053 -0.4136174793211199 0.9875938914806928 0.5084533907560985
Ni 1.3287030684546168 0.9205606118079454 11.544322616891884 0.19144716960282512 0.8613450129520714 -0.040305641597582195
Ni 3.950970448365274 6.946889373093306 1.353463528332918 0.4042458082982328 0.289166830343502 -0.11687386507162453
Ni 5.784226284151309 7.988049556765751 8.115437816037922 -0.8598856547977255 0.16473289353643242 1.1635586491772025
Ni 5.165716639085478 2.786701433369849 4.981533345001067 0.7067026708824217 -0.0742413751130786 0.18027701191861856
Ni 0.9927269138338458 7.8287435171817075 7.579565840832726 0.6680659323468301 -0.45318161476698726 -1.8332783150773715
Ni 5.107173334774164 4.706020306291842 6.997645760961467 0.9601759044790561 -0.3476044056551046 0.4176538541740226
Ni 8.369292752017511 7.490230729362909 9.307562348396434 -0.6999900347489364 -0.6511352180297625 -0.6162625745222935
Ni 4.6449312442026525 0.19495851042811935 10.61662202135208 -0.7698661909147837 0.4161327895438059 -0.14733346711306242
Ni 8.37208487345131 6.968906984268991 4.896263233853988 0.3194202299114048 0.7511727282703385 0.21163804272840325
Ni 7.144765011699158 6.45032061312978 7.199048962136948 1.1848792650318498 -1.3237059802254816 -0.45696447884818714
Ni 2.423096050966245 5.280074998333247 2.395653877070317 -0.9844648589334077 0.38850782873768575 1.391124675989772
Ni 2.1205523569122837 5.3618768566797135 11.520911682373255 1.565334141558072 -1.0389601617678106 0.7142727699201957
Ni 0.9402697042818289 3.2369447014398998 3.656889802121279 0.46318603427786686 1.3403736706891498 0.2624394416509867
Ni 3.606189074190198 2.908359456496835 2.8001163906638786 0.11098115373627339 0.3007460505406691 0.09047763446628289
Ni 0.7825759779571079 3.1043645562336373 8.260791460574827 1.4799336645043804 1.2656345300040461 -0.8081578874061308
Ni 3.781700367586101 2.8288478676924735 7.165127424090231 -0.7014221392097726 -0.8396688135302185 -0.2369181574514307
Ni 4.3357539805984535 6.914068259376381 6.07075999040218 -0.5735503803657478 0.24110802716306215 0.13795331144974304
Ni 0.7458787427203185 7.156736460461072 11.3296176032125 -0.6597566411501864 1.7169911757471528 0.1804194510337538
P 0.20544082775867367 5.863254270223672 7.873850877665339 -0.23145379190274978 -0.16220549912888838 0.6866670923877851
P 8.564193777592582 1.5483955774794753 7.9046070989624315 -1.3778973786662205 0.023405780518450013 0.9145884456572442
P 1.7036229298710062 3.399599461828533 10.249766463606257 0.09993955121013111 0.05934363206563972 1.1885785682603078
P 4.398905197733523 5.969236265170042 3.4119240318306048 -1.160936381063007 1.5991361777091815 1.3387729018609331
P 7.228875388747425 4.0615421069757 10.32850611295539 -0.672392841856958 0.007261823768735881 1.5994938181589162
P 6.2930949777513145 7.728947987372974 10.35627038451999 1.1525293879462344 0.571021700406623 -0.4420626220356903
P 2.5397446797561187 8.614835195754644 5.940711003646035 0.5455407825266991 -0.8442451200469913 0.5536950362027173
P 7.181327203154181 3.8317851863773726 1.5674732490278063 -1.719526797684813 -0.45896865376240953 -0.447966389114635
Ni 5.480377775178938 2.9236613769036417 0.2164030979892865 1.00264847182097 -0.5545730679322964 0.759501302740692
Ni 1.495865371288666 1.229692252512899 6.915581114715348 0.4586066424373005 -0.6064612721611555 0.3878061746849708
Ni 7.039220996585541 0.7795776410187198 9.397787106401532 -0.23283961650668286 -0.32637223574920565 -0.615601801009843
Ni 2.873959790466029 1.9072105554623437 9.174789674555358 0.32523683659318176 -0.7860132329882915 0.3854417882178523
Ni 6.005634214187784 1.7771670434541085 2.4390038434750267 2.703388475816583 2.531808991671962 -0.22828619280804555
Ni 4.261917880460183 6.963350115140939 10.22729079852215 -1.040204318587557 -0.42068029970517223 0.9637829051040242
Ni 8.12597670576354 7.183964206730548 0.2061808311844292 -0.22599379722944307 0.4137352358459068 0.06463213415808869
Ni 7.731028391578551 4.072546350273618 8.275615252997545 -0.4961488623571326 0.172008087041607 -1.5191442732655709
Ni 2.9285977746019616 8.582570681408507 12.742376301236291 0.6429470257920152 -0.4440899368783642 -0.3782966925326388
Ni 9.241648208483083 5.126946299306992 9.98833447652004 0.1089291563032511 -1.1226374854828085 -0.19017833019273053
Ni 8.780181707198738 2.408277733291436 5.716672457239088 -0.9877928948653761 -0.38642137852230224 0.7590058511615122
Ni 3.550939743204381 2.839277262459903 11.47386261129775 -0.6060352403673305 -1.5052592877533624 0.9993939694394143
Ni 1.0641997477912206 3.3762770357344376 12.724815134858867 -0.2572411852794989 -0.5894050880098172 -0.19087535625975513
Ni 3.210410423238949 8.550141924625091 8.412367156110781 0.5461917858471367 0.314735937061858 -0.8777221687585142
Ni 5.319839917315277 8.084222628374423 3.8139283836128404 1.0955984790871454 -0.19636029063372634 -0.16337869350138315
Ni 2.9088430592288335 7.732205462379075 3.6310617664006424 1.1463345719894322 0.15399519540395415 -1.1142137801954877
Ni 3.5610589022569443 4.4144169834768565 9.795679010045813 -0.1058075799551339 1.1786877915091571 -1.648230364132671
Ni 7.480932782496758 6.143050386714027 11.295576533169761 -0.4435091246742297 -0.629167969730052 0.8459333063826915
Ni 0.44003468813496677 0.266749792222225 0.44143439868380646 0.5347375212636081 -0.8253773366082108 0.2166990021910784
Ni 4.592647401667767 9.456532063927508 1.6023556053326256 -1.4610715374925545 -1.6629491584000844 -0.8482113037835908
Ni 5.874833362052079 5.541621955125561 0.8001718177379583 0.7026513836311834 0.7103680355491508 -1.6565314277991987
Ni 8.162867382093129 8.7940419439894 11.306033301676738 -0.7501525145359405 0.5844631706235095 0.8497279975384333
Ni -0.2646538762309051 4.887517324068702 6.034234297266552 0.47429705658936383 -0.7508402846315843 -0.6151127771885665
Ni 7.883481871695979 -0.0778737267214625 2.393224001456523 0.3889554577980656 0.20767622986717785 1.017932394563234
P 8.825950599721423 1.3693165733626056 3.7266682016006905 0.5558683897049524 0.3876141132788228 -0.4116408152107234
P 1.7839374817020812 3.435787545509747 1.486703380662265 0.08181173126116878 -1.0453758354861673 0.24622657933655015
P 4.91566665290293 0.9635100091572831 8.450535273619233 -0.810233796098553 0.5618269212812325 0.2261951146069717
P 8.366272516087486 1.5595640632146757 12.463208868297535 0.9435742913666331 0.5096574383665287 -0.6015298962978092
P 6.292474506321581 7.932708979981443 1.4023685389497114 -0.5933370760743717 -1.3174617990879827 0.06803138964762477
P 1.6224141692147265 3.3194035295354953 5.9680080967223645 1.6166191649852932 0.32387106659390674 0.011240091690193545
P 6.854357008844393 3.7950405033253687 5.9463472566187745 0.6859608103493798 0.38236597750600604 0.40961427169899783
P 2.2792288004867443 8.40218686237323 10.370880661774239 1.0985701601209596 0.006204329038498993 0.9496171551266033
