# total energy = -340890.061618559 ev
CRYSTAL
PRIMVEC
9.06448704043190 0.00000000000000 0.00000000000000
0.00000000000000 9.06448704043190 0.00000000000000
0.00000000000000 0.00000000000000 13.26679303606207
PRIMCOORD
 96 1
Ni 6.4346980417941495 2.1794108708242725 11.393163699356109 0.046833672524087086 -1.1538504207505034 1.4341711135572848
Ni 4.782867508669975 0.42463314577996336 5.866562282742851 -0.03911290684106167 -0.0701836601039372 -0.43530781981036
Ni 2.8831685781365732 1.7469804533145081 4.590005137810334 -0.07877165888326434 -1.0239780865366817 0.8444842326409907
Ni 3.6124246874204284 4.629568904282158 4.923267348036275 0.2395707645829293 -0.5844865676622772 -0.6945009866099071
Ni 3.618044669369367 2.795134280252558 2.605850568866209 0.2778336647188699 0.5720460279060793 -0.7128206108547014
Ni 5.434522544623407 4.47599836528391 2.8281752418688084 -0.18446816718183068 -0.09586075315506716 -1.2718424585869708
Ni 5.013060156401087 4.302757889464378 11.127828035470099 1.5377431193136808 2.2375973998157015 0.2840156251598657
Ni 5.667797117939423 8.109044760662137 12.15389442690012 -0.5618546891953744 -0.5172272802939866 0.5082510449373053
Ni 2.104547272572205 6.668752160993405 0.16970260653780575 -0.26523628766983354 -0.22823271386229083 0.3698719588040533
Ni 2.642452060981723 1.7190799622841335 0.4793581732321015 0.3666493381016976 -0.16245798145932666 -0.790187161860323
Ni 7.9534709700337025 8.88898948133061 6.818189293913079 0.7373198815476463 -0.45530791708137075 0.3027669376254399
Ni 8.613492527501442 2.602577382605303 1.4263396348074404 0.9206153685776145 -0.3177716385643882 -0.6891242956790261
Ni 7.003476472974771 0.6927960231657666 4.5342984264145345 -0.7777821033277508 0.3257613416380842 1.510347500909547
Ni 0.7908964338792916 7.5982971753478115 2.520783984030714 0.6532679481020491 0.7217677927456602 -1.057342263819424
Ni 7.858275727408298 4.05367485079522 3.7654078476601422 0.4091424742689019 0.18342892728403895 -0.9289295448702647
Ni 7.719081464814915 3.8634656552846995 12.46348835508272 1.380019824325862 -0.2933692984606238 -0.4079368839965749
Ni 8.090933915607332 7.100330516723814 8.95974233472164 0.2771682632207291 0.6926881017708845 -0.1453694014081561
Ni 6.895654399938284 0.7337883527910632 0.36413222720223887 -0.00633956906478263 3.150586362196309 -1.9342918160779718
Ni 1.6882878998961597 6.952506862492706 8.747274384898517 0.7118780444357741 0.16241812936032674 0.5646798173489953
Ni 0.0315154084517241 4.982431254779373 1.0327577957440632 1.340104476188163 0.3251836147577432 -0.10095745095168418
Ni 6.617492486926878 1.9721151172915765 6.762071054806825 -0.8646797337522591 0.25770706917232394 0.4911236412283994
Ni 3.90262423918698 4.82131906258513 0.5622039587490647 -0.7709113443498464 0.30157214598639026 -0.07821141550442014
Ni 6.273032915892028 5.9002105649890675 4.605938693084276 -0.3754602515251082 -0.31087259745170975 0.28464914497880656
Ni 5.862293815807762 2.8816185508571084 9.3250828580429 -1.0763200904735077 -0.5855877711462559 -1.9472594319822334
P 0.21123427314046034 5.772872651410541 11.975721963696044 1.541954586291867 -0.7947632112667796 0.7510408306781645
P 4.192542791856084 6.197217546503446 12.155287638554237 -0.7170850425580102 -0.4004817132701103 2.6038687857526894
P 2.3950278234362035 8.780369733436855 1.3466192844130482 0.7300727130669298 -1.9214044185923425 -0.33412822554554067
P 6.451005053933085 7.917539343508555 5.740209678902792 -0.8781284030579973 -1.2727066063594792 -0.8811872444889792
P 4.726667689180591 1.1281207313792343 12.568349060211597 0.39725626435427713 0.516494258782704 -0.01821857989055572
P 4.242161793773002 5.9160643527772825 8.127144728332524 -2.0529849937465223 1.5303751089843836 -1.0239212651568173
P 4.866750271501387 1.1426057816282724 3.698794745488597 0.005185143745365264 -0.5010720106903628 -0.8857782062937714
P 0.39373956113742825 5.676009543174484 3.290549285781997 -0.5503135213249941 -0.16796888397522686 0.47754101744795824
Ni 0.5911967204646765 0.48800569384385506 4.586118285778552 -0.09406586603817348 -1.0889213241772862 1.2000130353494944
Ni 2.202733795912367 6.581533666940687 4.591238814492995 -0.5236681508233239 -0.07950005240885663 -0.3744924882952002
Ni 6.0351989056077615 5.311535584811802 9.010924960648543 0.8085376393430527 1.389365270096504 0.05288424959354118
Ni 8.72689832453881 2.3342504380045397 10.10793002745339 0.7084301950964895 1.0634758875209878 0.1536187859011419
Ni 2.274062244228812 5.295754312919701 6.997649820721905 1.275201861977507 0.3900605179367863 -0.28245008044495873
Ni 0.5627179151627821 9.058205324915741 9.312187718816192 -0.44029653127420304 0.2768263065002781 0.3131565083898801
Ni 1.7704212167337896 1.1812658187447596 11.49352660602843 -0.6989965604874155 0.21899114065936479 -0.9781548575549801
Ni 4.608503036460654 7.286297532311588 1.3002707494109327 -0.5224021396267068 -1.726171813805156 -0.20011435835951988
Ni 5.801162915382536 7.766987278686107 7.914636894766539 -0.6430753238397634 0.12308385053707835 0.3958015341856216
Ni 5.481712264020461 2.9723993883064916 4.653486459718399 -0.23036364416236454 0.09076508379971465 1.0819862876203494
Ni 0.8195057677941937 7.6489132708363154 6.306648565984992 -0.5361562559880056 -1.0867785668026704 0.9925422366249036
Ni 5.158853365540966 4.520650028316927 6.803038910317182 0.4712405291512271 -0.3353821525572998 -0.4731709134047206
Ni 0.9585060503654685 7.776097088135596 11.484147581314613 -0.08543364428447223 -0.41331563180998493 -0.37557286584357247
Ni 4.588633680925053 0.7331429613156368 10.33569429911334 0.6528650562366756 -1.0394026486218682 0.42906543844507394
Ni 8.252571848048412 7.513861478808519 4.244922836517594 -0.2711166577100105 -0.48589221762613094 0.7688182092662437
Ni 7.470524166392593 6.090093438967069 6.744134247902697 -1.497054383345067 0.8585484240435408 0.3632984193515937
Ni 2.3986082958068984 5.387867629960204 2.381309628788585 0.24236195417482131 0.6275252919203064 -0.09612917632510541
Ni 2.2196843866293263 5.517390084909205 10.83412777881858 1.4408315562965959 0.4815429395184997 1.6938101096449991
Ni 1.467848640192559 3.581424141831123 3.734867778011169 -1.0492689998929863 -0.2632953618933788 0.41694037304676573
Ni 1.3030834597315062 1.1415180431865424 2.476207556239917 0.6897935538319088 1.353412763261295 0.541273779720229
Ni 1.291444658404995 3.4097427577780706 8.165366044277514 -0.5816812370029982 -1.0344288495563603 -1.2496589805113962
Ni 3.6782237986580792 2.5507103879088104 7.024023852139051 1.2040293555977395 -0.5671994984470554 -0.3097888774692278
Ni 4.2360613940122995 6.971043738437189 5.928001375726567 0.40335260706000214 -0.30254942229799503 0.13403572156289173
Ni 0.3995118264682088 0.11669529937489957 0.4480911317245724 0.2166000147193689 0.3860992192961931 -1.0003864152596706
P 0.20846960460106323 5.7038647117697865 7.713592011478983 1.0637831343487614 -0.44623526535614116 0.5115531127273448
P 8.579138121716802 1.4246201016208058 8.007716486122778 0.2899888120241651 1.9845262867534919 0.48198954013761514
P 2.0494442560115655 3.4508955288235224 10.142714996371213 -0.5794891144476858 -0.9411800801028436 1.3737823280565824
P 4.2710231204269045 6.20703438594006 3.3984746939704484 -0.23143913661473045 0.2380661550129448 0.35180995909601986
P 7.210255550747646 4.184022174062533 10.40018359197741 0.41652051190052786 -0.8643555176436212 -0.7803868879404495
P 6.369460928751392 7.904051386831102 10.090656740998718 -0.22099814378706453 0.02850247831506704 -0.163064504695074
P 2.4118061888998885 8.710681957270019 5.492943163431324 1.8932595807270107 -0.1275773675320577 -0.07044668395733673
P 7.024388244517031 4.109611800161185 1.209280522311516 -0.6348747903068421 -0.045183024294541546 1.7015211051360115
Ni 5.345237347531404 3.1122100360168554 0.2758577204123415 0.10736232603676349 -1.4017479600315732 0.14627417261061262
Ni 1.4776926730902158 0.8904535076560335 7.128234633548994 -0.6013517188487322 1.0518329039654208 -0.6775779856023234
Ni 7.026754075627793 0.8180481982822755 9.452616564540937 -0.7929071318946473 -1.0653916164864619 -1.6479953653037296
Ni 2.814251283365963 1.5788342191970777 9.155931372315571 -0.8243373253794706 -0.294563318768725 -0.34184950544919834
Ni 6.526983584087926 2.1652068196726817 2.5583952599996334 -1.0779823086672788 0.6229561844923852 -0.5010360152461049
Ni 4.248026516871329 6.837007168955008 10.217235050565435 0.3365751444241365 1.277073110858291 -2.0546163587023583
Ni 8.176910574939075 7.179372843489528 -0.010708784958831928 1.1933708474426288 0.034252236314650686 -0.14637444563390276
Ni 7.764131965276565 3.7473677056040504 8.041454506790437 0.7105490412117054 0.4881786996674626 0.08547092528031087
Ni 3.1337019347280375 8.467944059510954 12.30916908945708 1.5643632930043703 0.19622736460028783 0.34802015303628453
Ni 0.3412625264648655 4.917076303405429 9.766814345678158 -2.0205099039369525 -0.047974213886433505 0.4107609837089313
Ni 8.832436146847664 2.5160205961046382 6.118764411393669 0.9613347006738476 0.8884027884008119 -1.5760921514055242
Ni 3.5192055029641667 2.886640276663095 11.70377919522523 -0.9336750299750501 -1.1790626583500727 0.4921263714613008
Ni 1.1713764634120312 3.44175852591299 12.450964859823602 -0.02349936867352082 0.8310643596906591 -0.4995355194411784
Ni 3.280619140257704 8.564127331220929 7.58201191797771 0.6105657812478323 -0.3816589241366524 1.153158536889801
Ni 5.787439282042708 7.94829514794847 3.5455904117657306 -0.005918165256647872 0.5491709230801186 -1.1024221868771982
Ni 3.4225508779294413 8.28126094944904 3.434680068003432 -0.6310111935863778 1.2793410809568613 -0.30566508510884133
Ni 3.764445199139211 3.905361714265334 9.000537058530021 0.07066265662288476 1.2112382146413525 -0.3465263420995774
Ni 7.312158513763719 6.218111189071676 11.130773087301085 0.0324825460087376 -0.2522730426409462 -0.17433056452719656
Ni 8.02500790155148 0.3300696978994637 2.418430516010025 0.6084227667629005 -2.076228537655495 -0.19668219274951934
Ni 4.564630919310877 0.5089219976296216 1.4475396570367585 0.2830002965214739 1.0803325540670103 0.44460570017251816
Ni 6.235533133113385 5.704698644575113 13.208524829809972 -1.4362879027899718 0.2692474657117557 -0.058124157836241835
Ni 7.908474856494138 8.84898790013599 11.445155783973398 0.3408094942204582 0.5552616093588889 0.07756478305935674
Ni 0.28889698498258 5.351781907155813 5.515496513571894 -0.03429800195092158 -1.333797817243845 -0.8348245980640397
Ni 7.262485124924715 6.132587754090655 2.1455060635955485 0.30487138556295235 0.2653219054051043 1.4478203289096034
P 8.487759028124467 1.975169849415435 3.6995516301543008 0.8401534664761209 1.649808250142752 -0.4302581732015945
P 1.9553639452889342 3.5825300092468817 1.2600162690286096 -0.15636832362182104 0.20328195745422406 0.428897545408642
P 5.048883009082063 1.0893609849055885 8.056710944884403 -0.5049541193535884 -0.5115435996456481 0.7348837613023279
P 8.85806145163742 1.708193513379819 12.243524980947374 -1.2413378622402107 -0.38325737897202383 0.9965863247872899
P 6.7006228973360935 8.027011153181666 1.1708915133567597 -1.6951447692960226 -2.1139965004328882 1.817560904342115
P 2.078169615360252 3.2922579415842153 5.982368355941636 -1.8579305664084134 0.5167254009569037 -0.9186111936633923
P 7.079871969532275 4.18578068454333 5.771678858470742 0.26806038738218996 -1.1521856314535706 0.9072091224740376
P 2.5487705876877254 8.52702638587092 10.106696350770727 0.29534570546070427 0.440498362872364 -0.3719995466700174
