# total energy = -340891.6327352908 ev
CRYSTAL
PRIMVEC
9.07454177909724 0.00000000000000 0.00000000000000

0.00000000000000 9.07454177909724 0.00000000000000

0.00000000000000 0.00000000000000 13.28150916244912

PRIMCOORD
 96 1
Ni 6.456436749397202 2.0686688720972266 11.26969265525336 -0.2535719639580278 -0.009654749480944663 0.0604872587517797
Ni 4.888110894622117 0.6349311782143128 5.600918884058602 -0.3782856367890453 -0.7826921390348585 0.7621935048608743
Ni 2.960442254731058 1.7588640112709588 4.492178649068603 0.3085938287198621 -0.24319524870939407 0.5591501457800176
Ni 3.9652118332350907 4.317848531879167 4.867420939066058 -0.7135934844649839 0.14309140400725678 0.249241454903474
Ni 3.9157011325711153 2.8417200229152977 2.227747406697597 0.173505754633056 -1.2919040052235364 0.8426096413260972
Ni 5.213533042076446 4.647426819528529 2.7792490614946708 0.5817321448455918 0.008596997640391646 -0.8534008184043302
Ni 5.13937588558341 4.86187639395871 11.35801517166877 0.020003953925752646 -0.35436537852802197 -0.023214233332934212
Ni 5.8948768723464715 7.652924174845481 12.391966662048757 -1.6300038138223156 1.3650850573929008 0.9920244164482205
Ni 2.0957382306164054 6.611221210765499 0.17671490680352936 -1.3662749639359437 -0.38260534721032174 0.7690868895465981
Ni 2.810303958820964 1.5670463443656968 0.2986123208337922 0.4136334201607199 0.22414311717394944 -0.47695686280971406
Ni 7.954099146314813 9.266831453637272 6.706936756475435 -0.0003594402219477681 -0.5415224053959254 0.7667186464247376
Ni 8.926481684740084 2.17988645775296 0.9641582810917365 0.7331930038634664 0.4260814161160855 1.0243879203805906
Ni 7.1996871045810185 0.5746172354058245 4.570991045561753 -1.1023108581103145 1.2510059814575938 0.05201161718060075
Ni 1.1621947315683003 7.3836643672755615 2.5441930172940075 0.14788496874115822 0.06710450695798122 -1.4525321325629759
Ni 7.660347150128313 3.859475270893331 3.540731078830978 0.5919813333774255 0.6348519074887067 0.27167690108885467
Ni 7.770884145140754 3.983215724385627 12.583300655870188 -0.34686778459939616 -0.667543741294773 -1.0601537651262902
Ni 8.353261021334292 7.554002593478547 9.349172939479436 -0.5169717126397548 -1.8480914688308043 -2.0638111378277486
Ni 7.1482163028643635 0.8809910119357124 0.19854008755259955 -1.5804612270074976 -2.0040720700959036 -0.41503312872172393
Ni 1.6815035414834973 6.652700941838635 9.328679901482834 1.5265606203342998 0.22093438042866467 -1.0251165710164991
Ni -0.07696935703111663 4.683452750913424 1.2431296634143285 0.9014979310218733 -0.11939071795620727 0.7086358833493925
Ni 6.616557041408903 2.198988368474674 6.904632004176162 -0.12832504433135963 0.6885139157885368 0.08660555310538634
Ni 3.5396521157978134 4.23086904766652 0.26882604446659414 0.2604208685590612 1.0234939478114116 -0.7832053312258512
Ni 6.260009215201379 5.971747316870764 4.340171904979126 -1.0324390728198414 -0.6137210390473624 2.7846996132922492
Ni 5.305884655100141 3.0736834632328445 9.207711720544212 0.3912967043367325 0.13637516832934576 0.023158183284018183
P 0.30681207690416756 5.576786954755869 12.356226578734049 0.859944533060119 -0.4064510434796677 -0.7699176129780095
P 4.01971353194987 6.277005832199844 12.675514335856843 1.4566806075137106 -0.24605071588031818 0.0023877835058862106
P 2.656644740649576 8.49901631350159 1.3551657727503938 0.10956087634997906 0.34149854986768285 0.3608481580388882
P 6.308467269003731 7.952275163390792 5.667552337853599 -0.17270537021894772 -0.7390561475124626 -0.47398415333463534
P 4.764960286354007 1.0115754849369474 12.337141002187773 0.12415600055533454 -0.2053676363386592 -0.26704505874379814
P 3.9004740512452076 6.493696818481931 8.002667002074283 0.253398414494641 -0.8385192733068074 0.2054583962802526
P 4.909200130022241 1.1375210521135075 3.328811486685459 -0.18883390034969413 0.39994512404034993 1.2571136370172284
P 0.3413071330687514 5.669020598734726 3.515070996670508 -0.510007879727412 -0.820657048314406 -1.0062148490159897
Ni 0.5054202235210963 0.03081079214889945 4.509337700367268 2.4309160754096264 0.030157497419986766 1.4893570147008093
Ni 1.8272406845669733 6.925282031747816 4.693420227747974 -0.2463098830789758 -0.9803030142462341 0.2247997769213419
Ni 5.743386469691706 5.842489541896851 9.160589439311094 0.6525552383057407 0.2139926590035089 0.07376263570444716
Ni -0.4465609297808696 2.374925587036468 10.13818802442655 0.3512990808978724 1.0106358609018207 -0.4210569663183007
Ni 2.2587079287880205 5.414779158026772 6.894617339723676 0.38755832034022286 -0.2736059997907675 0.07414495874453036
Ni 0.689269535174702 0.28752686043586106 8.965005837512953 0.8915271929624066 -0.9476877993143744 0.6348318528840486
Ni 1.5370731324351414 1.1803619644732268 11.176988042549347 0.8171323229905992 -0.442671973484915 0.02760619175304278
Ni 4.29786639059213 6.7605064997360005 1.5875257705494321 0.19321454591589304 0.2529718684801837 0.07408839447498207
Ni 5.785728282246344 8.092649252205131 7.810537170927297 -1.5369985278381724 0.7718374557085417 0.4467618272835725
Ni 5.826355006379889 2.7501488204959106 4.662620325049367 -0.6544498842252923 0.20124435819890502 -0.4530204065987747
Ni 0.6575857720940075 7.841012205025506 6.762851361365688 0.8301343916772219 -0.7091755579029464 0.47646423944401173
Ni 5.3727277308132715 4.917993361133567 7.027286235001766 0.12815046642670833 -0.22944344634094033 -0.959662198067431
Ni 0.6810480002037415 7.761809603230202 11.305990822895572 0.5732382484419676 -0.6415735424832564 0.937947689208475
Ni 4.759651679336335 0.2777036688176878 10.048510678903897 -0.9542510543541889 0.4432412157248237 0.5314619358361299
Ni 8.180563414234566 7.374816688912774 4.638793300354829 0.13801398948434943 -1.2998258311737743 0.22961339625990135
Ni 7.3560868344093935 6.574587285072598 7.012079117668061 0.920094463077138 -1.4181521124212093 -0.2809560123979355
Ni 2.5250820320303835 5.040427080590744 2.396475809165649 -0.42581967781426666 0.8359715671842893 0.46075094247381293
Ni 2.5876782221293757 5.344651098142022 11.338225410670237 -2.0901608314658713 -1.1031631788082807 0.22505663012715435
Ni 1.0680645083301377 3.496629712599883 3.6959919536495787 0.32460125989171196 -0.20071316828578337 -0.3487133224485672
Ni 1.6595612991437811 1.1941371190934456 2.564686055290608 -0.264601482299312 0.0058418034927576815 -0.8128282962986066
Ni 1.011684379439874 3.5830284261302547 8.225358075467627 0.09972820653027341 0.052223733191406836 -0.7468733295640364
Ni 3.8719618405622516 3.027385150405205 6.991360123577887 -0.11168486467151732 -0.29789958223080953 -0.1697876823515205
Ni 3.7987212128021812 7.13191842559301 5.828803317787356 2.17242353422153 0.2607018901345897 0.6890507621286133
Ni 0.9276359722643351 -0.08848404326141689 13.512208878910384 -1.5025881686791025 0.41019585523408064 0.06071145894744383
P 0.21462017581809886 5.987428125292198 7.888047370656282 -0.10701702688220278 -1.1036457748716542 0.03485798821944964
P 8.753902046685193 1.7593721856179498 7.9371097889498765 -0.9565632474271331 1.7901277478318265 -0.5977056374557125
P 1.9270515710411418 3.5139802367328596 10.297273818660448 -0.5867823056749895 -0.14650814299828963 0.15351491333342593
P 3.8414713797427944 6.192912052314752 3.788536854415968 0.6025441964949364 0.39585861267580214 -0.3138064832690531
P 6.950581854594437 4.067981020372099 10.373323924596027 0.32336044550607534 0.35507885965527886 0.1763347394414189
P 6.292750162414653 7.74862429383417 10.142278827919828 -1.0225914906018 -0.08852873827002818 -1.1595636690851965
P 2.4029749960819866 8.812677854639842 5.684977273230243 0.3262765907116058 0.7163751609751792 -0.24377811779605763
P 6.836170030186189 3.647412300985626 1.5125909258146613 0.7428233278643788 1.4326752457380487 -0.9078333863215978
Ni 5.388481135569991 2.7669457975723435 0.10173196699663271 0.3362270170560983 0.39141420375120334 0.7048167667136185
Ni 1.7707788847995145 1.3480685735221505 7.021363281496747 -0.30547739457806744 0.9113056611409144 -1.1631441873476032
Ni 6.887332297477885 0.9122909218935906 9.011543718247031 -0.04407102217728539 0.37900734544641823 -1.0166676689181975
Ni 2.835594707125674 2.0352019615311088 9.112297449625707 0.857373429898833 -1.5015404441408786 -0.12880841172568136
Ni 6.829391347379006 1.7286730103345502 2.3470549464665877 -0.34037317801398803 -0.5629679768642111 0.774119566874499
Ni 4.0002849377193765 6.965808935920344 10.512513785691038 0.7764484721179918 0.8719143038274856 -0.41906204737545893
Ni 8.527020349837557 6.999784020833453 0.3224593095205335 -0.5002081200281708 1.1340002187937954 0.2078731763693323
Ni 7.629974658353693 4.216041246184677 8.314331236538022 -0.09639682816419527 0.03955487947448672 -1.2053059083173177
Ni 3.101887139490842 8.611604154985816 12.436832104708722 1.3845241399541188 -0.8748841850890868 -1.4079980547063429
Ni 0.07526152824355059 5.053194961058891 10.070372157820607 -0.03314871883782679 -0.5774952239461086 1.0330671933221436
Ni 8.87521052294546 2.573059135111475 5.659649319303699 -0.08713674301850799 -0.06331341534666515 0.6012465607294355
Ni 3.8073783257848484 2.8691523631108984 11.403397863217636 -0.41162101771638143 -0.6535929355416357 -0.25584764736608195
Ni 1.0370930967894214 3.2001916520078595 12.308585233703646 0.5233375069567825 1.2428231885364853 0.38475401812220833
Ni 3.155299893176355 8.588736309371225 7.9771802436643044 0.336722211524962 0.12711482607334235 -0.18439463363141792
Ni 5.923007952269185 8.089627429748917 3.2786338071910586 -0.7811857296926611 0.3199712173188683 -0.1271863027412261
Ni 3.405730026281877 8.486139538530516 3.492744901207975 -0.03561517810044834 -0.07693794810863525 0.2227621776660228
Ni 3.461411415445028 4.5528065710271965 9.04790903749938 -0.17560686013645888 0.7780415276367245 0.050258639045236024
Ni 7.29758326271206 6.255998267676915 11.312020855995135 1.4280079221693665 -1.6780299639926068 -0.004776852563353064
Ni 8.347888892523246 -0.3830055606019319 2.5083993941820233 -0.9046675869991064 0.6478033254430521 -1.6881364562989896
Ni 4.746393773605016 0.2321785069608272 1.34701048193538 0.49928200866947553 0.017393512886099076 -0.9862780008827465
Ni 6.115805669700787 5.342790817050359 0.3172405404677747 -0.6171830294540339 1.0019095367724165 0.5419162984002345
Ni 7.775866068649648 9.051265710552093 10.87689203411318 0.6306988045522816 0.5653907273730908 2.1126145324836973
Ni 0.281466881347994 5.176345569327001 5.594344378444407 -1.1868443591780204 -0.911246782878521 0.7872928710316635
Ni 7.492232186693415 6.236896356955202 2.395359640510651 0.3487773429172832 -0.666930018970174 0.3332540504707035
P 8.748030818069065 1.627346675361319 3.522030262861711 0.11370986552134611 1.9027731766444007 -1.2852595033238252
P 1.9755096248434931 3.219511351735426 1.3313913803989368 -2.173901661428953 -0.09763018635066412 0.5289833923886503
P 4.826712544055319 1.333131877537381 7.9822937480309 0.15528666052186804 -1.044701692237278 -0.03889976238899107
P 8.652775351633995 1.4418448896258018 12.140933071906186 0.9020669161514658 0.7538160794304566 0.7592357077841312
P 6.604778286009007 7.764749754809221 1.2269533850045773 -0.208238530128551 0.7280646814979654 -0.5950041793641494
P 2.0820447468733816 3.300429041951824 5.767189900577277 -0.9401799209731033 1.0211005078785704 0.3515577338758978
P 7.179904603216013 4.16092247861998 5.856255621975159 -0.49523354963171484 0.6530910562045527 -0.14006290159357812
P 2.491116021659185 8.527120169798572 10.128093504005252 -0.33417836205718576 1.110685969547887 0.5396385581096512
