# total energy = -381167.6528597241 ev
CRYSTAL
PRIMVEC
9.29688823640055 0.00000000000000 0.00000000000000

0.00000000000000 9.29688823640055 0.00000000000000

0.00000000000000 0.00000000000000 13.60693567783481

PRIMCOORD
 96 1
Ni 0.3982628949838137 8.402341811614166 4.098558359305358 -0.03803407195458611 -1.2577731249780983 0.03172715589995181
Ni 7.360681246055625 8.492437957242917 10.763589703139179 -1.3023959058937957 -1.0469274962440034 -0.86370142899939
Ni 6.6119377437851945 0.38186411350877963 7.207920353755113 0.5475562702948311 -0.40982047417253287 0.871473359635325
Ni 6.144852772932435 8.137268929128668 12.976513177515267 2.616202110507062 -0.16028488506740785 0.7448210750206979
Ni 3.1141694154490978 5.7123336332062555 5.710885177991215 1.7159251963764837 0.3065760269588849 0.8535178035981689
Ni 1.6735049929000765 3.1786340397179824 12.990364611564619 0.8988152419833876 -0.2603403930301129 1.9823259366680637
Ni 1.023299210939122 8.56590196949742 8.02367024958706 0.3399826274437887 1.0912592282818432 1.13045081087964
Ni 6.705947879436617 2.931662198976286 2.976231482037295 -0.12397448067214778 0.3206101364544478 0.4901237392089753
Ni 0.36890611043609844 8.961475274662805 10.6322962558775 3.340608112206518 -0.23174844032503314 -1.4949869592930771
Ni 7.65936238016097 0.9742674214389635 4.9166622272839575 -0.1494011482753685 1.4653269703347989 -0.5713718846571901
Ni 6.037966446826381 7.544471433129693 8.88387321737483 -0.9305349416841717 0.4647474652277157 0.6670264353387222
Ni 4.164978119207895 3.9708683859932936 11.804846783740512 0.7731147797590685 -0.2926187934478444 0.3396496695844021
Ni 9.12503543254606 4.085517613925784 3.0516822393460608 -0.5696968109476124 0.20197789393081989 0.8210781950122247
Ni 3.0351644576993166 6.4754408280777005 12.154790030876748 -0.23150881351040128 -0.904878674568648 -1.0147069456474007
Ni 1.555332244258341 6.966976615461635 0.3695029706723347 -0.47405331600967393 1.2531042587475192 0.06471980877588854
Ni 2.763918441306328 6.935078991310128 7.690259659119032 -0.00909193499893918 -1.5326333088909412 1.4610265431872322
Ni 2.601938754453606 7.878536524542129 3.2955182396254132 -2.167889650906918 -1.8510459234734382 0.7493734702780708
Ni 3.712191762737244 0.8499615155099216 12.796071729648244 0.16988615560259776 1.7808715193408813 1.0533899640398956
Ni 8.875432572382948 6.86737904987286 9.056272856762968 -0.8288935772915854 0.3412378400071285 1.3845920170775767
Ni 8.538968883759468 3.3201977596115944 12.767632547987079 0.6948753392301904 0.17748582232672658 -1.6324095950503308
Ni 4.05425217818649 2.226372353157076 3.134289741356614 -0.3814997728509688 0.018407041752277975 0.08562904812472995
Ni 5.386738007139789 0.5999784126106407 4.17571044719405 -0.8187739723590801 -0.5954140132080583 1.793765858805046
Ni 2.892299173427619 4.911025523838006 0.2832743306241799 0.25607956087122996 -1.122954245392279 -0.267906635413145
Ni 8.676330410089548 4.3335400030583635 8.095446876594261 0.5088007467931882 0.5202640102377813 -0.12036182362022496
P 7.31178890988169 6.049968729770012 11.467585422091036 -0.1360208703137206 0.2013258621691178 0.08463248853941553
Ni 2.460765503873419 8.314356059655594 5.851717232766575 -0.6737107893374332 0.2729403411823106 -0.8235086588305882
P 0.5076835528717666 2.5401981184902853 4.598396268043794 -0.24536217445372582 0.26151230185102703 0.8745841373501648
Ni 1.6594666913935843 2.647800305004284 2.613171255036482 0.7065568893331766 0.013695752319537702 -1.8117257857175766
P 2.257238022694529 4.3089869207546245 11.198154158316635 -1.2803114152899304 1.3806312326576158 -0.6408929714764641
P 6.573104640876176 2.000885621542203 13.11632443394267 0.23438664927882857 -0.9453833195509137 0.44655613903066965
P 6.9458633818714075 0.8300875571453996 2.785829347922554 1.0330656506602465 -0.3985783255998104 -1.0290429026540986
Ni 6.521711441718634 3.4189771990198583 11.714496833058034 -0.10314751662446751 2.4064052347524556 -2.028373365845429
Ni 8.270614199663513 2.127211741323802 6.889953754321909 1.0713496338421096 0.1920909738344111 -0.6707594200185932
Ni 2.237026587280546 0.7685793433924517 4.0129572592252085 0.6622249001850208 0.031000047925940164 0.055857216178936055
Ni 2.3209867865554665 0.1551669270222872 1.2733808608556005 0.45192820197586037 0.4460974542266962 0.9074366651038114
Ni 5.197062889699093 5.691266884058102 13.323735225412463 0.6903949348613335 0.49284268080203514 0.19640271383588756
Ni 5.143196718223188 1.7147552867969673 10.927308837814328 0.386620896127618 -0.8771017615656957 -0.5930485982996754
Ni 3.925062616773104 5.66173066956398 9.788802585637821 -0.4840873032069082 0.32241093710861246 -0.11785448381733896
Ni 7.003095026953503 8.13531658256154 5.433154581928838 -1.487627176493896 -1.226384583364488 1.3836404517975849
Ni 5.17816231555161 5.5136219402262805 7.3791634602244365 -2.5204976804242007 -0.1608433286740391 2.3245641929152483
Ni 3.617698188888247 8.229689296861142 9.480741820810689 -0.7986658887552955 -0.23060661341110605 -1.0097321181406287
Ni 5.030853118617593 2.1961853564739107 7.765927033927866 2.170093343426456 -2.0530402724644903 -0.5755360433372089
Ni 4.816857341083531 7.623997016630708 11.219218118398262 1.0397736588080415 -0.28721793414724733 0.22438325820921357
Ni 4.5921329543186795 8.088757765379743 6.859895984387711 0.8989268278605873 0.5924767849566054 -0.0848291779312539
Ni 1.0497488584794994 0.9127229498211975 13.047881671121052 -0.49150056495184385 -0.36455723145935925 -0.3805461506884479
Ni 4.716608993305713 4.0126764931950785 1.739361361364671 -0.06255005481807936 0.6366977024481938 -0.32581507769415496
Ni 9.249585846640413 1.1128282463745647 3.1148452992368605 -0.8968938565909584 0.3769903150163894 -1.1474661144907141
Ni 0.9997687863610215 2.504925723844172 11.016814631028732 -0.1311432305064451 -0.9211110772671105 -1.0894784822323365
Ni 7.677249593471228 3.9122608014257936 5.1537765772393405 1.5321095751769873 -1.0807231046372097 -0.028686312191098982
Ni 5.069277158436356 3.621528506915184 9.338902913019997 1.1063618882512365 1.2712729592367462 1.636971760499716
Ni 5.375135490398 1.49943935110799 1.2789320329281348 -0.13346750776424757 -0.05291690260368951 -0.8113159734191382
Ni 3.292641782349844 3.257332200150072 6.960668676672128 -1.620931933428034 1.2119198140894094 -0.42466525249484927
Ni 1.5507023938277231 1.2910217066228646 6.216056711613276 -0.3264156873926314 0.605306589731422 0.5918252674155356
Ni 1.2614576014634973 5.838724831206759 4.537028437305911 -0.9650388889983121 0.7635819005679688 -0.5006395511386346
Ni 4.391654852539874 8.669701728649727 2.5093910193498465 1.9801716093292219 0.5986186361882851 -1.4660278530565654
Ni 4.075318927334644 8.16059482216164 0.10876987569891022 -1.085422309885092 -1.002854417184189 0.38884824279624003
P 1.6670622492285538 4.955845822886217 8.151642848306938 0.4631140433893508 -0.1014323337055737 -0.05459968962275113
Ni 0.5022941466576517 6.461393229682793 6.94753775147493 -0.0848137513122862 -0.46206580463049457 -1.3138380862924663
P 6.54386592681133 3.7912989862595894 7.262864964287145 0.5851486267263084 -0.20489918134267293 -0.2095251101504585
Ni 8.945633376803823 8.92316279750502 6.216940845701533 0.8511516173588374 -0.23990783620737394 1.0353685877618104
P 8.593541618754903 0.4867274366957508 9.063375679511948 -0.9427433108249054 0.3829665872044824 -1.8405720205253076
P 5.89505467811261 7.131652399954677 1.540454433727984 -1.1077037469911115 -0.5383157255331696 -0.7174341983673128
P 4.693943179350198 4.672095491575194 4.3675954350109665 -0.8287051154298631 -0.16345325549306042 0.1551683897764489
Ni 0.9521966083420018 3.871754258602094 6.305753091040187 -0.1715915683294787 0.21799355263278586 -0.3386708506109006
Ni 7.3282722930413 6.265907556982787 7.57993441398831 1.0574921591337272 0.4140910765234288 -2.0281828471011782
Ni 8.814259046612936 4.19787980730821 10.441717480882877 -1.4632353779130927 -0.8426188972974779 -0.8329986005988944
Ni 0.483022626662415 5.535785722207392 11.863098297481722 0.5322258105853479 1.1660065964970627 1.1845247099059084
Ni 8.57397166864155 2.7001789743338054 1.1929953151762076 0.9405437320704254 -1.4481193482072607 1.7417329014682068
Ni 3.124944509121961 0.8705318108167192 8.16056972056292 -0.6274707845332871 -0.3827135906534119 -0.1427180798282381
Ni 1.5910229988831246 6.807674432472402 10.054832117941212 1.3912336907638105 -0.24295073679875573 0.16094205903543252
Ni 5.568185378333302 2.7563600710250182 5.286022025874702 -0.5973852780018163 0.28527495148826354 0.37109606101914155
Ni 2.8824165810425852 3.030832107697975 9.45075191816192 -0.4877323561586633 0.6583397061980016 0.30079207328725616
Ni 6.360122224179337 5.449101534626907 3.3462309065509843 0.4221162608207504 0.37143287553327 -1.7327242702116934
Ni 2.0841764448512508 5.017400521081239 2.5974279041946984 -0.09211388451812523 0.3276151070173713 -0.702594562251319
Ni 8.835167748658035 8.463924400474433 12.49729018914802 -0.6475770683648588 -0.7519101206569954 3.2501854993478863
Ni 7.403205213665356 2.5165003499207166 8.979203511181169 -0.7585019149419002 -0.22639411799165526 1.010852347788001
Ni 0.45775833239493674 4.894737375335109 0.6241307990236975 -0.28290465148387406 -1.0044449015997605 0.5449414583798035
Ni 2.9346836877111273 0.8813003966676924 10.674886231394977 -1.2720260353526867 -0.3221772238312516 -0.5704293182382628
Ni 8.343771414600324 6.379571314743298 4.621909028533906 0.25667117170864184 -0.30239464188768567 0.47859851217819505
Ni 4.823718444733723 7.393313324391908 4.533450064955018 -0.41975444545679325 -0.6816048473735293 -0.01972936010812731
Ni 7.0283174852231145 7.940825676921928 3.211508766841894 0.27113336988055886 0.3041296223009214 -1.4175167928300556
Ni 6.714036172357575 5.284202624811908 9.591461254010204 0.03569385385718369 -0.12372071279012886 0.34977158850975243
Ni 6.393395787816248 5.655566832544904 5.62939330259045 -0.9854045971388579 0.928114505168137 -1.267739749272507
Ni 8.125471177730166 1.4350398050580093 11.023645984635998 -0.6882712036501114 0.936520212733329 1.43177793073476
Ni 7.324804553662544 4.5719029251278664 1.2626252906484083 -0.8906800144707628 1.0015902057597847 -0.8195391326598789
Ni 7.703680647234775 0.5477550013176488 0.6752209196189136 -0.5431100615980196 0.036015498862660554 -0.3143983512167811
Ni 8.73822909315592 6.257819264061828 2.227740855131749 0.08441060233659656 1.393110081850917 0.24960886554522174
Ni 2.7226309598557776 3.7131679360208083 4.5237208712288295 0.08675262020621187 -0.4454585350911167 0.18003892776588348
P 8.429386460013095 6.6538481167595425 13.548643690567928 1.0552337021168536 -0.7015756340685014 1.0901533968121742
Ni 0.09245197715308583 8.591849585063393 1.5907189906319574 0.2655594753372072 -0.8608338776436077 0.0005412172154506808
P 2.2506000443662932 8.473862774189955 12.128623938433025 -0.2575970259570209 0.5264585690842676 -0.08549586498097533
Ni 3.6852214894456323 6.448275320129375 1.671407614873676 1.4175826130709843 0.6048628173257841 0.8825761544167059
P 5.290329274277323 0.3080254366511559 9.113599330106897 -0.24124326718934583 0.40372361724617567 0.06790103471734758
P 3.898975547880908 1.2054345518753375 6.118208820424186 -0.3729482837365319 -0.5876644511696266 -1.2798614722367057
P 3.206775720949871 2.3817791399004675 0.9390814878551089 0.2512443442661157 0.03077507639932764 0.06461053689153388
Ni 0.8685841126937985 1.9781826200330284 8.687852043902128 -0.561062532311382 -0.10629274712166854 -0.9776177541045872
