# total energy = -340887.4188988909 ev
CRYSTAL
PRIMVEC
9.13240414233888 0.00000000000000 0.00000000000000

0.00000000000000 9.13240414233888 0.00000000000000

0.00000000000000 0.00000000000000 13.36619657987353

PRIMCOORD
 96 1
Ni 6.61608898974723 2.1015488690528468 11.481268685368482 0.6263055605805923 0.8059984178609666 -0.45404679098075995
Ni 4.802293046624273 0.5202502398651488 5.900534065549223 -0.44735009568687467 -0.5504209934371359 0.47978661894902536
Ni 2.7782600249576617 1.5652301638865573 4.52388257025566 0.2635398738040171 -0.6874191400624612 0.21206947383886707
Ni 3.6459936808363094 4.449855301297976 4.795176163981942 -0.16509824729565115 -0.6551919045976393 -0.7090917399398885
Ni 3.849774149565864 2.889611430139138 2.5070038740888583 -0.1506836145322179 -0.815424596270873 -0.14761834534333287
Ni 5.343661971348125 4.61954450491292 2.7152226912903394 0.20170947076078163 0.21229161715200212 -0.433408288794802
Ni 5.102100746181616 4.392814304269886 11.604317787170721 0.3828429171424245 1.4708859524798152 0.9123636700917835
Ni 5.796839268102032 8.265647774600387 12.404044254982 -0.8147638227584226 0.2960432457483611 0.6301460173726051
Ni 2.128690374523145 6.5650388499158145 0.057788027696821676 -0.1966613668139129 0.7482347286879372 0.5525874049608355
Ni 2.9037666567471336 1.9243528291335334 13.275693885808717 0.5690864310571232 -0.31282149364796447 -0.4480183253984929
Ni 7.950652886753304 9.112532151546098 6.995786961799248 1.737324487987866 0.055912237786587576 1.129496674496487
Ni 8.73915380324423 2.2869458080005343 1.546589100304467 1.2465821413582854 0.9173906909927299 -0.06967021080262839
Ni 6.989394278814991 0.7455393471154466 4.7050082837294385 0.5270704916366535 0.45388429726096663 0.09315389574686539
Ni 1.2571759032795236 7.319485030909182 2.4735884068897254 -0.7324728378679901 -0.12096500442186264 -0.49776300092178793
Ni 8.212141018022164 3.811582434937066 3.583410227660869 -1.2595309882094694 -0.5581818683294775 0.5213983809525408
Ni 7.874662150879026 4.104394712828781 12.966748302545593 -0.07889250073184478 -0.3726302382754808 -2.0248728088913386
Ni 8.097072724305557 7.250106155721478 9.32957835070841 0.3435119807532858 0.2999646922899543 -1.037115138139272
Ni 7.056060829936518 1.201139470720388 0.42038465952552784 -0.34185644742773386 -1.8490893139676992 -0.7302830293055229
Ni 1.4763901352139253 6.942444588497763 9.214027866046704 1.8585484024980703 1.2021642773645425 -0.579265428472654
Ni 0.20531836560748185 5.080383888843673 1.2718087546304857 0.8989047163734003 -0.3082809254651336 0.6532059845158622
Ni 6.670993004177726 2.202507598182776 6.998126683771485 -0.14006213026262973 -0.2279637764716203 -0.2279321519027365
Ni 3.4468159438554182 4.455371273472963 0.021052931548007685 0.43479514183999957 -0.24333820204516157 0.13294583093282264
Ni 5.961925739968312 5.59646518616266 4.861700249596964 0.5416710151586477 -0.5273893084286531 -1.0429862522080682
Ni 5.761816497752574 3.1901862516545925 9.2689492320453 -1.2164241297176663 0.14034906537542927 -0.0367012120757755
P 0.2013731669657696 6.184254121756474 12.524514365820306 0.21303183775213635 -1.9107448819959674 -1.1924125972944173
P 4.192010999330141 6.399148726474371 12.558049467515286 0.08837421497003489 -0.7986841435877406 0.24477313471947523
P 2.820606983526226 8.762432301711186 0.8540679261391607 0.09205397781446728 -0.21511365998182955 1.0722142958352503
P 6.5104636020387945 8.150342038372935 5.9647586117707645 -1.0912962521673655 -2.16360722148148 -1.5547406823129417
P 5.003160278393859 1.537056696734515 12.531023030338705 -1.9814484191591162 -1.0247779567301578 0.8192511691058147
P 3.8472079439678986 6.333431945396219 8.53826008750228 -0.633948678948147 -0.8737202466879727 -0.9387758415367251
P 4.915781434403343 1.076162518378183 3.70787667860476 -0.9884330995525366 -0.6198631473893582 -0.47072630851896996
P 0.4520786685210428 5.504529272444795 3.543285183049547 0.36417439419864384 1.6870805042306494 0.2903515946802225
Ni 0.822246976724387 8.900021104340901 4.5680313521853595 0.417756441190158 0.8214132097541402 -0.42649947749011063
Ni 2.1354026916566142 6.671358300348255 4.804132312842886 -0.5376863194792869 0.20138165510771766 -2.29185590404895
Ni 6.0399256047805 5.792738818587846 9.399510649594466 0.4428131270484696 -1.4431005548364306 -1.5564211553391583
Ni -0.48583934060132505 2.765593380244572 10.484685024499596 0.3794236070482304 0.6149132595832507 -0.6526601393147212
Ni 2.502351827357172 5.367442752049557 6.6166150162327915 1.7423828763473799 0.04578209133112115 2.705232985224489
Ni 0.36230896109441457 0.20500603738167966 9.415095097469655 -0.7635929563115623 0.49567603648577213 -0.9328404498888968
Ni 1.5252758952349574 1.6143168368013805 11.120274790487972 0.2127266478068917 -0.29653381223153447 1.1054504321805607
Ni 4.271481181228706 6.8721798700965255 1.420532697778349 0.07749356350178911 1.4779089207648677 0.5873736594020852
Ni 5.606510830852205 7.497347736339711 7.86199733264679 0.24670146209043967 1.1399060427552692 0.3329195499494202
Ni 5.479652603231776 2.9297026848546865 4.6723407604394644 0.010503213524169008 0.6295063269060771 1.2459769036741186
Ni 0.815440595827007 7.4833203633914005 6.7157655293186025 -0.24116947652861692 0.24863724566057183 0.4635778703996468
Ni 5.169096063856619 4.472047043657607 6.981792465506285 0.5779693353690498 0.38337076462143654 -0.006704922824001356
Ni 0.883011254970593 7.929146074713414 11.37059673106419 0.19656006534935827 -0.9793694466883713 0.21006864135875433
Ni 4.600759149343471 0.6110984842352637 10.264837916949753 0.05602382366378739 -0.7454214276088581 0.0940201004019026
Ni 8.440697699517845 7.16309260790149 4.702748926914717 -0.40544625636423726 -0.3894208274702583 0.14810582650271267
Ni 7.27204219076174 6.052062570046322 6.663062424315544 1.047902458562763 0.19859097973645798 1.8067553290861789
Ni 2.838670879158881 5.1808677329519135 2.3290598902603867 -1.075034796003181 0.4450702985137625 0.24872620582995233
Ni 2.5606439637693237 5.680702483086628 11.048805507964415 0.11503758319383414 -1.0202196479355137 0.04169995084194754
Ni 1.4788650167692587 3.459053365568137 3.456645150563925 -0.4669131054204668 -0.19802507993065896 0.49318103797806034
Ni 1.9316039581185325 1.2922534680545625 2.071586363905639 -1.1266085543154145 0.7248775420192354 0.38384024805868733
Ni 1.157459181129393 3.627235722479649 7.708913579703664 -0.6920540677313114 -0.8370041222138617 1.6814227917242397
Ni 3.6046604191409624 2.564497838368404 6.714762791330501 0.7310952407941732 -0.1477931803583003 0.2769399492600069
Ni 4.2237278393363145 6.863650204514676 5.835320479945975 0.8492883388978536 1.4004783492905302 1.0027469450720472
Ni 0.8544816240522847 -0.12300891922348045 13.556798421434982 -1.0706855178955497 0.6177674412025941 -0.19869768051765133
P 0.1349678026061708 5.825423693445921 8.02122810689949 -0.8584252682021152 -0.9950945707331119 -0.5349828045051948
P 8.775701685105648 1.8074671869685441 8.028633573516538 -0.8621747079422185 0.669987060628943 0.9430829535525113
P 1.8847547242481992 3.579153614033781 10.041181683581721 -0.9161167093763125 0.07213332763114029 0.8635201662265192
P 4.16891514894845 6.286043899674356 3.699415506054884 0.17385876709710055 0.8044313304841629 -0.47929065314921326
P 6.98567739027986 4.441398694950231 10.735555822572035 2.287312507652641 -1.6570680170289593 -0.615931673545436
P 6.378582552073593 8.290560973430459 10.060455622779251 -1.0898124685329875 -1.4034240621824152 0.7391075695756884
P 2.685054707047209 8.624423408485361 5.698089667563378 -0.18781240106371525 0.35712880020577203 -0.20224271755643233
P 7.190133656924894 4.333672854261255 1.5807269406808202 0.6601227662403535 -0.8946012039020399 0.9929227598927738
Ni 5.753770849596674 3.165117801952045 0.5308273904828136 -1.812962229227839 0.32450407219221533 -0.27405877105746995
Ni 1.35832641289898 0.7837347147059498 7.03541794333993 0.05419139844073893 0.149176176748756 -0.5463218836670978
Ni 6.885102222128987 1.0335598524902483 9.270299914635832 0.9603990762334556 0.41067150931891855 -0.9525417849725661
Ni 2.6387351526241423 1.678955994176472 8.871412021505503 0.4893326107662475 -0.0983413534850758 0.18874185485652012
Ni 6.45057329488058 2.086434739997213 2.6842802791656877 1.2342724707529968 0.40024208645547843 -1.0562899112955098
Ni 4.550247821363585 6.965613498113559 10.533605487656828 -0.15917391139141618 1.9508777454611113 0.03161145625769394
Ni 8.262542757150893 7.213293434136427 0.5999688231596739 -0.1830165223369687 1.0945502403282892 0.2797131411297699
Ni 7.720982051937512 4.01929896990407 8.357442136052173 1.3563795591991028 0.4503963387123663 -0.4367368389474027
Ni 3.188113195886841 8.459108626512501 12.059824760252177 0.39776817099368916 0.3963959732365109 0.3508133995107055
Ni 0.14093948175389223 5.310237371744729 10.327632328663675 -0.14605614306253556 -1.131046021261478 0.33707959486438077
Ni 9.064212600589386 2.3473475297974904 5.8775843336357445 -1.066115896246996 0.4344873807915936 -1.4515998505566936
Ni 3.852541268057621 2.8169631542252 10.751621548151896 -1.2123651291569444 -0.44189421477862606 0.6221316317085609
Ni 1.1304729265315694 3.898605115161317 12.401638779699066 0.3938372113703991 -0.015084405136948214 0.07192044028938582
Ni 3.174067558130004 8.429346121018657 7.7980796352084925 0.5256029059521916 -0.16275340121255844 1.123310343180117
Ni 6.144802135339352 7.743265118339776 3.678350702381334 -1.8493525949314151 1.3768162297868998 0.5129651625835231
Ni 3.1466246833190192 8.751555608233687 3.059790130622591 1.3373623946666515 -1.1658186488559728 0.8922668993419084
Ni 3.413857096869447 4.150641208017742 8.572931260287605 0.3886618378170468 0.4084660170271675 1.023222953538212
Ni 7.304306975023706 6.469842667875979 11.476991980452015 0.1335901493850409 -0.1611004389901677 1.0242321115290167
Ni 8.079246271183745 8.939482223162287 2.4841345073328953 -0.0598038595315099 -0.9503373211220796 -0.4121450085406515
Ni 4.813160607697508 0.6849056622502045 1.3686852990547538 -0.5228109450293512 -0.5837178078170527 -0.3374498337196059
Ni 6.124245093342837 5.842976174439835 0.35223500595165347 -0.2331975140667339 0.21775058338404432 -0.6231968397482816
Ni 7.939885782126965 8.92832242515263 11.403264254354164 0.1540090793610251 1.0871953426251146 0.4687054214341993
Ni 9.570485695729673 5.084155571804383 5.937558658913181 -2.5772509260548455 -0.38368701031027475 -1.7753966122692393
Ni 7.364672167203609 6.159057818394241 2.7406052956995413 1.1407426797239515 -0.9119412378423842 -0.9204338486944277
P 8.877957215640954 1.3973583087199948 3.597231208272831 0.20249519988687062 1.703319334687015 0.15580396647791878
P 1.8957136093640665 3.4478022435158464 1.2797475536565053 0.09813437968059227 -0.8444142986350038 -1.0446998924650652
P 4.91577230199908 1.3052762765339183 8.160931974356568 -0.6516854341062777 0.4814390669507837 -0.3570411255879722
P 8.792788413482139 1.5852483940315418 12.506296132555601 0.1519120876226803 0.8299204758942029 -0.23238658812966428
P 6.343769827022188 7.960470221336269 1.3208077564643816 -0.04914072339070892 0.4766884396396759 0.3185406555199288
P 1.906005828968719 3.265775161741288 5.674097928323465 0.2896136880729335 0.702316625999584 -0.06355047105813572
P 7.180982987853144 3.9514360738240613 5.770588172047399 0.15386561180462532 0.340847032326613 0.21175502792224177
P 2.36531096898325 8.95224019191801 10.074663817331974 0.9787166435957209 -0.18238043141486654 -0.7458256050258123
