# total energy = -340858.6542530431 ev
CRYSTAL
PRIMVEC
9.35598115705359 0.00000000000000 0.00000000000000
0.00000000000000 9.35598115705359 0.00000000000000
0.00000000000000 0.00000000000000 13.69342414041622
PRIMCOORD
 96 1
Ni 2.2397938084919486 3.4449283785911535 8.906107173544536 0.8369539857022166 0.08253781079391591 1.3602267008593347
Ni 7.857424255074144 6.743351449065767 -0.13473080589643274 -0.49571460303319137 0.2600202906865328 -1.4604976672669556
Ni 7.307049310616413 1.4714432162598288 3.6179672491202695 0.8499043752152975 -0.1861715230261826 1.32335476753365
Ni 3.1152329604470346 7.709347142132035 9.106085656066163 0.7018155179934493 4.947475082901054 2.054309626095217
Ni 5.332048479346146 3.328923568875528 13.71916815384258 0.2009042012506669 0.3858097130802323 0.4075609887143949
Ni 8.503988041268011 0.707947442622873 7.680052629695499 -0.07159493862916702 -0.1672389477877378 0.258627009883432
Ni 6.49353739759251 8.65458191312725 6.353653317303677 1.5795356298694345 -0.6852015635858522 -0.6740260065850069
Ni 7.246955843981728 1.2427081902151784 13.576619490135164 -0.48638047011645913 0.6423268757095132 -2.0988804707270567
Ni 7.878484568540543 2.825805684977006 11.816439469810824 1.0778275282569696 -0.3937801328802186 0.49383281262944634
Ni 2.878975725594306 4.137972678912549 5.5339374532093295 2.420654031361986 0.9695550317011108 -2.3511301163292346
Ni 8.543657401151409 3.095650891995159 8.483733277774716 1.2305893654744549 -0.32802159842717055 -1.2672175582204497
Ni 7.35620563533985 5.960021931085223 1.9285951649915742 -2.03873696846794 0.08096403854889281 1.4680094022629684
Ni 0.23849237873861168 5.046896887240909 12.410241136163549 -3.0634527045015947 1.1057062569451086 0.6932637717686964
Ni 2.2174330136520144 6.766760113789414 6.99256110415967 -0.3040002958119087 0.5425169080987108 -2.3080137447557347
Ni 1.545411602872599 0.9417262780809997 1.6977110700872027 -2.2811981672247876 -0.589960446292655 -0.718004469048486
Ni 4.026318400410551 8.913705165799561 13.322305211750605 0.5657026021865548 2.1162755262750523 1.1297753820791703
Ni -0.14090762462167317 1.5050499003874624 5.136403687272157 1.734551039007787 -0.7103518375992347 -0.9629858631240253
Ni 3.8192986065096193 5.677480657708161 10.402278247863757 2.1208870569051346 -0.8076112708740414 0.1792280018288139
Ni 0.40129019235065905 0.2884654806124783 11.172875211159084 -1.273712421916174 0.49300363185993157 -0.5044522400165055
Ni 6.195006752507729 3.9849836758905384 10.894857554646086 -2.4268033387928334 -0.822686677149925 -0.14259312421459958
Ni 4.8343757764504875 5.754536518085441 1.448750284090682 -0.9438252310351745 -2.6670855276204906 -1.12627945311077
Ni 9.381242253557383 6.664330832656527 9.792468497841101 -2.4262245834712277 0.6943356646766364 -0.07454707927895549
Ni 1.804693907223687 6.758882377699361 3.934696213051558 0.6130535806666926 0.3572750959756492 0.9810568616931234
Ni 2.7981306928696728 0.12656303439213873 3.540722397924677 -0.9812334964803037 -0.23629877869987692 -0.24581545994106052
P 6.006380817458392 4.010750047852538 2.4842880491091455 -0.30534189744146767 -0.14514417277122746 -0.19082341997589716
P 6.994007538838437 8.533216126238703 3.546980613685527 0.8366035443413333 0.8852855829280688 1.117735934416133
P 4.641848397280542 2.920684689358501 9.536168880266152 -1.2558530251372502 1.0189646924824902 0.7357432810891459
P 2.672769902049472 8.402980869263018 5.366343763683077 -0.18803737259032777 -0.47760478080635815 0.25661357899782905
P 0.7646362677336035 8.122993778727507 8.317166874973745 0.15146137323850692 0.5314007435808913 -0.512969276348581
P 6.943073577705131 5.7142309514869325 5.96525286012079 -0.06543380412377764 -0.3366167962953493 -0.155970316852454
P 3.2055743139928112 4.336703073554827 0.6623370347380698 0.23873592738645982 -0.8972173013686484 0.26552168012073624
P 8.435156088281651 1.587288974296677 10.034663973900905 0.7270820058697219 -0.016370985158855676 -0.5833974483631565
Ni -0.03281329692996555 5.316096531562847 1.2462887241838996 1.9683900433132617 -0.6105565252764517 0.09751602937030303
Ni 5.544438606401105 1.0165647709364956 7.142708695720221 -1.005671317807694 1.3694888428875513 -1.6653544254074675
Ni 1.3237964784485303 1.0526227221135276 9.165515783640535 -0.1036275415846796 -0.8755341599682598 -1.9216797837409163
Ni 7.166859289745461 6.432405417055216 10.806932851019619 0.2918765159651812 1.4846711791893656 0.7003034522242972
Ni 4.357492063569193 0.8117136934556042 9.179482392233444 -0.5538277051258397 -1.089453542531672 0.6869897658345266
Ni 7.666880343898369 4.434080124891245 3.8824421229843957 -0.5533965311256921 0.36174752992470605 0.9807745545660141
Ni 8.51323175059933 6.894880919035464 5.173704112739878 -0.7060974331982549 0.5533497370481566 0.5862503444309194
Ni 1.9781725088647173 6.002881680525281 9.078972958423217 -2.7269305248025812 -4.617751671291428 0.8775056818723339
Ni 2.7711480433640787 1.8577423200866272 13.174826881599188 3.9378116132148313 -4.301158369305857 1.1286201854288047
Ni 5.524416806837315 7.591153032837939 2.3197341178437694 -0.13221460919375294 2.352558878355961 -0.46597336721501686
Ni 4.406330284935075 3.2316868572556796 3.8247653062690223 0.04236021013376576 0.12616480345524722 -1.0103216720955117
Ni 6.623875570360345 4.372667464920814 7.588676504639557 -0.32646839500743774 -0.1808969048908046 0.3713133192362702
Ni 3.4459294685693433 6.861592338265387 12.332585557397469 0.33937224755329937 -0.44741720147938424 1.0240171673047331
Ni 2.707864187172733 4.597416843014916 2.830019618866506 1.3401062759603761 0.8739534457447014 -1.5343739457311316
Ni 2.802200544650163 0.3189725282001661 7.160140759714265 -1.6262392045735605 2.1236347948536003 -0.4793808988701744
Ni 3.0789036858179695 7.496405012191907 1.8437233179995323 -0.43945038122382385 0.6153326065088564 -0.4547037078384685
Ni 4.224159976847894 3.296346042669398 7.227485111704996 0.8633373607917518 -0.15149119803517783 1.8309509524957757
Ni 0.18845284939890258 4.292318299194724 10.18081469033358 1.0156199443799734 -0.5925446620800633 0.13161219972306368
Ni 1.6485612945505388 3.436470571672618 13.041809155843005 -0.9670127248952315 5.691049944219476 0.37286060911873203
Ni 0.6897884188970034 4.506411214810714 3.7220647016841024 -0.3514592606248206 -0.9207912320338464 0.8661712306961212
Ni 7.938241219855462 3.4501303040852975 1.6091005730457728 -0.7294011409212019 -0.46806418830577456 -1.586984372837996
Ni 5.3508165774419245 7.691364946449042 4.696186999937804 -0.9938373012872432 -1.5584808660816643 0.24757023784863816
Ni 3.3647569765060505 2.143707882547963 2.018575377666714 1.1916893459751476 1.6042205342106244 -1.1740166112857329
Ni 0.44542422641716034 8.61691473320023 6.072348904628641 1.4931915579555508 0.4656406664659465 0.34172454983555983
P 3.979622698717617 5.958057175053262 8.285205907922407 1.5326477070686442 -0.9234813772714998 -1.870937263080726
P 3.7535354153255613 2.002965858791841 5.560392425380626 -0.8118024261372535 -0.62954797877729 0.7725956740308049
P 2.0327178787043896 5.064851014980588 11.382234000336158 0.5476112919024827 -0.1686186017440838 -0.5304082977606349
P 8.995654204294533 7.663287647154212 11.76937514246237 -2.3896894646596714 -1.8030768517933269 -0.8573150658570718
P 0.7601538171864016 8.17772626818927 1.3993853209886127 0.32597191498699346 0.3493118752645145 -0.7532159839526125
P 4.451519673670172 0.3325667687451136 1.9905308243057502 0.10714455359900256 -1.2419379577180545 -0.30909725071884186
P 1.2181955197211918 4.965396935838957 6.138419907591039 -1.3415468650616444 1.5981442461095572 0.9192123175825008
P 7.304046040681844 4.534394954294498 13.25763105676712 0.6483201171784705 -0.11601665927765181 -0.1290542091879003
Ni 1.9119508746065352 2.5551745755460686 3.9498959399540507 -0.016902946402925726 -1.7847052912646746 0.11912460877901418
Ni 5.001482954959302 1.4451435533748684 11.69796374548548 -0.261160317828247 -0.15081602634502414 -0.11355662777293347
Ni 4.299934067813847 8.177192977266309 7.30058058528071 2.9427769491853772 -1.8359509768135285 -1.33809104530256
Ni 1.4754288642103779 6.543685456313032 13.709856145849196 0.5096227284738513 1.2181601385721668 0.3461789860624877
Ni 9.021691899708564 3.6813820890470788 6.001129305264394 -2.0139219663067895 -0.7389239928099726 -0.3324726922199887
Ni 0.15497621340862264 1.9199876623753651 13.44546360461879 -0.3426414052228744 -0.6888625573772071 0.6182482374937546
Ni 5.218298461076723 8.098219140762591 10.862897523192856 -1.1428319581528124 -0.23614065585545782 0.893193782031552
Ni 5.5608209293152155 5.682663871240096 12.381142163732102 0.16336969464031864 -3.518251543157031 -0.3569711915819852
Ni 1.630017740001271 7.594371490337912 11.286887196899436 0.9861360759882437 -1.3027422334896208 -1.7151831760041365
Ni 8.825861859208706 9.062203297891376 13.233325153455544 -0.02531816704981446 -0.406155623726436 1.574813798913733
Ni 4.7681073622867824 5.7322973509998665 6.165409106283406 0.048879756419838404 -0.2286806000329868 1.155058067905359
Ni 8.936636675486874 5.450579403960008 7.607683180253502 0.7171668036385391 -1.103503335756519 0.5854867267920175
Ni 7.919042746628875 9.12857462784723 1.6848802776003886 0.03516626348848782 -0.3389027641160486 0.451851325991338
Ni 1.8059476086917 9.12311073488216 12.93489087497614 -0.009499197739686866 0.4155792310331811 1.689311193333381
Ni 8.112870607172356 7.478142137075777 7.402596332048775 -0.48177716701649276 1.5796742123298277 1.823645162862982
Ni 4.888219447707317 0.5847525614283813 4.327217979911009 1.4798341628120386 1.0086185733614759 0.04233501332278516
Ni 1.6633624566579766 2.220473707511001 11.040213948282982 0.6102847596723037 1.0262972215881614 0.5633821815834943
Ni 1.7891161986845696 2.652046403902838 6.8863819458000695 -0.9576279412462217 -1.323409017810353 -0.6652228064710802
Ni 0.30702961832017606 8.810293506650693 3.495971804703384 -0.4826202317430785 -0.38013914505801627 0.27714049530658724
Ni 6.495436661756738 2.097236724401539 8.847307639096613 0.19963921849531427 -0.06200061007251257 1.5560768846258621
Ni 6.241683742238454 1.6482151232496693 1.6829492031004043 -2.6578712081110742 0.5407353907182558 1.1292750454039842
Ni 7.1098532968752854 0.3197406542488517 11.233017328895514 0.4632706235718731 -0.27895440858687437 -0.4073871821406919
Ni 3.85780782473605 3.56721105162795 11.765280029532898 -0.7638552088340135 0.46412165871825867 -0.7038893698033426
Ni 5.967151188686909 3.4173656582570757 5.382953436938029 1.418329518539338 -0.33497360426497147 1.1999202185253721
P 3.1280880784847205 -0.14502893429823846 10.823487323986056 -0.21771767326357988 0.9171418082067172 1.057953672151178
P -0.07204105450522774 2.3866172199660447 2.7975936595542703 1.3428144189201583 -0.995536286256221 1.383782633802404
P 7.498276208412822 1.9519944737341162 6.161917454135179 -1.6658511625382277 0.13874649677499976 0.6381539752787461
P 4.0261874166750875 5.77759901150822 4.145177719961183 -0.8288424123386758 0.5019654690389097 -0.9152983272400753
P 5.386219609941636 7.4299962583116335 13.13270531906828 1.6466398797170998 2.150936310882031 2.0380911073538255
P 9.0268751132405 6.253528414316846 3.366843360292371 0.0393317077200871 0.21603128670009247 -3.223914738576815
P 7.513227066217933 4.8080574016033175 9.58835467167125 1.7090050722178824 0.41702110568603024 -2.2895305983498826
P 6.172486905989017 8.600027187306473 9.076329893761173 0.39067501159233364 0.5950802840177235 -1.6219336352196712
