# total energy = -340855.0313691239 ev
CRYSTAL
PRIMVEC
9.36239693216282 0.00000000000000 0.00000000000000

0.00000000000000 9.36239693216282 0.00000000000000

0.00000000000000 0.00000000000000 13.70281427580683

PRIMCOORD
 96 1
Ni 4.722833003312276 0.8519331737585936 5.180993127996714 -0.07470623056463907 1.5963550154196184 0.40864033782150266
Ni 8.841285840431036 5.888507585399985 13.297909387977137 -0.189065556744526 -0.9001763839969723 2.7364747168475905
Ni 3.149753722338196 4.309352108870872 3.7373873692878186 -0.7329865442796151 -0.6376407830877535 0.9199170569590093
Ni 1.2265301616065278 1.7122232229446483 6.136257203298892 0.3137676596113177 -2.5264698388472357 2.7567800040638457
Ni 3.627310860814493 3.3919214792357004 11.364620314393056 -0.5973875919946615 0.05610532763400015 -0.6119559767271396
Ni 2.715731729209977 0.8168007795825369 10.62919093454466 -0.7069716082730921 1.4255093241172287 -0.33056107701957266
Ni 1.9785646885063974 0.9935001040336954 2.4718366100938236 1.538449401352086 -1.1414260789442214 -0.9793619904892036
Ni 7.975001984782221 7.072888236392094 8.727390410282984 0.7085605500267668 -2.0942082620623674 -1.4106102955182094
Ni 4.932990725382882 1.5370715026926376 7.423362072518768 -0.7124349453805086 -0.8859419855651451 -0.23337620573644324
Ni 8.814546835030153 9.2926095429363 6.03171855256178 -1.5512889763189155 -2.0781005578672276 3.159212156192108
Ni 3.4497155549848806 4.976179462047545 9.560179354964642 -1.3298095220200583 1.283673132673312 0.4751720029951494
Ni 2.473311187597549 3.0636852081048875 8.543060732399852 1.1669728170650742 -2.3271023859560698 -2.2523637594915984
Ni 6.96973334790927 7.733948353109754 2.000597217011265 -1.298128131756377 -0.4532767455839548 0.9607199499079843
Ni 4.3900559697096755 4.658878470436422 1.9294935579014763 -1.1100856169597269 0.41734017958834574 -1.767493812482395
Ni 4.942736980502742 6.526049361232833 7.944507722005183 1.8522599983861974 -1.0491846677092964 0.07604268998787549
Ni 3.681528500967336 8.82383433270441 0.8128798077821551 -0.49106399163505754 -1.1446008771277771 0.5437842048469086
Ni 2.686137192770133 1.8060812513563658 4.3128789237639085 1.0881309670655066 1.1064197380723655 1.8248085870434636
Ni 2.0029630946950197 0.8668278109057459 13.420412605788204 0.2782221584065402 -0.23671298341916008 0.37641618768047436
Ni 8.502086202589988 4.8634562039849945 6.210553439734207 -0.8299731835090093 0.2749576287226555 -1.2207667229570782
Ni 7.200422806269841 3.58608822748813 11.006525487231254 -0.9058556937699367 -0.08208323975500056 -0.09366014595932257
Ni 7.914389827581477 2.6093749010047795 2.4577911423408803 3.453853122276303 0.6049769743061453 1.0773030232120673
Ni 8.752380519952467 6.109076292766733 1.7036294788769062 -0.37462952809369676 0.29083007697853785 2.283565124795067
Ni 1.3391785204942868 2.9269661269182237 10.282646496375532 -1.7668335531905766 1.6458047854103142 1.448469789568144
Ni 6.42170544835018 0.164407433628042 3.8168507125441224 1.8712275406276355 -0.47174060871609724 -0.22467636396960014
P 6.768816311528677 0.6715254039155267 5.8792743896274535 0.7679486621770968 1.3421166215221854 1.1513009148557722
P 2.4326596604789774 8.167099643331012 9.959767388721744 0.6407240499987675 -0.3526450534028056 -0.012395802561191554
P 8.793668690056773 4.9584189952249 10.011316745772609 -0.5131402547088065 0.2527031881998293 0.25020279037547877
P 6.595611969821268 5.945693105353977 6.339675872117553 0.09542726516207437 -1.838031256381325 0.1962726160159265
P 5.763276165147104 8.26811990533225 8.863528086625324 1.3903751994182572 -0.21603642890641506 -0.013097456613906475
P 7.630428331149817 4.116992303210308 0.41779321443007694 -1.4620411004946756 -0.251786847033147 1.7580558069979464
P 0.09117944667320438 9.047305383094363 12.633748445423072 -0.2467500559401879 -0.8429937641383934 1.1897872438564283
P 1.7660289176361337 3.1066211600546265 12.386412645464892 0.13613991239008813 0.6676882372924371 2.0609885807772894
Ni 7.247553112007955 6.105453045186151 11.895371783046595 -1.876873168949187 -0.6279569801410863 -2.4047057355628456
Ni 8.758540977079141 1.791447825081302 4.786063822911699 -1.1492381187894725 1.5717590712478091 -2.095774835218539
Ni 6.5743686913707755 6.05987689732498 0.41257648690578674 -1.4354702919846825 -0.24075064382364347 0.37919220776371465
Ni 7.580030548911386 6.205143846834826 4.033888860059094 0.34843230087303867 0.4938392403873494 0.6203575705272736
Ni 8.137917052352524 1.826116780613331 9.980472329353416 4.10764454698199 -0.6879117634281636 1.445422260991072
Ni 2.708588220414153 3.0910889436820543 0.7631673529930741 0.5832097578323826 -1.2025599701410643 -0.4732148792687786
Ni 0.22058743216044607 0.7614577793284377 1.3732276853549084 -3.2328382663186903 -0.07161319346161216 -1.9848667008120462
Ni 7.241673526786751 1.6923281296404191 13.574308876473818 0.9753700957209912 1.3280578294362742 1.135163128753645
Ni 3.960218967972981 8.159778248995053 5.4356868356385615 -1.361461087487068 -0.5587238568758766 0.5240191064048394
Ni 0.7890908936284061 5.317092418511971 3.5300505373878313 -1.3182791527829556 0.1214817961572811 2.9232129110105207
Ni 5.1118312299934185 6.7702581206434305 3.710214884912823 0.1522779556025313 -0.7661175225056289 0.03977265191224763
Ni 3.500881053764934 8.489989985861017 12.11301380515833 -1.4681335865456588 -1.07740843844168 0.5273869944358078
Ni 7.022256394232436 8.792357954497906 13.539215804364527 0.6559457520445284 -1.0712642732171551 -0.845372548783215
Ni 1.1740913768550036 3.6963491751793813 5.466668879291435 0.2010939486639698 2.729853611986647 -1.0843121075400488
Ni 7.276351844715629 4.198248545463206 8.266194996540086 0.28047444477582667 1.1587162334832366 0.9445173720061927
Ni 1.5860368382131647 4.919265451602176 1.6206870689514954 1.2289070926760255 0.14963229044956813 -2.2146721584780953
Ni 2.9442959234858135 7.339370137906578 7.548181547310291 -2.539754214660968 0.6982144309057523 0.664098720168966
Ni 0.3381173447652992 8.82137202233311 10.332332736453434 -0.37657302497331274 1.0170031978807452 -0.1311182908057806
Ni 0.5936443057267117 4.701617812052331 8.025546756651183 0.05672316372365715 -0.6050116841988226 0.16965064255302395
Ni 4.458897673740733 1.0402184643104504 13.078445443438575 1.0814448132945826 1.15991076801197 -0.6311580035768872
Ni 7.3205329954462925 8.002321458787746 10.612281509595592 -0.8290709834097141 1.4089617041711928 1.1835649170958003
Ni 9.28855562510066 2.796220254921253 0.4489709321770954 2.663747721496509 -0.4972181841619114 2.0527631075437034
Ni 1.322644527658866 8.142336103665276 1.1325513582754576 0.12482628714948181 -1.3933489373346004 -1.2411967086766558
Ni 6.179060209213375 7.926523493897845 5.993775566851638 0.5945485798839696 0.7319388197413911 -0.08840635375955097
P 7.531720581170292 0.4497152427265948 2.029976418323581 -0.3435479761975438 0.37601715246984274 -1.1293940874803516
P 3.94960200994616 1.3143775312411556 1.5842373855387772 0.5541388086083553 1.7132857018711074 0.5367473526047852
P 3.1021552967576307 6.435112400638019 2.7950593177119707 1.2564104403026168 -1.9862304139287925 0.5766796700233487
P 2.841262746162028 4.742831082981845 7.435900194379014 -0.4171013241046623 3.315621874574825 -1.9899500288722245
P 4.344142775561938 2.430618657965885 9.52559372476457 -1.1490928514608596 -0.680306697387396 0.6790756531937724
P 6.344493761536072 1.4207624466369007 11.776184726199459 -0.8395268886357155 -0.23397347300080995 -2.0350366367982176
P 0.9178163603853522 9.279960944793233 4.674303955484915 0.4701282699236548 1.3263992107869285 -1.1261480697392283
P 4.801720559162365 2.9239514351328295 4.448974469320426 0.10980101738524316 0.712378124000644 -1.7149970281352593
Ni 4.575141193018527 6.723464861191883 10.863850985408911 -0.4446656068761761 1.6137395294446528 0.3678616132422439
Ni 1.4798672579449477 6.237650088694725 9.63938148734886 -1.5119420990901766 1.5006981507452413 -1.4284375535076175
Ni 5.271825229746818 3.254032098442905 12.8398794006089 2.307114629980233 -0.15740807774024504 1.4116526207397946
Ni 3.664432764320973 3.0975302727142 6.26280310406938 -1.8009942582326852 -0.09397150655215429 -0.7541786049761978
Ni 7.729782086511927 0.023615709812041478 8.530865274264281 -0.11264208637846407 -0.027628560350545964 -1.1573327228721486
Ni 6.421920783477709 4.6169536573463805 2.541269081366057 2.387006775621186 -0.035034365896313854 0.4385111572390061
Ni 7.887154615147593 2.359885749771319 7.000986901070767 0.405449855908663 -1.1313141873212 0.3223777698778319
Ni 5.977703140180877 2.2183637590010923 1.8520178514962253 -3.912811748736384 -0.6229728966629337 -0.48390141244834733
Ni 1.17589831944687 0.34418885912190755 8.312566011893741 1.7210530045213521 -2.3471654752545317 -0.8726056734675552
Ni 6.287289516788383 1.8794075434781186 9.120360165707494 -1.229936048161172 0.36448138391610135 -0.0519815352736137
Ni 4.926081276508284 9.295586785134295 10.517992810928819 1.281964377512321 0.9490337718193075 -0.04030589870789833
Ni 8.875056005865558 3.893539977614054 12.414791006554045 1.0696120823257127 0.47209516384203853 -3.946856239915603
Ni 2.7708762466508765 6.278648024496711 5.255687266298112 -0.6703009923249359 -1.3769797519479574 -0.010895563866581236
Ni 9.001495175311964 8.42436894634603 2.8904855475959037 0.28154119547744416 -0.5746060753237717 1.3873443830117331
Ni 4.8697477346675555 4.010083093591017 8.1033098886397 0.7819766010250727 -0.4686547707019219 -0.06273954512106614
Ni 5.654222966649381 4.968932966886381 10.120569363323217 1.053341370190147 -0.6298837648501538 -0.07908481924830896
Ni 0.4356650937752268 1.572573711544232 11.871871230715795 -1.8695653224338642 -0.38976201285976103 -0.4859097011276277
Ni 0.46515477137036165 7.1343710964998 4.968257001833881 -0.8808465733201088 -0.3723548731269071 2.081918388951421
Ni 5.927988812912425 3.777530518257486 6.122568442865897 1.627825061003442 0.49098762987116734 -0.7503762005109722
Ni 3.356615880717936 6.624167280210868 0.6690874357760342 0.577627892869231 -1.6686912030901841 -0.7985334769424893
Ni 2.020330340850006 5.461132894034591 11.634072904427745 1.6257355254642645 -2.0513896242349445 -0.8085250409375624
Ni 4.366350380887883 8.915258137935375 3.217818347430783 -1.755406028079925 0.5977588592911512 -1.1105589570517198
Ni 0.16615726559912927 7.048639628553056 11.750779862349566 0.9576778206475507 1.512550422098137 -2.301780362251513
Ni 1.9836859195828276 8.014417675516718 3.447546287634956 0.9898940003687791 0.7152503033421166 -0.5782557562612171
P 1.1728461780740802 2.9999460103565614 3.076980747870222 0.11720065228342395 0.8091444196891161 -0.3456326266407144
P 4.845049731779763 5.26500940484071 12.507956217598933 0.19268798398846168 0.5176186021951343 -0.6416000248458176
P 8.31578386769076 4.08617129278324 4.083384107241277 -0.10364476797586021 0.18248481820321474 0.26971797759027094
P 1.526042599204458 6.094967160715216 13.429785301273787 -0.27608222924540193 1.1094734372970247 2.3917967408106615
P 0.4714453658132378 7.163937545749096 7.4664300342640795 0.15861135401972684 -0.1369600942985383 -1.0246020932739257
P 5.148541188038539 7.662288567627131 13.301732990850288 0.14152611640266594 0.2295509184530821 -0.0905812499236827
P 2.9257396529309982 0.4651631975275258 6.626503198224706 1.3646263725889274 -0.4394444676865528 0.1370218007744092
P 0.4002480827349589 2.172675262377733 8.451539558241656 -1.9907038763191134 1.7123565051886185 -0.698421404710236
