# total energy = -340885.7032729759 ev
CRYSTAL
PRIMVEC
9.14470069521480 0.00000000000000 0.00000000000000

0.00000000000000 9.14470069521480 0.00000000000000

0.00000000000000 0.00000000000000 13.38419382796153

PRIMCOORD
 96 1
Ni 6.341968854018082 2.1641117228387743 11.590176629651639 -0.061925019639570776 -0.04782637545465957 -0.7202649829478885
Ni 4.806344979900385 0.5916219021013481 5.959472541109888 -0.8157416132906596 0.38847209040374386 -1.0749766890717356
Ni 2.624556550504102 1.9863387401807542 4.74449571082069 1.2954017339641497 -0.5232567743175183 0.13308518472416433
Ni 3.7488152059032607 4.660176083048234 4.966713768083366 -1.0808861125776352 1.0522648492965168 -0.5207628042510708
Ni 3.7286145619376456 3.186452688334454 2.618255851684587 -1.1294439668816807 -0.5587107442497539 0.6981627517322105
Ni 5.312284693816929 4.833138953109644 2.7772200138317524 0.920502240038518 -0.7273982515585601 -1.2769381279423235
Ni 5.386384204026699 3.1076802360393834 0.6848768169805503 0.3222217039159419 0.9408939163209925 0.1788341088245049
Ni 5.884953289135509 8.247002059794903 12.396694427121924 -0.6257283479208836 -0.10440787139412985 0.03512306895537822
Ni 2.333883092337033 5.5406004375423805 11.990110057957585 1.97404518471651 0.949964511163693 -1.1664164303409719
Ni 0.5267192174398888 0.6522430378697782 0.7085122105493733 -0.35998555292827683 -1.2306348740004096 0.8094056437703029
Ni 8.241076293706302 0.14994931614385898 6.75620733771353 -0.03130986585687511 0.5778371806665596 0.7648756796787278
Ni 8.609077341449309 2.7253585869155916 1.628133495885447 1.3694160806680866 -0.2890845550423408 -0.4095479372374366
Ni 0.8825578131800574 0.37306355408042824 4.843819963590331 -0.619554615010004 -0.6868319001004235 -0.084585437351564
Ni 1.9599471338046717 6.912442721155698 0.5364208304698217 1.1923161809258693 0.4850437535829065 0.6229284165782433
Ni 7.770554005810051 3.7331503335116363 3.8743088488206623 0.7174123439904418 1.7057258872459784 0.6061895065570077
Ni 7.591592212054009 3.805448337672866 12.662277569830207 1.136170744082553 0.535213175348446 0.5169102632742001
Ni 8.464353307316292 7.761500752063578 8.729171038571463 -0.264931354834905 0.5153447185592931 2.335002100419121
Ni 6.556265771487631 1.092755161301583 0.4758993719396103 1.4466198808435988 -0.8782621004223843 -0.026679566173715346
Ni 1.9944775238518262 7.053746637206713 9.235254324289848 -0.7569348275650964 -0.5918026417077163 -0.2827521850664098
Ni 0.4004409591977935 5.301795722052075 1.476008655432208 -0.8411150590584417 -0.26677329313965026 0.1263748625835243
Ni 6.754083938198448 2.3089546380815924 6.976002049276393 -0.7434370501889777 -0.319386805570308 1.125112172275546
Ni 3.722990570973927 4.6564907686443675 0.6833149020917647 -0.9196560899881387 0.9218345856966963 -0.7199693060843406
Ni 6.176550362078733 5.7180533556740105 4.7646259405905 1.0032092294204464 0.8132142188831155 0.8398053391080827
Ni 5.520235188963193 3.2838620407662047 9.40910148691417 -1.2016695971163112 -0.07877551553800627 -0.5976994668081255
P 0.3984464999633432 6.102194800247851 12.638399841691403 -1.336481534723595 -2.8504704890404713 -0.1617874377548633
P 4.2253729962971605 6.349229746416768 12.72767223939223 0.6853380891637165 1.0435130712458158 0.30316160196069725
P 2.714604418828872 8.917034284041463 1.2372030254718274 -0.9583352517258915 -0.19211179977001752 -0.20034627186466786
P 6.484543883473903 8.062553445586452 5.929545593422303 0.33305504708601996 -0.13273320070138434 -0.9132887530092143
P 4.715117445178347 1.5113629830172994 12.743198112332395 -0.4471688329140041 -2.2572750807502864 0.26343805811883014
P 4.270630120328772 6.231125936178685 8.246362845212197 -1.178217536740958 0.6940232756425402 0.11251173144818687
P 4.7278651580294415 1.6521822299283513 4.010574034756216 0.19849199226474848 -0.4379138899746394 -0.2520429289080111
P 0.4063859291579776 6.303945188282894 3.7331192415290726 0.18239868624731168 -2.0901793434086327 -1.748065528554454
Ni 0.6616611651763366 8.023432415760784 2.3383658246466505 1.0511770155489768 -1.1408249550251126 0.8792360342998793
Ni 1.9534909750723384 7.061720816264213 5.0125543240230845 0.21121509625837173 -1.2514155581911866 -0.7783662579659949
Ni 6.260041479962875 6.21967677083466 9.170501612720754 0.07841556109542624 -0.9659526590618331 -0.16427420873245902
Ni 8.437897688034932 2.5477319194696357 10.397202863846672 1.232626964729774 -0.08612578525549038 -0.14242651672974826
Ni 2.4101864754285205 5.845009236241978 6.980606406106038 1.246293149362957 -0.5257972813511849 0.8071862675214808
Ni 0.5366238428265607 0.44334880960569967 9.877481171423753 -0.5192983038904024 0.1253561915110228 -2.0330399180831633
Ni 1.3741467482033287 1.0010978256441068 12.002877889150337 0.986532540095714 0.4609234634959352 -1.2598192088738496
Ni 4.49695231928985 7.482779417782004 1.5403599146382003 0.0865711003230251 -0.7027264598434929 -0.7681592355260061
Ni 5.801846248683035 8.760650756447081 7.794632917365444 -0.17440666918077058 -2.0015562456525853 1.2344182523022418
Ni 7.142130169994251 0.7133991386323181 4.732678014036278 -0.49442519479780656 1.2074090707032494 0.4813387939274937
Ni 0.8933723362917537 7.806501824474078 7.025911997051646 0.6557107532155868 0.13603192605731412 -0.27729347594468373
Ni 5.250146452193408 4.807168002968245 7.04724658391076 0.9730157365562018 0.34771676286325276 0.28400842607101406
Ni 0.9396728706793989 7.66865460530808 11.379736946960133 -0.23830372494504765 1.0049632359970757 -0.4114592953275365
Ni 4.678291735241935 0.7502650852520475 10.32748457976815 -1.3731606353121835 -0.07814045305716864 0.667924007452327
Ni 8.315395276734169 7.528301738135483 4.851957832791328 -0.27123672822764255 0.7674364984273687 0.1894288536212157
Ni 7.555040843140218 6.461160883645892 7.106498757976315 -0.4539550025979021 -1.1000084352293829 -1.4021181988867981
Ni 2.623760961538503 5.528501998444821 2.731500167941987 -1.5135631796333675 0.4250681443602228 -0.3406863383790326
Ni 3.3702886075923852 4.926305164391532 9.904410486204172 0.6079401706995272 0.3063433421227885 -0.9667515008140448
Ni 1.3951064023315272 3.9299717278402664 4.164853366707099 -0.6631127021066128 -0.20347658996353343 -1.8363628675399664
Ni 1.7518411787455892 1.325176875665587 2.49616586638783 -0.3035858339823094 0.9833939944667321 1.7027866021119964
Ni 1.40782668108036 3.867385395879799 8.284615128466235 -1.0261118450502327 0.49784861865705865 0.19443427725560708
Ni 5.560700489799703 3.313536594712978 5.097183042681026 2.106042021472502 -0.5267922982746024 -1.6535204088870168
Ni 4.489691426891163 7.22668207316586 5.751870459062352 -0.9997516098891491 -0.17268300162144454 0.6997763760762336
Ni 8.699234946183125 7.733892900487212 0.10193323589476094 -2.146808147646271 0.7894263724348985 0.8389702448012971
P 0.3741801220424933 5.8114847632777655 8.068433488171284 0.1048938098916129 1.1874393124495422 0.7200289556776825
P 8.87993423308243 1.695656137312931 8.230462954011193 -0.716536883364024 0.8712345041516415 -0.16093254595373574
P 1.9787394938541691 3.5124338361127694 10.723670509705101 -0.5654362358990456 -0.32666559861990835 -1.87658340562291
P 4.240031951605844 6.434348621035125 3.643552384463964 0.6918206115642667 1.6585415162506918 1.0728285323804814
P 7.105697682190263 4.215999678024296 10.451622978033805 0.6265135628263404 1.4515592271267452 0.9343553438715263
P 6.632358826461776 8.09947974723116 10.146490833504565 -0.5198901718381305 0.6358489812946533 0.6069137863175419
P 2.7513569711592516 8.793727139074347 5.923054684827105 -0.5752195405380546 1.2885428020607874 0.6173249543485368
P 7.179961797013606 4.253566108721784 1.5620429145960415 -0.8645758611845433 1.2411386017452108 0.13417636090581406
Ni 2.721856166526804 1.874700233375759 0.369487976085609 1.1724451530335551 0.4401600056963387 -0.29290495722969556
Ni 1.654550707423641 1.6408610903948828 7.119119359486929 -0.36633334952317553 -0.8692208161557223 -1.416538488077186
Ni 6.750206585078747 0.9624157414546302 9.336091110564201 2.203361361450967 1.0667579007063692 0.042821466040900445
Ni 2.5657378352542883 2.05871904664877 9.112146533799168 1.8054656637404778 -0.343700185504692 2.4747384719112153
Ni 6.525923654385814 2.1500380283783476 2.7747710629698275 -1.4379647762717622 -0.11341907375380467 -0.18333431068770362
Ni 4.231115868370681 7.444609436834752 10.034718814068562 0.7210789942087517 0.07807180460276232 0.9384505969868224
Ni 7.404583081634436 6.447434687814117 11.402945283003742 1.3363126132458987 -0.3947319552705267 -0.212811237100898
Ni 7.867698161919936 4.15234341607561 8.437649866644499 0.5423631561296659 -0.028136353224899928 -0.5898763712192809
Ni 3.170604921927749 8.417002046812012 12.380433320241137 1.393098511886691 -0.14960632230763912 0.6515332247991296
Ni 0.5190440700970455 5.390535898169021 10.354989096225996 -0.6386090605382938 -1.0831705377364378 -0.251974794674237
Ni -0.2839356426515122 2.737950839853868 6.016208093527938 0.6913472714722738 -0.3774325447601306 -0.5967358173432755
Ni 3.86422132941891 3.1251008909757787 11.72993417680515 -0.47572170485103227 0.7231613306590771 -0.3790693090326052
Ni 1.3483038238724867 3.6766269381510797 12.68667654591199 -1.8175063969550955 -1.044992998225452 1.7715443284026846
Ni 2.9829373730538866 -0.18224931367710964 8.280934386412746 1.161997989558302 0.20577489907940688 -1.197180450996706
Ni 5.839632152198618 8.130123639457857 3.7232822869279802 -0.40673515037898983 -0.32053891689688024 -0.7088230596595341
Ni 2.970464001225412 8.329039170259156 3.3490463822108874 0.7805509243221396 0.4929930903369703 0.005944390508892988
Ni 4.018208945415741 2.871929850600918 6.623997826562381 -0.4896110612386148 -0.9223632045066567 1.5063620338992378
Ni 5.333610135975288 4.998676326158794 11.393389070715799 -0.27210550398584105 0.15032057476584432 0.0889308588044533
Ni 7.963507191719733 0.1821532943191925 2.5426090581072374 -0.6054503143981379 -0.4001456700869302 -0.5327063497661922
Ni 4.443282070564545 1.0132419882454364 1.9380309439776031 0.506124999733238 -0.895533228798006 -0.06064769558904394
Ni 6.530203374338693 5.927933382679371 0.15022914398693182 -1.0918336127280746 0.3675235131765348 0.7993096929868815
Ni 8.029358181849384 0.21066921468043245 11.580888357095787 -0.2551161685166961 -0.4131361688093272 0.3131752774429574
Ni 0.3398170800191372 5.1191669032936735 5.824279114102706 -0.8147149717983582 1.2759621371822993 0.6557665461541867
Ni 7.352467432037313 6.37113130472263 2.4279198791307035 0.6857507512211028 0.2633894642690819 0.7956553840637458
P 8.793782007278871 1.8261967405764719 3.7312052556612576 0.6164248111317706 0.38453521724318296 0.3721869800904752
P 1.7355819008049533 3.575376811402643 1.701706271331786 0.8349518676705232 -0.44521993671774934 0.010816116778897501
P 4.80022717509595 1.567045065908487 8.12043117112868 -0.01776092352784683 -0.523400241873918 1.06191239968861
P 8.791550700294891 1.9214022201265053 12.75445432449051 -2.1949535970032454 1.5268598967422735 -0.8507620952299025
P 6.588445973441004 8.162742787047423 1.24250603743908 0.19104042108270972 -0.4517153146341059 -0.07414161631042071
P 2.1521504542525247 3.7047834717726866 6.205635082826873 -1.3430892698480996 0.10290609003762276 -0.3039352469019282
P 7.335970391877074 4.414220211568291 6.176845735913088 -0.36072268820461745 -0.7488325101729361 -0.6419172989759203
P 2.4904220798442336 9.021530779557574 10.41279549310234 1.3024473279570215 -0.2166864037855881 -0.5039282491922353
