# total energy = -340888.9681500512 ev
CRYSTAL
PRIMVEC
9.10772662658824 0.00000000000000 0.00000000000000
0.00000000000000 9.10772662658824 0.00000000000000
0.00000000000000 0.00000000000000 13.33007854113275
PRIMCOORD
 96 1
Ni 6.546105641488211 2.086243181219706 11.208902823063365 0.1342249547555624 0.47224454493570933 0.9663802335175551
Ni 4.9745674143652785 0.5744115666828478 5.980806355281959 -0.747702510333551 -0.6743605071062901 -0.04503210053897406
Ni 3.024785300992474 1.6804484219646367 4.476107001455967 -0.18220842461337652 0.055937434597568184 0.8985501612474589
Ni 3.7623563253164174 4.482194605924288 4.6252168800234035 -0.3218717767756908 -0.17881636821269206 0.4845241336340107
Ni 3.887633104882201 2.6000646858349907 2.3749799734048236 0.13566682940841152 1.030630815966509 0.25971458652065593
Ni 5.345260995252734 4.685670326191767 2.575131373458452 -0.41833853894587303 0.21537771227649358 -0.5793883272037635
Ni 5.598000408771491 3.1493881087888744 0.22572862870172644 0.18673665150103322 -1.6177980157847427 -0.22703972199545414
Ni 5.82153134304143 8.300800250804375 12.498414830969852 -0.5209224697573868 -0.38106885596113726 -0.859520815259139
Ni 2.2616671035182563 6.6926489626960235 0.055708320602840505 -1.558620219873006 1.1315743829611222 1.992046249279621
Ni 0.6551697785628771 0.4111901765007817 0.0838639466551606 -0.4131580231861981 0.26791152050915146 0.26539903849994295
Ni 8.260261759648628 9.162099741169843 6.567702793606301 0.7399894579600094 0.07094470663967782 0.7896194622823111
Ni 9.066231810838369 2.919390688623499 0.9069665423771579 -0.16582381260776602 -1.8821315891346488 1.2542671687073688
Ni 6.986373145974578 0.7249932538709921 4.620897996063382 1.2596988812459016 1.1606941831452138 0.5877143305709555
Ni 1.0041086436618318 7.471377803585417 2.102193542837558 -0.8573963127169686 1.2113037777719655 0.33340651688816775
Ni 7.922902458165808 4.426692119942908 3.405501935017854 0.062072600961028575 -0.8674524114013901 0.584985875896199
Ni 8.120439940681424 4.138450788085553 12.604575403147003 -0.5802007958027298 0.8358838925664894 -0.3735656056055566
Ni 8.618158984644413 7.093999151363808 9.15571067095062 -0.7540186823595659 0.0126228309703331 -0.24112473933361053
Ni 7.28726511009779 0.7644734271942751 0.29147912866837883 0.01596063709431445 1.8469596692192063 -0.10024576959664026
Ni 2.2752740470785096 6.746912797857996 9.280041157721286 -0.04279549789897146 0.8476191787255467 -0.5061756504655153
Ni 0.47758550351165496 5.141612228179603 1.343498968179415 -1.2000143209010752 0.9296545959617473 -0.6570361568952298
Ni 6.601489727023618 2.232932226053331 6.749671528249162 0.4585428790789006 -0.25727640939280855 0.025138189828524452
Ni 3.595530096940812 4.236468141897764 0.3050869830012933 -0.7104359126726087 0.30571239340700895 -0.09267181390412428
Ni 6.248629074844982 5.86423747313114 4.508459467931689 -0.4245994322539204 0.6198924579653969 1.0593407823066916
Ni 5.479135468741462 3.3333186477442354 9.243303320881262 0.10115722566731611 -1.6084258305412236 0.7137793752235448
P 0.42942384518058535 5.958848537189981 12.366260807038373 0.5619444206957032 -0.38381299436517774 0.37467555084028376
P 4.216412927895303 6.17052121140942 12.834225818928411 1.5179633655835922 -0.008858221721578293 -2.02537211712526
P 2.3574803874900514 8.80739022048871 1.0361815029305272 1.756861015358897 -1.3417224714075602 1.5171447263370388
P 6.640671166913986 7.840887380013146 5.796091641065193 -0.5671473050528814 0.43218315813844926 -1.4906392238473427
P 4.861959482518579 1.1811264181177072 12.329163214997127 0.3838947554457066 0.7899102540498525 1.201621260376879
P 4.396126589428712 6.371446768225177 8.178150139593866 0.536506954459205 0.8218790936469652 -0.15035014245219913
P 5.086000449478863 1.1701424998220815 3.736473987826774 -0.8095429406791155 0.0320058634826352 -0.7371555880556402
P 0.31194965500440613 5.977045774963331 3.604852765902174 0.6412986915553148 -0.2531191926913254 -0.6457981220875652
Ni 1.0012761406850992 0.08809539643969445 4.436930115428906 0.7501712835890177 1.3774847166088342 -0.44057806707036384
Ni 2.09018682684326 6.598875809485604 4.942886187340954 0.18714314291083253 0.9798602702818607 0.02132627228160198
Ni 6.362876397482073 5.585322453325793 9.1281980503972 -0.4413355140616786 1.7119363869320643 0.9506638512235628
Ni 8.878157256273962 2.4695873943730193 10.196070798851327 0.0774979343771633 0.7701053035087834 -1.5846500682778644
Ni 2.848058973788224 5.19716025279405 7.108250921968282 -1.4550813813473906 0.2964260830090766 -1.076992433950184
Ni 0.23769618147158755 0.15204894194554505 9.231412273014953 0.9924301365270713 0.580183055190917 -0.5435841730209606
Ni 1.581083124613659 1.3110025996232013 11.245520437912091 0.00858362790395296 -0.28170214653534065 0.12726832093207113
Ni 4.333838847120432 7.331747246877091 1.2413958882084826 0.41929524643218763 0.45367398102237344 1.1977756613785435
Ni 6.191787753051448 8.094865444351308 7.949099012223611 -1.0763851393834882 -0.779022146382439 -0.11156633681578206
Ni 5.7422576905993665 3.1166913702471684 4.492449906090851 -0.11514942618135007 0.10225148717275938 0.24985337745586006
Ni 1.128583943285646 7.667658419828398 7.142536048031346 -0.373342433851157 -0.3548415468334921 0.14202799573974895
Ni 5.332309808008637 4.553817768011189 7.172568776538664 0.269766057219387 0.5244754772159677 -1.139731721960934
Ni 1.1095305792106462 7.964142244270779 11.444592572362044 -0.9213825857609422 -1.3292904162917945 -0.6955957623359827
Ni 4.709541677645197 0.4549701075581983 10.266519974977774 0.32581404925289054 0.6773458149868592 -1.0832754387454182
Ni 8.596528133937854 7.648459332127586 4.545370351577364 -2.0900502740299363 -0.9708282419865797 0.8037219631219641
Ni 7.4857589039078 6.248556213032075 6.9556218178374705 0.4711837077713627 -0.9352107498932861 -0.04842364271902628
Ni 2.3654405405500656 5.579420646480382 2.7077389621752714 0.679420695238017 -0.4014782728554247 -1.0263874673091227
Ni 2.598999081821236 5.598601518727967 11.442139861585085 0.27247497151011785 -1.1274765587426647 -0.7114088181088394
Ni 1.1878843512647672 3.7235209790373553 3.78209003656943 -0.5211384424229347 -0.23847650307748608 -1.933343336121774
Ni 1.440377856164965 1.5460912389654045 2.282442738695829 0.7061234013401839 -0.5503929684126779 0.48518027916077083
Ni 1.0188358375955193 3.525263986119291 8.060978325941246 -0.003400798151432853 0.6333845789145607 -1.2754990815029517
Ni 3.6357042790320278 2.911293919664286 7.468909609673216 0.12845102838626266 -0.43219447099235886 -0.44941983373170985
Ni 4.392538145143076 6.994897978084616 5.973328000959787 0.23665847603214085 0.39877450077101645 -0.06900455219417148
Ni 8.450585922686518 7.553092326759842 0.006411839535755112 0.11455498713046078 -0.06657074594169825 0.497823164735762
P 0.7638194924234409 5.660433874705583 8.099196168355927 -0.628450117727421 0.6442636877209098 -1.5397305820573548
P 8.677532254436441 1.8186308501414499 7.801428154461073 -0.12898376096128109 -0.39039270446522445 0.4948581685701671
P 1.9299272693558356 3.5357560871777993 10.035096284824759 1.002318856395693 0.10952873756046297 1.7668379240659506
P 4.083121348909826 6.3654994227467 3.6010940071288697 1.8221613792286038 0.9416881300875137 0.7173544941693129
P 7.436167332498444 4.077893513833798 10.58528220948892 -2.111355206155299 1.0875077316592108 -2.0791462255229223
P 6.7262382584458305 7.843182527119694 10.113716913268648 -0.8111804762825384 0.5890585033036759 0.19145565424325736
P 2.468685729438304 8.85491433795685 5.922140755847783 1.8327844061600889 -0.9668013802153738 -0.7921329727327842
P 7.024334150498764 4.388885946771147 1.2177066912873191 1.7631545616770927 -0.5591110650119662 1.281160393553787
Ni 3.0130909800210115 1.5441057545637076 0.2775871132651299 0.053124133518489144 2.470594882056487 -0.0019409257764547215
Ni 1.6955945713225353 1.4981481660730538 6.848447555688259 -1.0289272030118408 -0.024298210425732346 -1.6230986020620497
Ni 6.945342837581713 0.8677641547155801 9.083275099649816 1.165898610164289 0.8374530368258223 0.7455235004043612
Ni 2.2189609734285463 1.699465355133183 9.015798685489944 1.2263457597067524 -1.1167362895070252 0.605850378050034
Ni 6.974669717276502 2.4788044137056677 2.45104133067038 -0.7278983311234303 -1.0465102062009268 -0.6089642410886674
Ni 4.339130436282752 7.238730034975576 10.568099572460289 0.7599144790187106 -1.2471177021467812 -0.17395106970059074
Ni 7.436677365188788 6.231151347474081 11.35181489367046 0.6400049124445558 0.21086516911812073 -0.13292654765911302
Ni 7.647776252631589 3.8020751210769688 8.251438194105674 0.9639561974570947 0.14286694670127653 -0.11884410142411792
Ni 3.121910097596583 8.931947489652043 12.130464497338318 1.4531026603544652 -1.618565747188703 0.19159115137985713
Ni 0.4542760987902657 5.201058359784537 10.2857281704052 -0.6018895936300731 -1.2082770751304996 -0.03871078630663656
Ni 8.819184726452917 2.7114886132219627 5.5429933831178735 -0.06431460291766988 -0.3697362045571374 1.1234946912767814
Ni 3.8061462748731087 2.894399086796636 11.360892564785923 -0.24463043849402386 0.032457349197757 -0.29943298815620045
Ni 1.4387020344681196 3.4379391033510807 12.220869613247142 0.0171212330613189 1.0937711960704195 0.530642268148312
Ni 3.694339822968379 8.688789404530466 7.867585769807339 -0.9449670579491016 -0.07392615786550495 0.7040225529470971
Ni 5.863445100915785 8.162144220843672 3.4630746072584344 -0.799554719118152 -0.8051952052333812 -0.3330540186447554
Ni 3.2810038660775063 8.390283664779936 3.2798125754364884 -0.5270581503414794 0.7078838356747162 0.12970958338371208
Ni 3.625776857023543 4.762111475657098 9.385681678708817 0.752347208194414 -0.6594694489270707 0.7624236185938095
Ni 5.4598270883212905 4.725279829232958 11.61284415995263 -0.43955656778438496 -0.018056857501710835 -0.33652989300849784
Ni 8.277029084343694 9.347350900484132 2.6211864146238684 0.06565311922343532 -1.848924506255061 -1.6313816680064483
Ni 4.974476337099145 0.6673713999066997 1.5413033070847988 0.6106686253742838 -0.29663717057861816 -0.3618143786068994
Ni 6.461103229006389 6.15005614970936 0.2205572615307012 -1.5154413704926868 -0.22908529167057318 -0.48625474317187223
Ni 8.053571011886659 0.04470891917197197 11.382900475374273 -0.2076083527437199 -0.6930282587191227 -0.5926855585333018
Ni 0.20185363415765192 5.128242085511296 5.693676166071425 0.2014274207439886 -0.16190725116217924 0.7014758752658434
Ni 7.488919285042611 6.496678009157894 2.3188472327418044 0.7434979853339002 0.22941130755142428 0.7784696163130786
P 8.851253031858308 1.9327324491527285 3.5889106012382737 -0.5493822677599765 0.7538057950178115 -0.045028500994548255
P 2.0377991833636244 3.6264326133397 1.6504238904112696 -0.06692272996447829 -1.0303402813092837 -0.8860553712145578
P 5.135373435449501 1.3631534422108915 8.152356147052371 -1.466748276162358 0.24466206306290766 -0.6093226528693506
P 8.765084830369984 1.910910336187289 12.220735729665927 -0.4198665455546253 0.3260444200961417 1.4546188398886757
P 6.610406191378027 8.173592633196575 1.3122849675303525 -0.3639800187996506 -0.5685786381827691 0.27298045039162666
P 1.9999474715587977 3.5177865425697807 5.61589527002128 1.4166865836192764 -0.6830410655994237 3.136717574634017
P 7.08901722490634 4.2494466523217005 5.841266875839765 0.5420844485469825 0.32758785332386164 0.010054041801892361
P 2.55688495396139 8.802508479023986 9.923950143099491 -0.24356240224082568 0.1917698430495665 0.2283926364789228
