# total energy = -381176.04743531765 ev
CRYSTAL
PRIMVEC
9.13426035247008 0.00000000000000 0.00000000000000
0.00000000000000 9.13426035247008 0.00000000000000
0.00000000000000 0.00000000000000 13.36891333103324
PRIMCOORD
 96 1
Ni 7.807225647892502 3.425420606965414 8.49286969942896 0.42132281838517766 0.45151476858752565 0.23234725025129663
Ni 8.934484685314642 3.436610075572837 5.06381000324461 0.5129402228828586 -0.12231380514027322 0.8587659393709857
Ni 7.698701503790626 8.954945427911072 6.044713531559678 -1.1936904355655764 -0.19500711903994156 -1.7960009187831518
Ni 1.392061237364347 2.1035744268951593 12.021941322739464 -0.65444139958486 1.0607656876786764 -1.0398163391205189
Ni 0.31791700892613095 7.418197510757675 6.377118390410899 1.2428324445078658 -0.7568949754660964 0.7431187476176105
Ni 1.4889574683745896 1.428689620315994 8.452869861078945 -0.6135053234921305 0.4986312624593541 -0.8104351134760817
Ni 7.900020596123371 2.076189915152257 6.60779956179553 -0.10081269784370381 0.1941655969752527 -0.17085186194997673
Ni 0.8535335788002651 8.690216302049567 12.811094809589656 0.16520829051095418 0.02217242233198117 -2.7426217102855928
Ni 4.469119433105341 1.9881356479069006 8.940955395160762 1.331478939302681 0.7408302086937499 0.547399947222625
Ni 3.4038180818580206 6.9325745731955 9.736806121507248 -2.4866799605438077 -2.0380317148708 -1.075164893823142
Ni 6.30537060427409 2.4252830671836914 13.16601287927901 -0.4300146897322207 0.7955350564357977 0.3258976101056323
Ni 5.233519988543894 1.16842714763737 11.374431893643115 2.1788476925803186 0.18890049192157143 -0.5911241275834529
Ni 2.5483854903855243 5.196818531511545 12.840626785879174 1.157802977640348 -1.3355466816141512 0.2538447580034402
Ni 5.704071396961376 3.6285391485354332 7.336043975528969 -0.41920268671838123 1.9289549772460908 2.667692307966554
Ni 1.9263423784136604 3.23122623750107 4.26746420000137 -0.32185146506071666 -0.9050524811423509 -0.6470425360176276
Ni 3.7848811441963788 3.948156043263884 5.851091880202832 0.22245570216919755 0.18889586393588115 -0.15936417302535133
Ni 3.803798196837991 6.105257234272921 1.676689348826891 -0.34203411065617867 -0.48801594883735305 0.14824826561784793
Ni 6.218092749136188 2.9486304989080367 10.16522666869626 1.1732416807929213 -0.2112698607557071 0.3588540104269949
Ni 5.845232252356578 7.312934297507106 1.7711001476672728 0.5447378270094295 0.9370056370101798 1.2677952851007908
Ni 5.289513002881449 6.864688752223769 13.033152326025496 -0.47228722524818667 -0.5491297854295382 -1.0324560421007059
Ni 3.2579074112172197 0.5747221641615636 12.208090235918569 0.18461060629696593 0.18851302667516565 0.7088479993601986
Ni 4.796116809984648 6.0995117846777624 4.9227943825848035 -0.23377755493991997 0.2798226701244406 0.19799679779588483
Ni 0.46667208815823946 4.414688377242782 12.00057811524637 -0.5559740620448812 0.6281989209485633 -0.03452143081563733
Ni 6.247578140699259 4.538631152372682 11.973038321081976 0.6566857155343465 0.35744761699777144 0.4470549330439591
P 4.324350544975502 5.540522470091241 11.42015343251206 -1.482422235254189 -0.10101890031723892 1.5039619090981775
Ni 8.47996390335106 9.464006876858267 7.984275924598256 1.8793748523251181 0.020040720700959035 1.2361786866367743
P 2.3812467993009254 7.290107781547962 7.723554912063229 -0.5909701185040919 -0.13532281580543146 -0.4447861916144405
Ni 4.576867165099763 8.240573214972812 10.921853968800185 -1.0578927370062554 1.9267546271606626 0.4905852522264261
P 0.8632040199551052 4.828589104596395 1.9649227527460476 0.400605126221852 0.15042676132640545 -0.2033619187625401
P 0.5991015043356152 3.2661556480764062 7.279653620877599 0.522598571908229 -0.2812023240807867 0.5577666351689298
P 4.449416834096189 7.78581494224695 3.3712252150131157 -0.5072202896799458 -0.3268383767523468 0.13412699572511738
Ni 7.800950411212257 6.586002476948269 12.300362704472423 1.2402561991402576 -0.4023565616953199 0.40431702785580037
Ni 0.8773164517905904 8.943290112039177 1.5983603282969012 -1.4782452210583636 0.48476941687559744 1.2544659149817363
Ni 8.922555341640114 1.087159635637169 10.263648321141146 -0.4874906724615024 -0.7926140261342608 0.5394331269670646
Ni 2.5705908766587044 5.295632957140204 3.5463180197820776 0.7953067424750754 0.03343513972999403 -0.003633225877213097
Ni 2.9889673914552874 3.645921645482312 1.972636635390104 -0.7186246191309882 0.51453070729843 -0.5475017629078118
Ni 2.780980289258528 0.9624495826599025 2.5960690683213055 0.10326013094293185 0.5252249537874826 1.0104815947121435
Ni 3.604232882442083 1.682128800709112 6.7312472600286775 -0.3492995339693403 -1.193983798436279 0.03866064979499148
Ni 7.938320548671066 5.430335890653406 10.28804684326138 1.632818400452975 -1.4320715507157789 -0.7783289769701562
Ni 2.882078279909109 3.5730028472022624 8.152884318130964 -0.6768308230236537 0.23856880568097624 -0.512593123956085
Ni 1.6953095380156524 4.897032115433475 6.191037070756442 0.4163119954341475 -0.03522771285404255 0.12452238275581781
Ni 6.027031430881923 6.640168639268286 10.647844434689583 1.017140494789558 -1.7117299273482134 -1.19518116117849
Ni 8.422107499955615 3.632640431314807 0.6427477393126365 0.27574232940747995 -0.5907441185362149 -0.9328581905007096
Ni 1.8805157955537068 8.994615519471921 10.523098758097975 -0.5718336547849572 -0.34076244303260667 -0.48937169153429916
Ni 2.2260100491105903 7.423568455689239 2.5862561327090976 -0.5599654425924615 -0.2724736859585372 1.9103008524800134
Ni 2.595682689119596 6.999766190400567 5.14402342163069 -0.8687832143976715 -1.2971346574948563 1.0426011009545075
Ni 0.4874835863420382 3.14373829438115 9.935415078871975 1.0358663533338353 1.5006233316432478 -0.06444187252415352
Ni 3.6022964193034923 8.313966994777422 1.0831871459250317 0.6988222396930803 1.5949823034418078 -0.9102103711942066
Ni 2.8710075566828253 7.378426942335862 12.342407703656072 0.782429115181459 0.4313922868060377 0.4330570761029703
Ni 3.9394967647007513 5.757470281434027 7.394118687740509 0.07881176809258039 0.1727763326661992 0.06636608613005988
Ni 6.773327882826668 4.441342148178669 5.327137933608664 -0.3362511854258145 0.044256398715214106 -0.5267105371940735
Ni 7.583162247941403 8.657406039814576 3.1922823196171923 -1.1755317623786785 -0.8564331774727508 0.9337171960668951
Ni 0.9915239325190279 5.126311177894646 8.695716040048367 -0.15071523910110174 1.4387150241742253 -0.4396894938178234
Ni 5.696818794451748 2.331501618863352 5.6954915864610065 -0.7978958433584904 -1.9939028428723855 -1.8440131849963726
Ni 4.66270180714381 4.633252952621089 9.53770300067178 1.1478425239935264 0.19051283071401384 -1.183858022856187
Ni 0.9383534045485695 2.3356211701629013 1.7831190070906586 -1.0308375326606765 0.8244730796263866 1.1688363526363743
P 8.049831595821617 2.9126689169427915 11.481757622821485 -0.4747372294505759 0.8381896578815307 -0.10690698366689975
Ni 4.6895017262411 3.9969512606523376 3.6858895139220196 1.188900470376101 -0.7612401398086696 -0.9844548316310788
P 6.521733822971264 3.0297335942266597 1.899655724141458 -0.9441749010651095 0.41400725856037085 0.0884174095031445
Ni 7.307919588718963 1.7260097861703871 4.105459876512064 -0.6163358509623902 0.9639466843753979 0.2807528952481939
P 2.6581610281194132 2.2354914110816155 10.162152076750742 0.2504113068418591 -0.1702391680666423 0.37230216551210077
P 2.0343184669102743 1.243382885916975 0.3979340407203266 0.6200348970805323 -0.8472808215495214 1.4542108058169794
P 7.891251706439186 7.0517035932591865 4.810054777452457 -0.36239596214198233 0.4355762429803982 -0.21806220108719224
Ni 3.4061564524404697 9.213271437451107 8.689672813574349 -0.47712424162551376 -1.8800837054666848 -0.12294629651794954
Ni 0.8210430156683427 6.5454554964190015 0.3943881209542844 0.33578787263615073 -0.7386679109351085 -0.2697645145574903
Ni 4.1752428833040085 8.08235869599389 6.636568827367726 0.7186212766968785 0.4744682920599054 0.06247549282640207
Ni 8.600654881889742 5.1521519996827285 6.796955473395502 -1.6802236292098158 0.3987210218252617 0.18745861726872232
Ni 0.6258393104643087 8.452250558245 4.000072437324302 0.6814467245291103 0.06553767669149359 0.6511272476099625
Ni 8.715719156214405 6.928528095976652 2.2456295263529453 -0.3187278318300704 -1.3370788019879618 0.5358765199640577
Ni 1.1892441263772213 0.42332271663406806 6.04836358189072 -0.14535654589234967 1.2839520973663114 0.5109087942751265
Ni 7.110546496744102 5.50481664740845 0.7853445003936226 -0.18247479090088575 0.2011929361356793 1.2331357860453924
Ni 4.89800034700277 4.500678301708319 0.6929267971043755 0.8136587626197019 -1.9682455473155973 -0.3431368568020542
Ni 5.698956211312268 0.21368688049147988 0.5289622614002502 0.08051229572345489 0.29028705999087423 -1.806335725050257
Ni 5.463118750108134 0.8026630575198878 2.7759345239860864 -0.8216793189313332 0.9521931433838956 -1.0501308336726494
Ni 8.139657909523985 7.168850478883844 8.413404376944062 -0.4290117023890031 -1.0374023303623876 0.07091513895332302
Ni 2.5121407463575602 4.50970295067496 10.379771256209972 -0.5084374499164985 0.08261314411654161 1.3112487282987355
Ni 6.592853172014038 6.7236192394294445 6.518093820326319 -0.6491876073850883 -0.34281675445847415 0.5253051722061147
Ni 4.060580516423204 1.9225973317777065 0.8705781081238995 0.8681229551058532 0.29111366965722774 -0.8067340104754107
Ni 6.806759274747623 0.3163395222089865 9.437984283294439 -2.0049097355058505 1.3209309885835057 0.3216370350570654
Ni 5.349470286097063 7.723592362529589 8.691598315600833 0.8958942116818506 -0.5443025392442239 -1.2866036760565456
Ni 8.2791015240227 1.238486922509972 12.720253679591544 0.2757209892512413 -1.0051038753399981 0.41938960591820673
Ni 1.1501586274619848 6.615643150932831 11.18719965721761 -1.5629710406425341 -0.37460870215809033 -0.9127660477365248
Ni 3.1661994399367863 -0.08758385285084017 4.745523056784927 0.4207384066366173 1.924348845932647 -0.8992338175780449
Ni 6.625508151827539 5.989535293221945 3.4432570766386505 0.39714210737391603 -0.7422846817520894 0.028595038028873334
Ni 5.624402380476521 9.10918654375185 4.834292536595149 -0.13716912498555087 -1.0809187655877837 1.428948945926397
Ni 0.5168949903983996 5.962141647218955 4.301956079518506 -0.813324776319051 -1.156543394201634 -0.12537341790220347
Ni 4.201604357917089 3.125953889990413 11.847837758338 -1.3029317237926077 0.7659493723588809 0.01901639320150273
Ni 8.149787803961235 8.068301069718931 10.56243088203558 1.8464017398332073 -0.598810183373801 0.6661262921219561
P 3.655814049157283 2.1039580658188424 4.603090712385519 1.2611484692082344 -0.7301159076000394 -0.7561593828516525
Ni 7.824763427260872 1.2424146543476797 1.7746561151194116 0.012203226934411242 1.2783730606166372 -0.7731865135372683
P 6.474655846479297 8.42307573152491 11.874923579776036 0.7890823588319184 1.279668382389293 1.1978931607930143
Ni 8.196500410049696 3.9896986581427094 3.0090618502222024 -0.5640961769313834 0.5385111293734275 -0.29541666790795573
P 5.813627712453162 0.49791308451016564 7.493529580552893 -0.573336978803361 0.12027929120874768 -1.1353778158676122
P 6.618081998376246 5.302465383685798 8.577467562657134 -0.15216225596027344 0.8174783934761083 -0.8938941505326863
P 0.19639937984951292 1.4388286490133328 3.8505674353389936 1.420815261075669 0.4223186066395436 -0.2275817105418532
Ni 7.735603914544905 8.26536359685081 0.515385097205904 0.689855774528412 -0.03167084874071965 0.21702090430687143
