# total energy = -340867.34153224103 ev
CRYSTAL
PRIMVEC
9.24087912044605 0.00000000000000 0.00000000000000

0.00000000000000 9.24087912044605 0.00000000000000

0.00000000000000 0.00000000000000 13.52496067514705

PRIMCOORD
 96 1
Ni 8.414134738650642 6.078973795377487 3.577649830211577 -2.2798563084849124 -0.405387892322476 0.2494096050502221
Ni 6.5118812651716595 6.161088248311315 1.4802123535840777 0.6812153252445945 1.3996237145997186 0.6552500115290844
Ni 6.843425530573399 1.7841735185399272 12.699762518753774 0.4015926869461019 0.027032321527443767 1.9067046504883227
Ni 8.855885729878269 5.594502219419602 0.9890226584181242 -0.6826695411926179 -0.1343483677073041 -1.2231827885977387
Ni 4.333879955146941 0.7359426986500924 4.072527560282537 -1.145242367366518 -0.9010783269859514 -0.42353550976578025
Ni 6.37902514432655 1.993802864117676 3.7419914748059693 -2.085661400933621 0.047495217367485944 -0.19470887107323243
Ni 0.43096411288982994 7.333691137815272 12.612134033176957 0.1305099677978204 -1.925392970926445 2.065299549447817
Ni 1.9513502648854 4.48491288545872 5.819817957508624 -1.424131727043412 -2.1910846009661427 -1.0384284576340568
Ni 5.1364225945734665 1.891515571801163 1.9791884135983366 -0.9925046985187487 1.5801215842798917 -1.6419206198645595
Ni 3.2000055905412137 1.9200883704137437 5.9462488950175985 -0.13004048436056956 0.05599271331553582 -0.1381219758171234
Ni 0.7540474292586851 2.3565350969571455 1.5312552741586094 1.140693314543255 0.2317111593291945 -0.6092997700512152
Ni 4.764347832821539 3.075078144084719 12.987776698403762 -0.42164883426602867 -0.2728035584941302 0.6017859781726733
Ni 0.8630944247398499 2.0237895172541007 5.1729869055535 -0.05686174618405045 -0.7889257786493961 -0.8543019900623611
Ni 8.930468866230836 3.076907838174399 12.812344150544549 0.412305959598548 -0.8610735044582397 -0.9977407501067074
Ni 7.5819565994988425 1.6804354081826072 5.49630031981545 0.4728685516729534 -0.925857076592528 1.596055996121961
Ni 0.6333153419775176 -0.08806003463736382 2.0924196791997396 -0.14932067274642025 -0.14151814598286594 0.3523077246680449
Ni 2.3980913309030627 6.254883172605525 6.993973314725037 0.08254629543434816 1.8687842212934653 1.7165767139175534
Ni 4.331403399510404 0.9657180850607285 7.766844414997249 0.9559610950667602 -0.7928796210908216 0.33299822570615556
Ni 3.6477539123961247 0.9840242668367708 12.088920995089905 0.5228068312642932 -1.6845564522572152 -0.10418315697783347
Ni 3.948433641133563 6.947579480496556 9.139492010130388 -2.028687040431106 -1.6358520450729763 0.40730927771490505
Ni 7.488401938064893 4.801708707592129 10.596860910231188 -2.5247441144053804 -3.805998353224555 1.5300874025406357
Ni 4.391469114575662 4.016381826191231 6.616329999142598 0.5786319086537132 0.5285316495632123 -0.333223197232768
Ni 5.2166796307798915 7.377058584092388 13.390239167451163 -0.42953003678631824 0.4865619899996459 0.05549263375066572
Ni 3.542417129930145 7.502503519786368 11.717782334405072 -1.1532634378987816 -0.4332879611668538 0.9622075901971042
P 4.970105249997388 5.200110734301122 12.741568256439194 0.1989067112046639 1.538995246553227 -0.9602880045768881
P 2.090074344048422 0.17833510802874952 4.070756083732074 0.8233639057226078 0.32102871204910516 0.058050881396145185
P 2.7571918982008947 4.67330669054109 9.628798414107065 1.1673014040490863 -0.5168279879730389 -1.1571414327969491
P 7.862897810177913 2.6977822855617344 9.73636224847008 -0.9177295623893872 1.321645755262343 -0.12871739467377186
P 7.7183334953347 8.250386358503508 10.932644891028609 0.4465150013800891 -1.0810730317774606 -1.1012999003472967
P 8.225648524775863 7.777844757645508 1.3899733196217312 -0.10999513567392023 -0.4723355619876188 0.5853895390925209
P 5.176528010478577 0.5123503845394816 13.700785382954013 0.3205582001705899 -0.12228115213012489 -0.5085336091747307
P 1.6474916736891234 7.913158952368672 9.18914233020333 -0.1340236373780337 -1.3269553404007148 -0.5709201418317522
Ni 1.252453327023786 6.831467832835792 4.422662626540936 1.2637277998996366 -1.6129067491307127 2.1004023066882214
Ni 6.803421764339937 7.515080356433109 8.420302101455958 -1.7500378217894763 -0.8357247412808059 -0.7549982726640159
Ni 5.427371677470333 6.397211194672463 6.495916722195238 -0.011311825468393422 0.5057300782876646 0.840497994299733
Ni 8.773688109031275 1.5964358158836547 8.164342683716491 -1.7869323808229807 -0.17659596352260554 -2.7605471844157616
Ni 4.279247877075279 6.351866200237814 3.080458183978718 1.1880694898343733 0.770084477573177 0.2754075717758805
Ni 0.777410220155298 0.6602543531403234 13.435750497712148 -0.04434175934016879 -0.9162072122075898 -0.9512775735481618
Ni 0.5476283651291934 3.7619526980540403 3.3855818515430607 -0.7118302219169741 1.3133272080943188 0.6374147831198763
Ni 3.312005046939817 9.035971984523151 10.03905094435447 -0.32293441371225035 -0.3278688748993902 -0.8972594674604935
Ni 8.57212605103075 3.4434288315026005 6.447403030268915 1.257648426474776 2.64800125729553 1.395885587713525
Ni 1.535889575097875 4.492037603353384 13.199333691391143 -1.982713401914469 -0.2029525991392634 -1.7504396852135853
Ni 5.921278191133084 0.06703241392490329 11.44011516724102 -1.6699821539874657 -0.39065624253925624 -0.3327835385921882
Ni 4.549441945197289 3.1905614119571073 4.035699884244141 -1.1355701343840767 2.2185835777173595 -0.20127623987810495
Ni 0.2839112292670665 4.561334956780209 8.776441891045033 0.697601994132734 -0.7638217844929167 -1.1102362836049784
Ni 5.916038612603545 5.406810721159533 4.392244424343965 1.394571753998108 -0.8162512059372264 0.16829361430449727
Ni 5.094810915352104 8.597196556411065 2.0988032785792905 0.5572169333130468 -1.2094847222853558 0.31179536637629524
Ni 3.215594953820458 0.6496254938375452 1.73354828570708 -1.784396244664688 -1.144042690631462 -1.5419995805971896
Ni 7.154094649770151 9.022267760609031 3.562759077402937 -0.5249341620199411 -1.8623760037742763 0.29896093361578835
Ni 2.584831018601328 2.485630179951245 13.36643466252684 -1.5958107128803742 -0.29838526361797646 0.5668359444600496
Ni 1.075046927358738 8.726384048197573 11.1120944490938 0.4332792194161054 1.2668835719197988 -1.050102037317243
Ni 4.6251062644210315 4.798012355895806 1.3435111028868685 2.4902028860954015 -1.6521862634566256 0.920438476680118
Ni 8.395292585878634 1.7906236522500119 3.2977509907108695 3.7490281064870983 -0.024158342413758395 -1.5254105658902568
Ni 6.7542510458995935 4.034817380276644 2.4797742347763445 0.45884266970750653 -0.432678609717629 -0.11370215221186224
Ni 0.09190146813776806 8.71069303524668 4.3782056806013285 -0.9749846873571145 2.0740693252206475 -1.1273819421463294
Ni 6.509081278761694 0.6913563804011139 9.072773786099672 0.05077954454571255 0.5755432424260604 0.4583150793388107
P 7.795522559633175 3.7010830264948322 4.473935645008564 0.11256752438678677 1.5334316364225204 -0.9281893242701305
P 8.933980400342344 5.1682851461957755 12.071676590338631 1.7028750480607449 0.6264875946844114 0.830290457639112
P 0.9411650689178993 5.882401812167002 2.529032741569476 2.4314125554300707 -0.9643531757851972 -0.07102621060989057
P 2.598757023617227 8.02327326940215 0.3290797229082161 -0.4254774639834995 0.11792750314711949 -0.33786558110078585
P 3.7241575019591324 5.703082550499106 5.3553168456780496 -0.23664742028854727 -0.5691129134196843 -1.5391801088705235
P 5.529742137700014 2.388074217806026 5.741224279565545 -1.2913499324922795 -1.0061950515216478 1.7094547581607917
P 1.4554754439443565 2.6990852495346886 7.157436151703629 -0.10954185018658555 -0.12812964049110193 0.9904696703665908
P 7.184395492800764 5.341034142723457 8.520752306979398 -1.8355426856315165 -1.2621355157118521 -1.8214085602229795
Ni 2.9934534577506544 8.547046304771195 6.2608934404637475 0.7078835785644002 -0.04364884703820225 -0.8953457953775483
Ni 1.6901475722646973 6.003401884946153 10.640817000515941 -1.4772383770604043 1.7740881778704607 0.8052828798511807
Ni 8.517817403732517 6.365625869427378 9.694867928415075 2.4524662907765764 4.6537674272644045 0.9353699011789697
Ni 7.116502753018541 0.7223604543419516 1.466619944308772 0.347841204256259 -0.3026702641465755 0.045540921854592534
Ni 7.2283081509530875 6.467709862400594 12.510831818587516 0.10223194678873361 -0.6893117290994838 -0.07699091283375772
Ni 5.645576558983553 6.917740681427984 10.693253445679987 0.994292900767423 -0.11807354180668053 0.7008613816102962
Ni 2.8473089525572624 5.696392153928761 0.6697807755496733 -0.396096439718221 3.7725889245261737 0.7494855703759027
Ni 8.434270614516365 1.1202625494840157 10.984148007389333 0.7196543459470831 -0.37237595617282965 0.22122002998988352
Ni 6.601388421498134 2.9895815293487553 7.79144548371213 -0.7136485060726355 0.5010658400427758 0.3543039291624672
Ni 5.08402680927808 4.738981619305519 9.680815323353578 -0.13645615807892628 0.07039988987980134 -0.8341301431001763
Ni 7.620149153401106 7.450800800434042 5.585253947475401 -1.2558859352577145 -1.3002636900421414 -0.08368709390701072
Ni 5.807975770761527 -0.07487329996072958 5.717528817016262 0.10656914071150679 0.3854800976549555 1.8764095990492071
Ni 8.728795917679424 8.542850945595868 8.732647516146994 1.5305939098634092 0.8210296011624763 0.7498563234517601
Ni 0.5143140713781534 7.965194343373667 6.374354803958245 2.3857986142456977 -1.1115647726084146 2.815694519011867
Ni 1.0229376093198168 2.349641401043502 9.505869769830358 1.8002522378603385 0.5540305651652652 1.9516501048507613
Ni 2.7574044384234333 4.695512523356754 3.41737879292276 -0.730802906364735 0.5219583672210689 -0.1745056566524801
Ni 5.868743792649086 2.8701339242820603 10.901429200953157 0.49369011640399496 -0.40296334204138345 -0.9781574286581411
Ni 6.7799776537060055 4.144358762797192 13.36248511073932 1.3193032231720958 0.7811607899919967 0.6339427654108759
Ni 7.629611813743693 8.705749164852847 13.10655249154965 0.23658005738572158 0.5127759293908524 -0.6588464706310911
Ni 2.449378210689552 2.3119663363787244 3.175133764064577 -1.5572881313251439 -2.119326397286234 4.125725829963733
Ni 3.202167956283563 3.0896972150436786 11.047160638844485 -0.3509455542131956 0.3828722277184632 -0.5434317066034963
Ni 1.5865757977337118 0.37527118188132313 7.883537313962259 0.7910826770913988 0.844560594404881 -0.2655800441624975
Ni 3.3688456951500325 3.02139787657486 8.43670835846009 -0.8253572820035527 -0.12361169801609033 0.6302694303243468
Ni 2.4428171864285777 7.4931794726323915 2.5980500963553053 -0.30930473874395764 1.624382868091112 -1.6520602794017223
P 8.211121862609312 9.32192175175074 6.590362204388001 -0.45782965506195994 -0.9560019756070246 1.318461958217723
P 4.819497400130687 8.100878173266464 7.717167296374509 0.30951325521033785 1.6439754455110591 -0.8404056916962429
P 4.432905217091449 1.5222407964592004 9.992673743708622 1.2017598428372724 0.9014714486593121 -0.8417447222226407
P 3.251301711206944 3.2316463610617436 1.6870768280929764 0.9283811285659624 1.2552341606063284 -2.0214321586409056
P 7.99448793056703 2.6325694007593463 1.1627826071347493 -1.466990731190467 0.6681065557767785 -0.276238295207292
P 5.482327186315424 7.6597463209479715 4.293403979984274 1.0420866232119343 -0.1313211508452061 -0.7647486671825604
P 1.3969529557123141 1.6569173705147484 11.600616302422932 0.2600493441522554 0.46390877137650427 -0.2690492336580205
P -0.014264221196112535 5.843737973423457 6.2399702416867076 0.6844639140888793 -0.5035772936107198 -0.5164778037224718
