# total energy = -381174.12413865165 ev
CRYSTAL
PRIMVEC
9.20195357492327 0.00000000000000 0.00000000000000

0.00000000000000 9.20195357492327 0.00000000000000

0.00000000000000 0.00000000000000 13.46798920462030

PRIMCOORD
 96 1
Ni 8.826615013450793 0.06615100328154604 5.894588289727505 0.11916677487085929 -0.7305157141416193 -0.3458203171714883
Ni 0.6559492923187101 5.449847755187564 2.0156465041881666 -0.3306243261573403 1.625972066955103 -0.5917589329539744
Ni 5.754432415856823 7.665705762533175 13.201753737276187 -0.0833047708669275 0.506686785773979 -0.35873136880620154
Ni 5.31921682337908 5.481355243952867 10.852384586678301 0.9892746216172253 -0.5679016667204025 0.9935742774338437
Ni 4.26818809913976 2.2417339005722563 6.09663558260711 -0.4589833090504289 -0.4999147571574681 -0.732976516977286
Ni 0.5666627375611927 4.175101137588998 7.531070140563867 -0.8588980940734757 -0.9791717288552684 -0.21736106125510954
Ni 0.5590508816305095 8.313707327618651 1.0521808088168365 -0.18687960483680074 0.5682557076257116 0.21296987416594934
Ni 1.4864467596939435 5.859969620485697 11.079359971574615 0.5636390347893067 0.6327518304265684 -0.2146251503811852
Ni 8.880013949579606 5.750944875482393 9.311175161347654 0.7732834441264489 -1.687699368761571 0.36810895336635957
Ni 3.6800912513037356 8.930302625427263 6.337725843968697 -1.991111139059861 0.6630345405705096 -0.6081270898993527
Ni 3.9589472500022627 5.972169039444618 4.127251899612741 -0.48849597379756515 1.744856534698853 -0.852882484007015
Ni 5.228347532620501 7.846947438561625 5.402252491127757 0.7953113704607657 -0.034791910868204594 -2.808936374352427
Ni 7.749066259240209 4.164528093023772 0.8337678416471926 -0.8369678696592875 0.20390570708115208 1.0907920588374376
Ni 4.370651851301457 0.2453590475877041 12.330186111064124 -0.14724887781905607 1.709895445242636 -0.367429925021464
Ni 5.949817494406382 7.401425658169999 2.8729511024836927 1.5018116955243943 0.6915539881664413 0.42331465200422586
Ni 3.337695763725413 0.6889290936431398 8.22813284090083 0.3694292148396799 -0.3157551223549917 1.9688171035483513
Ni 4.772105476407735 5.079616358288259 8.557425666898279 0.2163709294276983 0.13597407623618518 -0.2535513951327375
Ni 7.990884395123214 4.865496102423818 5.834602595287301 1.5872018881654408 -0.7647628082499475 -0.36006140047153473
Ni 3.171683320730425 4.4419485869771504 1.8832690416064193 -0.6783981675107736 0.2512777686072124 0.05273923937524465
Ni 7.15248521028222 0.23890295701593514 3.846040200819612 0.4567415642041037 -1.4116083977654206 -0.029034182448820965
Ni 2.14703659715995 7.084068686050317 2.905409153044982 0.924565354364298 1.066955875649788 -0.826509650440441
Ni 6.988386773614095 4.410845984165607 7.838261714658129 -0.2962232229696511 -0.035958934593112266 0.6458228046779135
Ni 6.047689471774304 2.1198816323975636 7.6315821583893735 -0.02347340053159183 0.28441260348796826 1.5662833928452187
Ni 0.347445519656126 7.569959436422491 12.236651014378179 0.8865145702391635 1.3063129815600147 1.4614402336858832
P 2.020739785447394 5.481152800975988 0.11167490760973217 0.004033032418793055 0.8384758216633817 -0.007004199231975034
Ni 0.7395435186445053 6.489530470768116 6.787273479014186 0.19197810240563065 -0.010012132820363402 -0.44982015449392204
P 0.5939180036166695 3.490963501130464 5.069943264774799 0.14096715857540237 0.3682645051076174 1.0192349154247413
Ni 8.870986833201462 1.4511664699958788 1.8468247047912953 0.08684003771369561 0.3073602134230771 -0.3385533511964298
P 8.401558377631021 7.300811498660703 8.0316895376994 -1.0313044449947657 1.9141621352076326 -1.1582416078396633
P 1.3593401760738684 2.290044156418589 8.522678170307548 -0.0977847096506574 -0.9497745066400739 1.3150747869130448
P 4.726712239819172 4.6164820389080825 6.473779486971513 1.028331221299055 -0.06793574461002493 -0.8963714084285853
Ni 3.7471734922789293 2.92895419145146 8.247836983918688 -0.7462997164487535 1.0011232934256953 1.1903716556049886
Ni 7.879743200816165 4.848592113854348 3.3718727391994827 1.1067532101523843 -0.7630656230531826 -0.21592381458795074
Ni -0.10664511982961684 5.1579709922942625 12.563222822727292 2.1364610000839916 -2.1576232359839036 1.8598136423637388
Ni 2.017270648979953 1.9325298592487379 6.590627732835876 -1.429636458911725 -0.7508523688164424 -1.354576187441777
Ni 0.4259206992529089 6.770732967607751 4.393877581921675 1.173123152937186 -0.0764790061943457 0.009513853027706194
Ni 5.617130067764798 3.245989095198832 9.938917705619552 0.4257235185560346 -0.7964819937300993 0.14350303762337868
Ni 4.877385026338763 7.808455667093967 10.77060682597233 1.1396533033145146 1.9843416815465114 0.9731039253946339
Ni 7.2896587310253205 8.66497349836571 11.42923204636725 0.608305524458746 -1.229602061860521 1.092309009702596
Ni 0.8336178498052317 3.5506197656355645 0.9613998568118058 -0.40914787358554056 -1.2798702139874538 -1.1651393634007612
Ni 1.8010707516257458 4.857867682976844 3.9319790848958163 -0.5844294891720968 0.09155621224244233 0.9689364242805054
Ni 1.4969553905847075 2.617136795335493 2.9229443956241763 0.12994843886739557 -0.5184770935406878 1.2793621640027837
Ni 6.249267465025688 6.540803755639692 6.9309371375569855 0.2346761554947894 -1.037433183600323 1.7319745365298622
Ni 3.088856537326074 4.274601860725454 10.55767822308543 1.976518843067983 -0.5651768115900717 -1.2958671036363425
Ni 0.7156902147959598 3.6462188604903356 10.03561827430762 2.151659819311617 0.91118507640265 1.493099512462377
Ni 2.8302080285015565 0.9405040608164055 4.206982225666179 -0.6658049042267953 -0.6716032560761273 0.536412852083502
Ni 6.451461989161206 3.789281631469943 12.38374884196514 -0.5805008435416519 1.36428415875816 -0.5025737920468699
Ni 2.2520400884861407 5.509319980622773 8.703970457080219 -0.872906749647742 -0.23794171361993863 -1.4857284168092864
Ni 5.806377443333499 2.0690592432472212 0.4499571219759957 0.2812000100879415 0.8801022389549166 -0.73570779986552
Ni 7.755056730965154 6.407467449503813 11.563090103266267 -3.041564903289568 0.03838117088135971 -1.0800052526345787
Ni 5.559792695540322 4.853855631253225 2.7512405443928154 0.3611818872292231 -1.7620412740082556 -2.0674052829369107
Ni 6.209487420068793 5.725059780302253 4.670025445706759 -1.4449473782371824 -0.10569290875414057 1.3706265560364201
Ni 8.367778006352566 1.9892138927751017 4.525311844270233 0.5456215151659635 1.3025139195288988 -0.5131412831500711
Ni 3.7737303300641707 3.75386331246946 4.213568063782222 -0.8963284710057918 -2.157582098333323 -0.9802227958276022
Ni 4.478756400955309 7.535231263934098 8.389466090543847 -0.21725693157707743 1.3320170711943382 -1.496110788484875
Ni 4.330006822716077 6.473574283408585 1.6398221599548803 -1.266688168079541 0.9517223743950641 -1.5463917961276141
P 4.58505736772423 2.799795572202103 2.137356142083694 0.38811959216033154 -0.48376848641490866 0.23844385006733773
Ni 2.8506639711199173 2.2246090651189183 0.7572931667401226 1.3124736018447718 0.41991179697026393 -0.13750979615442124
P 4.997608548744922 0.9737415168386824 10.05440590275742 -1.893108914081759 0.4627486896301321 0.7183839638750918
Ni 7.625272378878168 7.254820135094994 5.241553256080516 0.36865119902307475 1.9569985136468686 0.3216223797690461
P 3.6442128346285263 6.447321110088664 9.92677020681141 -2.2546098752132977 -0.7134788132639905 1.299857455742658
P 8.173037064547625 6.9825251292380734 2.8888161905036283 -0.12461622802120476 0.6613088161286547 -0.21554329132008038
P 1.578926392314066 8.407696080611878 5.647922564743576 0.49130696088379894 0.0268986241630569 -0.3494381164297337
Ni 5.043866768961973 1.2025664943873977 3.6998717705355983 -0.4141949490911448 0.15233914785776992 -0.09876147174162991
Ni 1.6816477991736112 0.7068977482319273 12.802697221055238 -0.6914105206100415 -0.16174578588365046 -0.4126515158634248
Ni 3.4007107412560202 6.45309073492974 6.296325335001414 -0.40342999726515677 0.7101556624280285 1.220100293017673
Ni 6.202300694389558 8.922508570817389 7.288121084596383 0.47029256341566106 0.40026831170772353 -0.8528467456730732
Ni 8.73622422427393 2.72410030275602 12.161998326263026 1.166530587321333 1.4761112054344965 0.8440319755949206
Ni 2.089239127260747 3.638664056671319 12.433862680696404 -1.3087318754141524 -0.44517879906716873 0.07810111517880097
Ni 0.01718188756500428 0.464649881120727 8.149709192243618 0.2615364702207431 -0.36806678727451453 0.6756470871281978
Ni 8.191744636002023 6.760325558205428 0.7269644482174697 -2.0648498635049086 -0.5735202984587606 -0.36191336607860897
Ni 9.16384820511868 8.068778931454492 10.0121431707477 -1.220610656995188 -0.056296360598883696 -0.29391282966891963
Ni 6.910519843143302 0.5178887032587352 9.390595381568327 1.0323920216319897 -0.00022985662261895898 -0.593521681281352
Ni 8.296380049188432 2.168854428895503 6.8869508796577374 -0.007928510818457312 1.0800530751533786 -1.1008497001837556
Ni 4.188637211179465 2.797384660386534 12.128368867021882 0.9648344862969899 -1.0564495768018256 -0.48500827235928085
Ni 2.1316141231031014 8.227218166723473 10.775859301027012 1.453194191627007 -0.12797460297047636 0.6497720191336487
Ni 1.761033051971004 7.8817952364454476 8.48337846732307 0.6835470587015647 0.12400456257913482 -0.7320113248505393
Ni 2.3359527024028472 0.2601134598208488 1.778421063294286 0.3280791911379834 -0.0375465907952063 0.9493752143191261
Ni 0.2299163292331678 1.2537109519100487 10.508654815843272 0.07803298094502689 -1.1404351757858617 -0.1906961503694135
Ni 8.107933243573756 2.7725209820442873 9.075633677943275 -1.446462015109496 -0.8269493090810209 0.6164867747179577
Ni 2.61378728426348 4.241842906284893 6.348392748459567 -0.5816812370029982 -0.1067231497908678 -0.5380267335378411
Ni 6.798366433951854 6.985755014914656 9.52066959519039 -0.5262623939130614 0.712754019282824 -1.480600865774734
Ni 2.65226065182415 1.2940615179836048 10.494580427973371 0.7232886002655607 1.2212467479172904 0.06259684889561479
Ni 6.722846001622168 1.5498942290387936 11.58824824412034 -0.9655857626407178 1.3507007636467705 0.4346835559627998
Ni 6.9424598237228485 0.09481324802633787 1.2043222271141558 1.2871775462821446 -0.6313513505346159 0.22412871899624623
Ni 5.876146654729098 3.4119371245193584 4.771735557877255 2.099122668644849 0.751393586031893 0.27752693211172846
Ni 0.6658901626788611 9.31458540531273 3.568033542428631 -0.24519119609350032 -0.7581964678863393 0.5205720283965034
Ni 3.027663546587386 7.750823832357666 13.323935435385984 -0.9230748858617006 -0.6433136651028146 0.2021187903840584
P 7.879421132443856 4.253060087594736 10.752263651876312 -1.0613071620044432 0.326602863702773 -0.4076653755027431
Ni 4.168917424840667 5.116921077755122 12.928838519753734 -0.16715975781037018 0.18763602338685104 0.22983065447703
P 8.352889245598401 0.9878757174062952 13.21270314173934 -0.10546408057278613 -1.8083746098571563 0.22266087620146816
Ni 6.85169175445271 2.480368160546151 2.6521032984193935 -0.26998922897378663 0.42776523157641166 -0.3624018756792533
P 6.273606632018745 1.5287849477223199 5.618293194686508 1.627787522897287 -2.2841428516754085 -0.40963818295839777
P 6.081230592261901 5.760754157907572 0.44094472872344365 0.4612481938252056 -1.8877800456696778 0.42342289544731593
P 3.9770566944795167 8.349548936479882 3.0621763933640063 -0.7037986098617492 0.20685244841430184 0.6131931915683504
Ni 4.674399134202714 0.3281692674757645 1.316100196603027 -1.0592248255541177 -1.0558379113597558 0.2898312034003783
