# total energy = -381164.7343711843 ev
CRYSTAL
PRIMVEC
9.24743762588496 0.00000000000000 0.00000000000000

0.00000000000000 9.24743762588496 0.00000000000000

0.00000000000000 0.00000000000000 13.53455971079946

PRIMCOORD
 96 1
Ni 8.143052882907423 6.268976480246051 11.794704980675446 -0.5842088885208584 0.6642630136609722 -0.03516703481943621
Ni 6.974500464202583 3.4246681999437714 9.535962927233674 1.110053992390843 2.519447384782816 -2.14459931292041
Ni 2.06208605109795 1.4170772970548 8.281309468999872 1.0448323042778715 0.8454836204397826 -0.019549382886837302
Ni 3.302814718194286 2.080414471893843 3.070396101448871 -0.03334977910503934 0.10423200793789791 0.5458012352769375
Ni 2.8483956476038865 6.572542105607692 10.488972377583828 1.4980177756996007 0.24518451122528095 -1.3380923308541406
Ni 5.346627833120347 7.147048397416793 1.9525094671530197 -0.7107786407240081 0.943406398330201 0.6765017218190091
Ni 6.58486893957385 3.1321902519455382 13.554590328162245 1.1859871533840478 -0.12584135867755747 -0.006053662393247639
Ni 7.241473980033776 1.7706438160811198 6.108687874705462 -0.6256823251742967 -0.9511233073584846 -0.833157751884578
Ni 7.207055018276806 6.199250802748053 6.180164092090776 -1.293254862824476 -0.8831785638873951 -2.114378309252339
Ni 2.7515194940934053 8.435706532215 0.9813824375781862 -0.7656722074380943 -0.6354147219707121 0.5559833180162619
Ni 1.6663974550154792 4.4046746188466654 0.5917943759049233 0.8038500040593962 -0.5977719719172737 0.25453844163635514
Ni 5.314659442256875 7.10595278590471 11.414411518266538 0.41445823005486043 -0.29796000315509974 -2.2272060292790483
Ni 6.1843254388910545 7.41412363505866 13.420557971443946 1.9146501305876447 -1.2281524738981882 -0.17278224620347019
Ni 2.276571112621632 2.539059621345859 5.580122851571434 1.3922737019925506 -0.0568774299133343 -0.5059074844057933
Ni 1.0323746565250642 3.6369431239446386 7.368525446308675 -1.0415975993906577 -0.9098961823878974 1.0580683433521711
Ni 8.993428725262978 0.5268625699208462 2.3287423798285887 -4.650202335620965 -2.639809979733989 2.300584027950567
Ni 6.602725741065711 0.19408613950871736 8.563126046495793 0.7410706068393301 0.6415416608040564 0.03798547810483781
Ni 3.459873193874126 7.712575427574625 6.789652514590483 2.213135667228911 -1.4039146286655886 -0.6997123556075174
Ni 4.431612403800467 0.14093834291929522 8.276965022940383 -2.309257644465165 0.666300355805975 -0.6035872930474702
Ni 0.7049941057972963 7.032602112971802 5.1027044795877625 0.8289203167644627 -2.1225127654340157 -0.0325805050391826
Ni 8.330322736357285 7.482489939268566 1.002375969813724 1.1827694177776986 -0.5506755326501032 0.18136484566615863
Ni 2.9953744165897187 3.711986077909659 11.520008005182937 -0.18005563993643184 0.011114621855922794 0.26233454064200623
Ni 0.44300310920163616 4.99056450601386 9.410755399963165 -0.8149875087334544 -0.6676663829155662 1.1414970413914727
Ni 4.881648189094574 7.057070832157439 8.89997412356606 -1.1162621780840838 1.512703916956866 1.927439826153145
P 8.277233198623067 1.6919943615558581 7.9500782853662475 -0.3241392326536289 1.4914293238488057 0.5353144768130006
Ni 7.7823380948219585 3.9552584118539333 7.166251625784477 0.13250694362319115 -0.799640593963739 0.97304041914655
P 3.7562535604272873 8.891669924840171 2.849660697031171 1.0879242503713393 0.026212653839625823 0.374328194803194
Ni 4.581337661674484 0.11920778992824148 5.264225768524968 -1.6709272915095545 1.0326961831359698 0.8274429608879879
P 7.391652362337156 1.9072007231915886 2.3719177399970777 1.317498308752873 -0.1315353237385412 -0.10985552477226242
P 2.5030963375541195 3.6556136999218882 9.041370214633385 -1.4984268382125614 -0.24767745285046378 1.267210102021282
P 3.1405406878580973 0.7617733710277613 6.523901509974838 -1.8404900023344626 0.4017374400540823 0.5542079712833938
Ni 8.290808436629309 3.9711824989429987 11.762899344709053 -0.487393998982638 -0.5332969321623396 -0.23104704338263432
Ni 5.947729754701893 0.7565078802098091 12.225713238911213 1.0948088933063145 1.8681776980577183 -0.5181500492185721
Ni 7.868080333782362 4.113223136392501 2.6844173145670496 0.7594370251616598 -0.8622114747174248 -0.4124609971191735
Ni 0.20200194586658027 0.10613376302550018 8.667477828347039 -0.3387405275065714 -0.44938820916282607 2.266469345655045
Ni 8.118131039292422 8.290521766071956 7.184401571039825 0.46837657733987076 -0.3672252652098256 -1.6060408752488147
Ni 2.1569555107069633 8.046435657642293 11.942624214038142 -0.9472975058544914 1.122894338688621 1.3401049904087954
Ni 5.854043967071625 7.852452164687983 7.004161619451234 -0.5580432858690841 0.34224596955666864 -1.0206559641419841
Ni 4.47769238403555 8.608337692365216 13.005966688707144 -1.9058901250068274 -0.7629810337591763 -0.20523291053300782
Ni 2.1299344988171556 9.156941912201917 4.2175582728565475 -0.5414948945920997 0.10628657647408148 0.4737021033178422
Ni 5.8367142695078 1.024107447548511 3.7404922282352993 0.5221334593463525 1.1944849064424137 -1.6321136610764666
Ni 3.5276846518439964 6.289478048815422 12.7631437802173 0.574022949126792 -0.6159704972031714 0.22110047369288371
Ni 5.039899584190494 2.942164662170159 5.172420909648427 -2.2942431733342032 -0.7918974596832103 0.14417615243100332
Ni 1.4319101865384591 8.273820894246839 6.932997040704073 -2.104056101390725 0.8822609371691322 0.19000992293566632
Ni 0.6708312980544776 0.09397430767508672 13.571643527349787 -1.7581990174440298 -1.7391846811250562 -1.9783034457722317
Ni 5.625872698293695 3.113436449032284 11.142962242765712 -0.5280076587389422 -2.525360150722825 1.061180920839224
Ni 9.079772047650088 2.1677472700756857 4.314966154013731 -0.337939885982147 1.1617429361247025 -2.1160387276738977
Ni 2.8544804613696266 0.9476311407967283 12.99827929405143 0.27682862049312323 0.7414544725413101 -0.44701688071717205
Ni 3.898414414562131 2.1979494004083726 9.839719049804394 0.4578435390190309 -0.5800966661246978 -0.10829975024936833
Ni 0.7666541684526212 5.426340742939013 2.933101248839153 0.6822530224804895 0.7453268110125228 -1.3193237919973861
Ni 1.8546845265720753 0.9776575698200703 10.706418468541841 2.3815907468119373 1.5076347299640744 -0.5193299284592863
Ni 0.023150034621815363 0.12747129992986095 11.312833967615477 0.24185056175604155 -2.1928599476990107 -1.3399309267247763
Ni 1.3983234941415457 5.551504807254053 11.962303685428525 -1.4975161534728338 -0.5302632875423383 -0.31402091327270437
Ni 1.2078262850621349 2.3494501662505076 12.434890271405205 -0.4065001515500483 1.538951794909801 -0.0755886331695924
Ni 7.13105957826639 8.389635799417253 2.9563807475836437 0.1240104761164058 0.16332032945962194 0.8493605868966856
Ni 3.2591298242286975 6.1623535277855845 1.5030128074554825 -0.6671966423679992 -1.2276724489379758 0.8475194199228888
P 6.772934072634431 5.997480967558555 9.484869911219855 0.9635283658910567 0.5408048105036106 1.9819664964461159
Ni 6.912172736571747 0.2841441574728754 0.8953313342108296 -0.04317550694620951 0.7734904179309324 -0.29353950548990093
P 0.4395223737891366 7.817672552874989 3.0540327610864426 -0.5697389770394575 -1.012251799238689 0.15991850286692458
Ni 3.5632595432677094 4.157435134286126 7.237267320790561 0.12622933814459553 0.13308441339321597 -1.1207706074773989
P 4.866325185432216 5.928134434991249 6.038877120783991 -0.1978661857552915 0.14437284182284169 -0.7339864462990392
P 6.700868793490944 8.919569443276703 5.245020690669817 1.5205933470072717 -0.08642943253883824 0.37431173974296184
P 1.6859742798514556 5.098916729255776 6.0945577904591826 0.890356569693073 1.8034432339938102 -0.5397306036028252
Ni 3.267859405071948 6.707212535502035 3.8901435066106442 -1.4315331617138056 0.33537803879224176 -0.063051162824214
Ni 5.458642041546508 5.036394805440927 11.953912560791697 0.40141322394544415 -0.14676191088030852 1.835772285143819
Ni 9.008178387810633 6.050200607799415 7.343269770205919 2.042891871176578 0.070743132151833 0.6399105529585366
Ni 6.561565397492291 5.382655848973424 0.9133120513629657 -0.7258437625872467 0.34123809711744457 0.653363850249965
Ni 7.543347324363304 8.064847305374192 10.25008702791078 -0.813720726205889 -0.6482974914706512 -0.45226090272493075
Ni 1.4186308665269038 1.1508713185223247 1.6563593617894745 8.173743666422025 2.951842401821755 0.0424478847515656
Ni 4.128398181057516 4.855533426063493 9.791915347250264 0.867856074597712 -0.7551898198495317 -0.3190682458886247
Ni 5.7040782758269275 3.0050564834783664 2.3930185425056894 -2.0040450735127098 -0.05998126564963864 0.42677227153552305
Ni 6.931240952354354 3.891034959569637 5.003428616089121 1.3217794526267301 1.20111115350968 -0.90359080899516
Ni 0.5494623820212915 1.338187409158856 6.222527527261343 -0.7480750631816213 -1.3373181716922775 2.283404945068119
Ni 9.25742456627264 4.557876913158248 4.890632074464509 -0.51157136755979 -0.5768665892231742 0.7949966674338244
Ni 0.6056081977943808 7.150007577363657 10.160935258805349 -0.23466021465518944 1.298919517309421 -0.4320869988802171
Ni 8.208783667477153 1.6600444655670543 12.406832621790263 -1.7713157573316465 0.25378356574820166 -0.15853473514552052
Ni 4.379493846986314 2.7247389155742807 13.348635102835402 -1.121462748448417 1.4199405717801996 -0.7659961664364162
Ni 4.60435453319869 1.0200478225589062 1.2055708350963839 0.0335796357276583 -1.174834736311654 1.2166239044332985
Ni 2.730971688337364 4.374768406508665 4.267284517632407 0.14609290983774195 0.1576667307182704 -0.4240942104827277
Ni 7.638679155839015 1.4455501566060385 10.18076361393681 -0.6422890804930422 -1.1378792421332273 0.21803160495957288
Ni 8.672126515094817 5.0387066647744145 0.32378607183606073 0.8411891068294867 -0.25219333844294634 0.06584775173274465
Ni 7.6993330973124054 6.267746571080635 3.640931543666772 0.37740657661820165 -0.07300467449250007 0.5926624186048502
Ni 2.057564054241648 6.112149190499559 8.269764968232167 1.1256114805094677 0.3263501242620186 -1.4058151881224112
Ni 4.720261912742444 9.007984191626619 10.565984110957247 -1.270895007072037 1.4425379974647412 -0.9590603028173741
Ni 5.459733239151913 2.4446247912915413 7.79954665095671 0.06405157906427035 0.3607738531575271 -0.09787212715814111
Ni 8.983913112246341 2.4960960274923183 0.6721934455737686 -0.3523666029304383 1.8098961887080056 2.566756968502057
Ni 5.579959171930623 5.205622908652248 7.9744813477468135 1.4721488783526389 -2.453593462402484 -1.9953143785079315
Ni 5.566883295540415 5.121147568606596 3.3578702611057025 -0.9480040450032124 0.4791944938909812 0.613028383855712
P 7.772757749743985 8.58836322772388 12.522932348030563 -0.596076843603038 -0.3885973031276985 0.43207928557073333
Ni 0.24976033597777522 2.818378466017878 10.097444203557902 1.2663474969106705 -0.8338267529271446 -0.4848244384832489
P 4.652801857391264 4.4403234897690504 1.2665909750881994 -0.929010020399213 0.7373571625434849 -0.8238927816428844
Ni 5.288304245855112 7.4997271624590525 4.326971177160667 1.745692143226271 -1.727883140069308 0.15601274005461518
P 1.0882199305848002 6.627980492424734 0.2582744515311448 0.8424453478340911 0.17850886427460225 0.3679523731838373
P 2.400754948579273 8.617594377136502 9.520479942905437 0.4948995633310638 -1.3242351132560743 -0.6506289678173052
P 1.178558145900177 3.1119938488081873 2.453612375636409 0.42547077911528014 1.4528972292118785 1.0769950050533452
Ni 8.839801048834035 8.970837235856134 4.800545389444616 -0.8509700974756504 0.7233323090193027 -0.05582019229341354
