# total energy = -340876.0463244134 ev
CRYSTAL
PRIMVEC
9.20616704715481 0.00000000000000 0.00000000000000

0.00000000000000 9.20616704715481 0.00000000000000

0.00000000000000 0.00000000000000 13.47415604714016

PRIMCOORD
 96 1
Ni 1.3014665948401005 2.176494337176553 3.1456496113784285 -0.008007186575192662 -0.15294027177687855 0.3139350384271174
Ni 4.1801613049515165 2.7340842419624707 6.925231265760571 0.28384079014489827 -0.033006279722691545 0.36582632797977
Ni 6.586404740875529 3.773036990401553 2.3208691274553295 -1.5191720411797127 0.17377057825866846 1.3690795232642743
Ni 6.385682686059418 1.5101796024416252 7.916282487087825 -1.6655724549555444 0.3031749716971359 -0.34477464951579334
Ni 5.120985521432386 3.4993008266671026 8.867746270543469 2.458382656261011 0.885623682993778 0.051944254277775055
Ni 3.652150814105156 4.405740010137003 10.450447451979448 -1.7461973649974638 0.25677221606288037 0.06771462973815434
Ni 8.387683337642953 2.7867895469123503 8.136530821694102 -0.5931871807600688 -0.2932924224761013 -0.8366472530950751
Ni 2.407477062275677 7.695646572859124 13.167065754282369 1.8516344489870564 0.5986194075192335 1.4796364449789356
Ni 4.114217532138244 2.4780975678251145 1.7248674122986034 1.219148984847997 0.23855646438580203 0.05361032912628831
Ni 7.542409926415324 7.824680206776594 4.5990253234092675 1.8527212542933318 -0.584173921517865 -1.1339739935415503
Ni 7.82994613418818 7.431705770603568 7.1888664232782515 -0.6327898827533553 -2.5930279863834436 0.8326569009887597
Ni 0.2672955294387413 1.8271479254851828 10.214043215249758 -1.1360450171379661 1.163089422850268 0.017612570875440638
Ni 1.994396357803867 1.806599761179832 0.5257835190966005 -0.1754140273993624 0.1448425823704086 0.4212199742587262
Ni 3.3378983102686233 5.13859691852743 6.040976182436998 0.2524571336272942 -0.3963972587880915 0.45425787855030153
Ni 0.3476285409658421 4.8722072759021495 10.62585346870269 0.661397519187719 -0.4094142398730497 -0.051420006343188863
Ni 3.3705525839205404 2.0415135195040395 9.433471664933615 -0.4954220114934371 -1.205674090290014 -0.7203791399282496
Ni 0.5454930016061547 7.0140403950636285 3.0772008405779308 -4.4240280469496 1.1212660590565786 2.915685235174908
Ni 6.379284400131005 1.3757603609441234 1.1868268027198596 0.005118037952855702 -0.10300662017122905 -0.2168131591714395
Ni 1.4121063074842328 4.852054976769348 3.9745664260463283 0.850317037272684 0.39384929555525716 -0.3926120807140464
Ni 7.181951671392164 1.8809303519510687 5.5390771424953265 -0.2720941911319314 0.2745277402740885 -0.14744042500457188
Ni 4.643222288999379 5.695560803970711 13.284318256541436 -0.6242419931833443 0.47176143465170367 -0.376261664380481
Ni 7.0024498310580565 1.3839078185651967 12.211209708644791 -1.9933513412442896 0.4109489313500213 0.4416756710099168
Ni 9.153728477359898 2.209056549160435 12.651072993581263 1.7755902163372839 -0.6556318203485354 0.044737709227006824
Ni 8.76459301274392 3.3073890734819154 4.25154039864556 -1.2105645856130958 1.3934288986429164 -0.28998701225195217
P 5.619425804505993 3.3811580880781404 13.284480285077178 -0.13136820203305763 -0.12699501266602645 0.151693543853971
P 3.342934083510123 7.37895443481967 5.118912292668245 0.8972545823644871 -0.31988945623833936 0.3921778213901052
P 3.3863779846557094 0.6072939993578654 7.473817539412693 0.5328642155002952 -0.03448106449600513 0.39423753213261137
P 3.1109755047298298 3.531264637808759 3.5612463612376275 -0.7977433769410261 -0.21614287257729226 -0.9038165518527209
P 6.25591255879767 6.572954531175655 2.603772792092678 0.13343614030567988 -1.2608916160024222 1.010040650519983
P 7.293291052713359 8.65825257999701 13.375067125189986 -0.5003875830288286 -0.20689127207203722 0.10633619876509429
P 3.6930814317133946 4.895683001251005 8.12746274739268 -0.9858414275659604 0.2958128749051099 0.7094015578708235
P 0.30566315020889323 5.8050129210971955 7.706206046182706 1.5126998031918077 0.7332629378694532 2.0046886206339796
Ni 1.8384254798194366 0.564786365376192 11.881227548207844 0.7870187914346704 0.236325003952122 -0.7090410892076112
Ni 1.2372996122198974 3.4986011579900387 8.709721496745184 1.63026118124876 1.5811410266833414 0.30656111456054946
Ni 7.568224018132261 6.9124595505541135 11.658203554310322 -0.5395282577840321 -0.26973314709892254 -0.5732063667627676
Ni 7.629518676709782 3.6694307891952738 11.39350324329348 -0.5918761752581291 -0.09574196818901576 0.07187133221900524
Ni 7.606862300206435 8.13414550387532 2.118326092845492 1.0593819199572725 1.0811542786373571 -0.7869105479915802
Ni 1.304495423718443 1.2151311625571357 7.719600098265079 0.11779714821684228 0.7052420271764952 0.07395289733838231
Ni 1.3717096475505957 6.785690633670297 5.876066116486396 -1.138365951961659 -0.3030762413357425 -0.6734176835770467
Ni 2.171440151601446 9.22200141037445 5.357270077993631 -1.54544768704679 -1.6568391888476046 -0.08927101575269142
Ni 3.313962276579595 1.021009929339115 3.368417673838815 0.5786419359560422 -0.9434917589551557 0.005508074302422772
Ni 3.236473970594767 3.791430911674891 12.867939903120623 0.16435339870982663 -1.4003094278128334 -0.9675940513199982
Ni 1.2602045552269372 9.020763810217344 1.7060573722857484 0.4348100542383351 -0.6056968831913052 0.16878443789798675
Ni 5.585068389995435 5.709701476180844 7.307788924195467 0.3299082739269222 0.1392792293500182 0.507308735628694
Ni 7.668387112954042 4.943822047466362 9.01364468142822 -0.15009508901859955 0.8407594754912359 0.5677029204460352
Ni 4.415388072947041 6.582317202814787 9.55242178435124 1.2067909775032764 -0.030330532662741317 0.2681568037507382
Ni 1.1911214795336795 4.237644610472399 6.356863701497828 -0.5844647132854063 0.006172704469615175 0.26353293182548165
Ni 3.462908849292976 4.633822792693033 1.5606579356417452 -0.8480709215509846 2.049625590355986 1.2474995109662321
Ni 8.744026436104964 7.274086988761315 9.680507183087954 -0.9254225601582707 -0.8042539243660343 -1.6101980919502978
Ni 8.25620086335576 0.28087002239046144 8.309929894054186 0.15828893768330157 0.10093199703038747 1.6604060802632565
Ni 1.1123995471971864 7.115372673069451 11.309761188199055 -0.19601524858948177 1.2183056630110953 0.7040305233668971
Ni 2.484983780594112 2.217047501945849 5.45456729308949 -0.23962784307310991 1.9445608021041476 -0.5995565746215223
Ni 4.000668670784214 1.5792534719680793 12.958742167536634 1.5763263789035173 -2.120664399371367 -0.6005392502497657
Ni 0.9545229926844369 8.021747413371726 7.94495509359724 1.5538549372738786 -0.8913623852497681 0.3607304015141013
Ni 5.41935738753293 8.210289709506842 8.113368106016566 1.3303795355909152 0.9660729866897814 -0.11191600684571694
Ni 6.832237013028655 6.50533523600415 0.325233619599715 -0.8566100693702473 0.29356161697708794 0.3125163037027198
P 6.599403848402032 6.847243064918314 9.603839146565315 -0.39443730684824324 -0.7667664689435375 -0.20670255309999885
P 3.215005189609069 6.435368368297759 11.468042814051154 0.609727087396621 -0.3627775138511172 0.6287869322415494
P 4.263559970024174 0.40145791888242605 10.87381880970418 0.6227368693927274 1.4504204855366116 0.9405838412797414
P 6.854635616861502 9.058426238610352 6.321346309970031 -1.2574316824782796 1.0435161565696094 0.5321471348286126
P 1.7222344485928103 6.4096003074148395 1.670782102944883 1.8218363917890175 -2.39612030788668 -4.485728866393507
P 0.41590883891383684 9.075558915031614 3.8429237644567538 0.07115939375364519 -0.1016177102435024 0.8726756074735422
P 6.291835021664819 3.682890205061951 6.750457712696728 -1.0433541770704484 -1.7789807300760718 0.34368553021667264
P 8.734903124802722 5.204430217339062 12.618897440603128 -0.823442581479343 0.011431895986025472 0.9813746500438583
Ni 8.222985013528831 5.5905184407430895 1.936155384755059 0.22997052248900393 -0.6363660301403878 0.953387935022945
Ni 9.22181728703838 7.367373076980902 0.015064971357202363 -0.169196842845057 -0.30615385181980176 0.849675289923627
Ni 7.996356805327749 4.911066505979607 6.621793246068076 0.7654390083813656 -0.26842188448666676 -0.7869619700548058
Ni 3.4661125953405842 7.523564902968617 7.221459936229266 -1.151037119671424 -0.28860170186865136 0.5189350070137128
Ni 5.498447566541562 7.492199492669186 5.560299198210691 -1.2578389452190273 -0.10966963401370146 0.5410220687207392
Ni 4.340910183506949 0.6166842894974074 5.4884008767089325 2.494596644287723 -0.007310674728800312 0.6385722937630873
Ni 8.032978936871963 3.493261581244025 0.6720234787697608 -0.10823675822191682 0.32834247210169903 -0.9678005109038493
Ni 9.087398045540878 9.092001128942615 6.130296253997648 0.3871654557771784 1.504172482447087 -1.8876088101991364
Ni 1.6449762967780692 5.4009174354255745 12.974237987500238 -0.06937761926287406 0.4236972321546251 0.5565713293092479
Ni 4.909124004784075 3.370064657079956 4.589310976198244 1.026053995229104 -0.5213999236144374 0.8559665222489775
Ni 2.917351404519197 8.626344005856174 9.600336200096596 -0.5394794068239677 0.19233008642841068 -1.048974094360387
Ni 4.113720399130856 5.696720780987948 3.980885538940232 1.0332746813472593 -0.2687450721540404 -1.8230923756833055
Ni 2.182874210771359 6.23406632497303 9.481345573545031 -1.1183182892821644 -1.2273760007434797 -1.9560469483668763
Ni 8.679426763644996 9.165429515367112 11.723485403730425 0.6615831528359638 -0.7815947922056217 -0.1729434543716828
Ni 5.0912035718231525 2.6266666876995535 11.119250613601354 0.9495791027998163 -0.1944509894261554 0.33314066482129084
Ni 5.593280290784132 8.752864356236296 3.3649552345040283 -0.401006989645961 1.1959854022473402 0.06805941467208278
Ni 2.691468895829196 7.543496254098135 3.152912356369688 1.4848465284249652 1.8747373535531069 0.31127626064803166
Ni 4.522980544379225 7.353333672605607 1.7364957215880694 -0.5487371779768099 -0.18208629721321545 -1.7977574964629424
Ni 7.967071988725903 1.2518085311021703 3.1483847635357405 0.6608699288190232 -0.6472628795585498 0.2137566317333028
Ni 6.4207489754138445 8.937199434142226 10.22069927384867 -0.025793564024336222 0.7972893201227431 0.552826517554835
Ni 1.1307382314697036 4.0361584438116 1.4274787648126712 -0.4939896499222847 -0.0015508894268876515 0.20675191828069556
Ni 5.183357301525912 8.383890396919922 12.453313483242509 0.11620152159494826 -0.45327494581174194 0.6964732798449296
Ni 6.514964886480582 5.354048840229096 4.99127155178814 -1.147803957446107 0.011898294099482733 -1.7651919038220953
Ni 5.737006966919944 5.158408589488502 11.304911379526985 0.6953095985541315 0.5064872681686632 -0.7772082331021518
P 7.086916411479916 1.971749187467325 10.038798306445578 0.07527932945928971 -0.1977106340140337 -1.0151291207864839
P 5.964583410301783 1.886408021199135 3.353582856651699 -1.0711228625432843 -0.3097611095550859 0.10447626273822008
P 9.261679989297416 1.6045243998436112 1.4784385805366127 -0.5704228904803597 1.908777988077584 -1.8148391345355779
P 2.007202135827497 2.9735734651880033 10.869897903262581 -0.29031379946375163 0.337779963365515 1.1363599772752235
P 0.7505263043363313 9.032299137222097 9.95998799490777 0.8995251235662187 -0.8968447485205782 -0.6239010649041578
P 3.7552322638036375 9.48603427429804 1.3571436504341414 -0.5612515083937367 -0.48327200639446455 -0.55857884665758
P 8.595770325901842 5.592000633598449 4.428025378118169 0.24864367341847501 0.22404592947445284 -0.2017120418639429
P 0.34674751080274985 2.2510827006182867 5.8710533586619045 -0.49892925331574717 -0.9318791144168919 1.0727190033858107
