# total energy = -381161.5990140376 ev
CRYSTAL
PRIMVEC
9.36412483539304 0.00000000000000 0.00000000000000
0.00000000000000 9.36412483539304 0.00000000000000
0.00000000000000 0.00000000000000 13.70534323684713
PRIMCOORD
 96 1
Ni 4.157783697505018 6.36177088695771 0.29286112443521783 1.2227084200644813 0.5236599232932079 1.3631335900934847
Ni 6.203339262636549 1.1397731554760193 13.933263067422896 0.4689386204909279 0.09228074911329269 -0.4161106780566189
Ni 1.1142184594081401 2.088789728468064 0.45901253308703477 -1.7870326538462709 -2.5180096238950247 0.47548696313240685
Ni 5.885736248149829 0.819141783089573 8.777271177510743 0.4712212458775175 -0.24016391808223797 1.0052221460854172
Ni 1.9406586412208005 6.0819895717814205 1.0263867161914746 1.3661098991129894 -0.8713972549817509 0.02270464068636735
Ni 8.365328353201575 4.992792053338238 12.463611466505453 -0.2234787441170732 1.1567799356924722 -0.11444957190084805
Ni 5.384746217249276 3.503868147555534 1.3177505171011323 -2.3465378689728618 0.8110830314727258 0.5696261056106771
Ni 7.922807916382312 4.062213441708472 7.459050581354056 -1.7648175512018123 0.8952522072224776 -0.9064331635399614
Ni 2.1080985534193157 8.954378611959342 11.462065900086376 -0.09578670538402213 -1.5598697760093911 2.3229048029349544
Ni 4.832244136854622 8.570318405096755 13.604759275474608 -2.0469824963061845 1.5989847397329817 -1.0708672948890525
Ni 2.7579032526638536 2.018352783131828 11.851311959159439 -0.034707321574198285 0.21021853667305732 -0.11080811849351885
Ni 2.4056155206119354 8.890187537739733 1.6073079783730126 1.9909933825350745 1.3855965470826912 -0.5276225074853818
Ni 7.586317462551908 7.378302798406849 12.756658937020463 0.40632737341760994 -0.01777917836029196 -1.6836799631895327
Ni 5.591974294926875 2.1151310110034043 5.4727905260946486 0.5872263351909435 0.1282509965603146 -1.0532701506325794
Ni 3.6533195763731787 3.2205003726526047 6.001158448125159 -1.3006938356010245 0.3761493071723328 -0.18113241794037838
Ni 2.2178554580040033 9.423867727662993 4.167466202354483 -1.6797472037940298 -3.045962775246948 -1.391880837429506
Ni 3.9145880171902907 7.350678630799577 5.204891348639331 -0.28311342506057047 0.20136957092285965 -0.2678163896921839
Ni 9.137175688522577 2.1898099047891635 8.35986157725272 -0.05315472964610846 0.07229402157872065 -1.4832236481095618
Ni 5.113036777489077 -0.07977391398749359 5.957438286721231 0.7164042144409016 0.8254125607215204 -1.8758226161974856
Ni 1.3952732955317486 4.649231685425296 5.2489954391523765 -2.605901242801686 0.5543984900276452 2.6797047590463983
Ni 1.1568158622710139 7.9023004834806425 13.694364583892906 -1.8822344332611005 0.9898562051523081 -1.3105607010927751
Ni 2.770441815520171 2.1360317371388042 2.7310085503639066 -0.6916792008903958 0.2677094318006744 0.5033168408604815
Ni 3.0222431263539096 4.417993992240903 4.046694277987953 2.578936027066752 0.0636322321386646 -2.6528763259996437
Ni 3.121231287634068 3.022233762229297 0.40217604233818915 1.642841846127248 0.8523176126424805 0.9855537211222123
P 6.776807618038891 8.811500798619766 11.169731039454389 0.1385672908846581 0.398517647565204 -0.34735860819288567
Ni 4.597054783083697 0.9446622550471693 1.910237409591735 -0.18336722080816809 0.4452387057708268 -0.7457682694253156
P 3.1623772511819834 0.8884297503358386 13.680398928445625 0.2832581781685509 -0.4422963353130512 0.28128974158827036
Ni 6.454503812996628 7.608060959902446 7.3770245953972235 -1.4209415022408884 -0.5721013066240469 0.12336152967849723
P 3.6458563690569092 1.2791019655874063 4.620948283445295 2.401992707507057 2.5949529713202986 1.1245524431173342
P 2.633875422169511 6.795910432248665 12.536743406905206 -0.5859405264999844 0.842377470710633 -0.593611669891997
P 7.00248302120338 9.42723881252354 2.2764851786161686 -0.51654233841182 -1.2139512426971415 -0.07080715262054903
Ni -0.20411544265635925 9.172778090299813 4.634187282822637 1.8129532303667746 -0.06120228254093331 0.6262826777624569
Ni 3.4435912774240065 6.951448542064523 2.7528822090465592 -1.5234205320434213 3.065134463079392 1.4374757524504858
Ni 6.47149969916856 7.519270330325447 0.8408506331790433 0.24659090465450437 -1.0894599702895755 3.092330820988526
Ni 5.63478707265584 3.338619440516375 7.445673929344908 -0.16475860456804528 0.2510419984473225 0.639235381268383
Ni 4.978792687042351 1.0017740510596265 11.543119889908418 0.9867737095722425 -1.985331813373923 0.28895702832554104
Ni 7.730618622832605 3.0595123423121944 4.47452053046507 0.842877036054871 -0.0866690593534701 1.5086122633859953
Ni 4.9814801908061765 4.654934437314391 10.690509789040828 -0.15038562367582486 -1.1523015882061445 0.10603152304048191
Ni 2.393563892235475 2.4004652520749863 8.20466244874784 -2.187128958752504 1.043743956309699 0.8418496232316212
Ni 9.08728363258646 6.211823159535595 1.268152494677853 -1.9936475323284697 -0.894797379073246 -1.2351391896286663
Ni 1.0564605387974113 4.096926251647507 1.779830737411266 0.635520394310641 -1.449673065847626 0.16797968260850427
Ni 5.011876139298788 3.0030466708980095 12.543075427968269 0.6524883896235472 0.50254988078747 0.44167875633371034
Ni 4.125730298955971 1.484494674840929 7.4970005691716795 1.1892434555378162 -1.5323417457924513 -0.6860438569814895
Ni 0.2992680584951823 0.3294982619821499 2.3571823952904682 -0.6896184617066253 3.4041675821257176 -0.1054756505370119
Ni 6.970551356274297 3.268360413547779 9.432757091157766 -0.7743967317952857 -0.23959956093833573 0.29590414906733553
Ni 3.46962354384713 4.780291973503727 12.490377880298208 -0.755758547868808 -0.30042260576297936 -1.2771399595404844
Ni 7.407612508444394 0.9579218554986596 6.89691188032054 -0.09733528081806463 1.3859037939104646 1.4062715589335395
Ni 2.6596361289788684 6.145852901639587 6.8936644019048785 -1.2094153025000012 1.045802638610941 -0.5683102150127309
Ni -0.24791238988211153 0.8141778606324155 12.314757468838096 1.0503123535558363 -0.05748498159034616 -0.7011912541458891
Ni 7.2369419732545195 3.2732859430940247 0.16647353453849156 1.6472068079641633 0.06671781304252382 -1.067183418279562
Ni 5.218945026857972 8.753246579404568 3.4800748433272912 0.09061878802983749 -0.7326762121280478 0.35868868849372415
Ni 4.36854205016158 2.6754427713249953 9.748966723902127 0.014444200449788029 -0.6569063161855848 -0.12442673771821795
Ni 7.076216138403264 0.30322346473155903 4.783369961263899 -0.9697414366803039 0.05195890956579439 -2.1368505222129266
Ni 5.068501000831388 7.910812472753528 9.74548514237115 -0.6460243791657584 2.043636719762403 -1.3026069934633373
Ni 5.741594277987548 5.566129310996004 8.740472977020472 1.1032734791338998 0.4530705431104197 -1.0630280013502917
Ni 7.978056251596856 7.109168492915123 3.102972181051892 -1.287186802253525 0.686134874033399 0.33495380677062964
P 9.576690241341185 3.2227945831827007 6.473527032147195 -0.05861600987099582 -1.4789466180007627 -2.3884476218327704
Ni 8.2798900802359 9.216405546870078 0.4959933340072505 -0.11119249841613107 -0.6569237996870816 0.4478833424825254
P -0.2466585335964798 2.4003528825796345 2.7338870822698307 0.24392852733099282 1.2338484958417009 -0.22901715743679912
Ni 7.631452543184806 7.7638331728336185 9.212251621191912 0.5514401787302696 -0.11050678520301614 1.1456174913177497
P 0.5827238561694701 6.200586210000434 9.40882800712264 0.4063877943419001 0.4230457146135553 0.2131969025750909
P 3.9373896606220558 5.134246519736695 2.2042166105057013 0.47585720198763215 -3.5383537132235445 -1.1858961363321383
P 2.4598338021190886 8.077119325873914 8.479673678846455 -0.5667850366174562 -0.8733579782525476 3.262670004968142
Ni 0.6978192481958206 9.461979714836415 8.163697212804948 -1.4682354022308457 -1.1345519775322073 -0.3208006551986991
Ni 7.996119647974627 5.4334864858580385 9.869861318301082 0.11847026302446693 -0.4926547331609451 0.04242962991912048
Ni 2.1833580229310585 3.9057951041790266 10.272524295119128 1.4760834375203546 -0.7336074656930656 -0.8280245444230708
Ni 1.5232527866126229 1.51837407768944 5.967101126909008 -0.07576449662582435 1.0591163250007114 -0.1270106963953103
Ni 6.860260696586689 2.1647515073257537 2.5579791921841095 0.33512632779275187 -0.38226210493829 -0.21147194946418418
Ni 5.530938930701724 3.9706884877445834 3.7492334955430087 -0.197481291612047 0.10336400351064778 0.5348511640233369
Ni 7.171158997850764 2.0521479088588253 11.464779623399117 -0.678926786320734 -0.43413025456249105 -0.08961837178978115
Ni 5.712762138305246 6.293244223042452 3.0111325925010193 0.3243930005356478 -0.27022345647177975 -0.5027483699515213
Ni 4.220392234665091 8.221542219774575 7.499577576265077 -0.05975655123334225 -1.2194953124438224 1.4196847470156517
Ni -0.22839942701430402 4.866769664301406 3.4372723661354008 -0.8630658522979201 0.5009992484708985 0.7622744946104549
Ni 1.9945585424911239 8.721361735098547 6.6167475724475935 0.9468488483528467 -1.2994663909518265 -3.8810941059181285
Ni 3.7066857225405823 4.739895139924822 8.19985209793433 -0.30308009799048446 -2.2558249785673214 0.4058260083011591
Ni 5.947633111839342 5.388445046471268 12.798898630323134 0.20204602816459397 -0.9063151499048585 1.5178582074642955
Ni 6.124530789896618 6.536224528491089 10.897529046739566 2.275628900667126 -0.15872242567629438 1.2256767586641857
Ni 0.7979273587796498 7.71773358736562 2.6731719711064312 1.4113386890438016 -3.6711964429196002 1.634569835926443
Ni 1.3280201525638085 1.1102480705723832 10.002241947949894 -0.6221123484348512 1.6123038254393909 0.8688454350941746
Ni 9.292086401989389 3.2641465574720936 10.314133782835368 -0.25542135846194075 0.5346801856631114 0.8697574053854827
Ni 3.3311187767016546 6.215887189617479 9.96638858763304 -1.0386840252882885 1.0549606509611251 0.33851195643553317
Ni 6.317703316530653 7.093436763565897 5.187075165151333 0.9117478908846556 0.45495413328637774 -0.9729296046002986
Ni 4.937937011357427 5.337972414809168 6.060447403110055 0.2929376102398439 -0.528476885065877 0.34847832361962566
Ni 8.975223153347066 6.33756462483405 7.529865837324642 -0.560660411776957 0.6367424396432001 0.2421171851538669
Ni 9.114308496218525 8.11521258479811 11.181188982330408 0.6746584979626832 -0.5976555009440675 -0.6772522268317884
Ni 8.356675902059502 0.5946443868013538 9.658950330413333 -1.6952820662048353 -0.02585115673514903 1.7904383370937103
Ni 1.150541898780549 5.579107987709116 11.351367900978119 -0.32514144866589806 1.9139919281783555 0.21070344672927585
Ni 3.507810444017453 0.3796665595943386 9.928726078441022 0.44262389385579903 0.0011333422734948223 -2.4593067107371773
P 7.380803019678422 5.22611794631125 4.8131385134074645 -0.4742685173442736 0.17774653218728098 -0.39759102198587654
Ni 9.117248831346892 6.900226780433412 5.266538190201686 0.09345831436116163 -0.5176191164157666 -0.6824340281430441
P 8.238116720338938 8.429950177153366 6.767204708248634 2.1285445734503923 -0.3233442475561592 -0.6559483231476896
Ni 1.213646734545092 4.044777441679747 13.034342688283523 0.30764226343987017 0.5205303765252906 -0.001113544779152921
P 1.9217431095032789 6.793400846852479 4.587671930221838 -0.2425509302571758 0.047724559769472645 -0.06809926677108272
P 6.903036017817203 5.147346930069769 1.3166708335332957 0.5797626798240466 1.4093568827270824 -0.4934296636537567
P 8.87820145823556 2.9497835301013446 12.38096838473665 0.32028360635296454 -0.7001967514431037 0.9896134930138828
Ni 0.7997861375152577 4.291568945845726 8.082849233724385 2.4814652491120874 2.05938601217686 1.9696164595211951
