# total energy = -340889.00429180305 ev
CRYSTAL
PRIMVEC
9.09122808066029 0.00000000000000 0.00000000000000
0.00000000000000 9.09122808066029 0.00000000000000
0.00000000000000 0.00000000000000 13.30593125146487
PRIMCOORD
 96 1
Ni 6.676688701344041 1.6122747253593464 11.351289915428216 -0.521668861005108 0.30600189962296975 0.7590107362575186
Ni 4.241530571464802 0.22878347813337674 6.005126058288808 0.3738677102270077 1.1500518729400195 -0.3456035731749919
Ni 2.5930000291354247 1.9867878597827173 4.65143403795962 0.137815243209982 -0.8327803139405013 0.3417510321981211
Ni 3.308588761669285 4.454492585638062 5.132882740865935 0.5222375890243844 -0.035080645753217 -0.08476232924906046
Ni 5.246411267841023 4.576405952129564 2.569841035116003 -0.3903713643089858 1.2097539167863423 -0.10529875863951543
Ni 7.450688573304292 6.044702900820311 2.6198182423951772 -0.5375371954959324 0.4264735093481816 0.6611499219532871
Ni 5.124470627665742 4.7921953381878994 11.60587248017081 0.5967617854852045 -0.8497207984495818 -0.44018160296289355
Ni 5.643697928219742 7.963797477463899 12.258115354759891 -0.6716153402609852 -0.034660784606979016 0.6278523362424219
Ni 2.111692240261967 6.239764287206714 0.5564686066312385 -0.4226803608543366 1.3952397265994099 -0.2505807425401878
Ni 3.0451795237330606 2.036735066009735 0.22016226669087927 -0.5949049347821238 -0.8541875759716837 0.4105756071710026
Ni 0.3789532901425692 9.434149043665988 4.912683200140559 0.34003199262448536 -0.09151481748154562 -0.7251639629114027
Ni 8.617484039047675 2.473832213477662 1.0784687317027546 0.6624737829710333 -0.8612755931667168 0.9933259088684634
Ni 6.983908566657039 1.005462534963504 4.949154479212442 -2.51258073956997 -2.0301158024578325 -2.126000981092932
Ni 0.5694963362496072 7.391795598797808 2.223167967971299 1.9349711015331839 -1.352541416399935 0.010688590062097722
Ni 7.09776710520585 3.88354528941142 3.8704421026012628 1.6342787870485853 -1.6357065206340473 -1.0342154479939738
Ni 7.757926621073143 4.153463846542865 12.75652919809945 -0.11468508495042183 -0.40303687559179624 -0.5422394860676081
Ni 7.82168340252019 8.76874388928523 6.803362234777746 -0.4238005905017088 -0.42640331823187855 0.21378825630218665
Ni 6.817657281569039 0.47662307912304247 0.3679901783862603 0.5934743729831843 0.5538531590471365 -0.3514052674584335
Ni 1.7443066285328048 6.552720717341199 9.311171094384319 0.6826533432427018 -0.832248095586115 -0.4801871968215537
Ni 9.142957013187033 5.050613491992592 1.370165325331619 0.4813189964331517 -0.848555574496887 0.42329562584083225
Ni 6.667806571660059 1.9463591691945215 7.015885142642167 -0.20833494649709924 0.42737416678558005 1.1937639691159894
Ni 3.6445369072293485 4.4890483429858765 0.5433863296453124 -0.5380329041854283 -1.0007545972323668 0.5008794350635826
Ni 5.8283589498584725 5.473928337924268 4.834909563476764 -0.4023077107352555 1.539747551338219 0.6636919716488505
Ni 5.448600176921635 2.820253453608808 9.593589180791614 -0.5271738499837372 0.11835893425758326 -1.427994809543244
P 0.4603543267489529 5.770384189372543 12.596724502733979 -1.605461348596261 -0.5784725002577135 -0.7434666178753324
P 4.1217354610801245 6.271356304250559 12.818934113953858 0.26419113423477086 0.9457934105051388 -1.444504891383125
P 2.4907418974205546 8.392085225071254 1.5589492188349205 0.0944582163805857 -0.46120705617462504 0.6649680101477967
P 6.23433682413472 7.963906572199015 5.52998484931775 0.8855118400062622 -0.7954368402950366 2.390114210901916
P 4.820414509671092 1.147167504650531 12.631200257276042 0.3810176910082277 -0.8024261271286761 -0.5221974798150684
P 4.052933048133989 6.312094096588249 7.9402475606436465 -1.0452845613239419 -0.7129838759054431 2.3892950574347305
P 4.494284890271418 1.1620680272217145 3.829180655535019 1.0658911818306998 -0.10820899030777495 -0.13013998605291136
P 0.39265467975027546 5.59185065535613 3.6612602209997522 -0.7738066636197706 1.113854854194172 -1.2323212605638971
Ni 1.4811519449785169 0.9455877078409813 2.515645498079031 -0.5703120759341082 1.0838991883723463 0.21267933950872406
Ni 1.7317698252224556 6.472454265980016 5.142396710890795 1.0848011313613253 -0.38704127149448825 -1.2903520873553842
Ni 6.049566707760875 5.572204511807425 9.46598561474105 0.1264674222973306 0.3474480825828984 -0.6824371134668376
Ni 8.811227197384765 1.943868172742719 9.996866051250962 -0.5558401075701783 0.6788018307070955 0.45866552069969396
Ni 2.045935388671137 5.170408602377269 7.181503678266497 0.665018660880074 0.5817100333584045 0.41836527841875043
Ni 0.943514907873788 -0.016241478690310764 9.077651995624139 -0.7743957033540212 -0.42273075447629777 0.8018455720348577
Ni 1.4828065484611008 1.1881598513701568 11.436314715486018 0.5741587033737079 -0.023115760081856965 0.2261051259963267
Ni 4.148436397499628 6.80208400813131 1.6500815058136011 0.7905545725020707 1.0098069372426222 0.6341242852940627
Ni 5.451182085652699 7.97782524215416 7.7755336021979815 0.9628958745133803 0.31727464432331165 0.5924492741527797
Ni 5.0069846891743435 2.613418927057864 5.383832450929184 0.19492715773162558 0.6838221667398223 -0.3124108884731071
Ni 0.5694372432680862 7.350066862616153 7.216312171750664 0.6159656121071649 0.09281708123273691 -0.44344741819835887
Ni 5.12724345218326 4.58987915191632 7.331155290283892 -0.022462442768574217 -1.3153002726602896 -0.45575811724491183
Ni 8.191287273863365 7.395304812777355 9.108574898292611 -0.038222276705992236 -0.5697392341497737 0.17016254919243598
Ni 4.752957598458047 0.3448466394543129 10.182962577779255 -0.6799693686526355 -0.06297505817063993 0.3716215945053084
Ni 8.484042995545643 7.283846358401083 5.044425093143168 -1.1127775619695932 -0.6953551070800864 -0.8806863935931607
Ni 7.067893330240074 5.899197797860097 7.105301005788364 0.8435632634886182 1.895542463223916 -0.7355090535911527
Ni 2.5195883636306613 5.015994096049293 2.8019500844248153 -0.6704082073267615 -0.0037262998116516476 -0.4953875587110759
Ni 2.6230647198876538 5.121488704905921 11.512358291475442 -0.8199741633147685 0.8952295815146583 0.19572728503541775
Ni 0.8623738803860961 3.4738945590529515 3.8459994271986493 -0.1683280670868585 -0.7278844471663594 -1.092110520538545
Ni 3.857844388063808 2.8275173447219104 2.645724605493923 -1.1667321618091777 -0.7463411112096501 -0.5412742939408614
Ni 1.0059080051318918 3.296651979402071 8.329832132723215 -0.5393179415454389 -0.41676013871515966 -0.45176442270448647
Ni 3.4163198125957797 2.8340630288288367 7.398643111671888 0.40056835944664565 1.0582161817839455 -1.2956534449636394
Ni 4.053405791986156 6.915697083526113 5.958595335516489 -0.0860244837909357 0.29051897349602224 -1.2170229396439298
Ni 0.9674339285478476 7.446997534766219 11.401373490074128 -1.800197730473319 -0.0685011301951917 1.4751997493638207
P 0.04096234566746891 5.5271847511164545 8.218833694480013 -0.2855310333631276 -0.6485016370616573 0.3648048286937911
P 8.728378837292517 1.2597169063779574 7.890935831248677 0.0975985617817803 1.6403332207727814 -0.15548977767160965
P 1.9898334211380233 3.385846016586867 10.293734644447092 -0.645965758013681 -1.1343802278410333 0.7444716621010792
P 4.068733602269875 6.286420468924416 3.7832890460859177 -0.7035196451687498 -1.405594330360857 0.7392402384988107
P 7.017664295947341 3.6529553842890894 10.751497971237052 0.5804861882536325 1.5824589741638166 -0.7732934714287779
P 6.380114663932724 7.916313994004905 10.17882425082721 -1.3338867774132255 -1.5550538426779863 -0.8504584479465548
P 2.043426209763482 8.385384990089582 5.859093664108869 1.2226600833250492 0.6701626669748587 0.141496291605995
P 7.032701186937419 3.870263005411115 1.6205295603164145 -0.19544189258451503 0.9405082508467996 -0.775938879471425
Ni 5.389625381363814 3.0859809546662347 0.2868927887926145 1.1798080211565294 -0.8517506843954169 -0.13691689976542873
Ni 1.635875553055986 1.0871017617415564 6.932829502553199 -0.6484481581159025 1.2250990317838448 0.1791567822712463
Ni 7.001554640061962 0.6043602862241231 9.005214909753073 -0.896180889684334 -0.23354718409666872 0.49755499867603986
Ni 2.8719007194580413 1.6127474692115134 9.193067861516722 -0.5796819471847823 0.06463290548903708 1.7759051764745415
Ni 6.314885103561619 1.7638527685743206 2.3690676302235145 0.7985471037892441 0.7034152583804015 1.212206492091893
Ni 4.268931532434629 6.934325009547073 10.388831615924426 -0.3626553864509561 0.015269010343928541 -0.3075571599252316
Ni 8.052327855010077 7.334802690927917 0.28579547758191176 0.4299319002104273 0.08749644035077189 -0.19145179758851547
Ni 7.512399828467925 3.9794213791220368 8.321489112855263 0.5411033155806358 -1.0816229907436599 0.8597645558388289
Ni 3.129000645213422 8.531599208828046 12.76227758151724 1.075725137201986 -0.24604737344620853 -0.8259481215100164
Ni 9.149411785014696 4.441883052504303 10.39185263096433 -0.26229186032952895 0.8429338574347354 0.2980168245349642
Ni 8.495243388350827 2.470413911777378 5.544036251200619 2.6327355893857107 1.0414970692570515 1.0874820206275981
Ni 3.7679321438728346 2.6837213926118375 11.317572369295206 0.342924483680932 0.09721752429327774 0.22587526937370778
Ni 1.1068842737091558 3.7046390150500286 12.809340141123249 0.6041984442689078 -1.0792544905114831 -0.31236692260904914
Ni 3.046670485112972 8.637812024690852 8.086626330607578 0.955674931284909 -1.903493856860509 -0.10465701129045847
Ni 5.642370608942504 7.930578130621249 3.5557701577570877 -0.8298595407492804 0.22445164955330374 0.009476572031867551
Ni 3.2535141028918417 8.428922880628567 3.8888982044144176 -1.088805367424712 -0.013792425798402053 -0.7470594774329135
Ni 3.57532538902653 4.563878240047141 9.373616011641602 0.6242895585918281 0.230960397206099 -0.806376884246308
Ni 7.421605735168101 6.188344302055637 11.365181311699581 0.4798231286139155 -0.06935319378284184 0.43828772837429036
Ni 0.9036798744691785 -0.07660086826130448 0.23286089385831618 -0.8894852228317134 -0.17099687216827325 -0.10859311312007106
Ni 4.678554989109319 0.30982450211387946 1.4692278904303993 -1.6915621941510868 -0.5023521629543671 0.48379728277031514
Ni 6.187389723123378 5.750874414242732 0.32152309420942493 -0.5966977650164885 0.4782755816211376 0.9657793667087624
Ni 7.893131362792875 8.678877101233887 11.370849692311623 1.8960834233290507 -0.5086588218986853 0.2053177569373303
Ni -0.06195580919484961 4.9681651459291 5.668259698708189 -0.5843179032948969 -0.9790285184091848 1.1090227229128513
Ni 7.992480301571333 8.610092870743603 2.774991866254998 -1.5604984107323254 1.4093309145851536 0.6053099321655317
P 8.385348625177876 1.5675095190503119 3.3817022348980657 0.6965162172677231 0.8010629282325623 -0.3621439940321763
P 1.7634891194572693 3.122773154083916 1.57323972001225 0.07450388474584589 0.6012139077192872 0.9098283052644395
P 4.828160235864288 1.2673353553801854 8.00033694074523 -0.018079226099214026 -0.927140571290642 0.24166235700463543
P 8.568418681929508 1.2570531765955555 12.529715789057699 0.7257409184607954 1.0608387070084568 -0.24347935560871617
P 6.2820294058360195 7.807591999234446 1.5802254195508088 1.1510672015784111 -0.9805418697299176 -1.953192252526901
P 1.6330754548546897 3.246622952123716 6.166234435738909 -0.4530957399214003 0.2991277982109558 -1.1134661033961857
P 6.9588531424921936 3.8950820576498772 5.988387289430929 -1.0451380084437485 0.7369486142511567 1.431959964838579
P 2.5180246724273405 8.268262700715233 10.414951622879439 1.9470570861634402 2.4030735992760617 -0.6790447999558369
