# total energy = -340890.19204734784 ev
CRYSTAL
PRIMVEC
9.10005791075402 0.00000000000000 0.00000000000000
0.00000000000000 9.10005791075402 0.00000000000000
0.00000000000000 0.00000000000000 13.31885460034123
PRIMCOORD
 96 1
Ni 6.495475640430254 2.1233619814394737 11.733231385469983 -0.7737107614718547 1.6425204582320876 0.85990262407859
Ni 4.835452200773934 0.527699610418073 6.2750049006392805 -0.5336741129961002 -0.28843689415601287 0.15240162566458912
Ni 2.9974862313425383 1.9094560233289617 5.191436450953859 -0.13513409683339309 -0.9618491784164209 -1.2515592828579025
Ni 3.6370473919808806 4.50284508901782 5.267939726680876 -0.2368837046690695 -0.09701980646017484 0.17584905805425197
Ni 3.887699383395666 2.9325482190445453 3.0325432939233656 -0.7248268912869581 0.2733496608055873 -0.7427022289054821
Ni 5.118809799839922 5.052242877199814 2.4733511135557884 0.0021723250609704523 -0.3420132847205723 0.5887638548813925
Ni 5.482020405900709 3.539822374689435 0.567384962384377 -0.34942628935519177 -1.2998435717855872 -0.49493992965069594
Ni 5.5884728817782205 8.117360737942391 12.108516858195319 0.15247978720069225 0.6982224013255524 2.5279662208871048
Ni 2.1847964714932497 5.399664883017184 11.616145492079832 0.12679266684723325 0.8795065143524465 0.11359802253383018
Ni 1.178311881221029 7.786864839590584 11.428589661268939 -0.21204967634452512 1.061818297312907 -0.15034731423872172
Ni 0.857767806054352 0.1926191029581205 4.96349729374515 -0.5034330547233716 -0.3748395872219738 -0.7792072658100516
Ni 8.83245237813137 2.8365790097263517 1.565431979085592 0.11559576969014931 -0.11772849976243596 0.3639478800101345
Ni 1.418189404227627 1.4130478715835173 2.8422965760277576 0.4916720575327016 -0.3205412308897254 -0.3014453906005389
Ni 2.0626190957767636 6.967604838026168 0.32835010472794646 -1.0052691972732688 0.15920733573251292 0.030893347144746792
Ni 7.825603785548061 4.164987243924271 3.7115386449333623 1.0660343922767834 -0.321234400302008 1.0846532929295516
Ni 7.660656138278806 4.255232516900615 12.969900117204546 0.5210415118337542 0.6644548179568041 -1.0624461607048927
Ni 8.179232030769473 0.32450169029397485 7.176678665456995 0.008890617621410494 -0.40645284325188064 0.7763859943111725
Ni 7.074648817659197 1.0214177850845816 0.6830412366977326 -0.6924063088644075 -0.06810389475677303 0.07592750456624989
Ni 2.082666523059902 6.760587623652986 9.400660895744581 -1.7989497169988309 0.17852789043799575 -0.351270284542466
Ni 0.40021872102904305 5.331723851652721 1.1510390080628052 0.13405089107154333 -0.261374233611266 0.2758228049364282
Ni 6.521492705615226 2.3154460010002955 7.158484919943069 0.7315945490280948 0.6483954505010963 0.6142622562628131
Ni 3.5251712816681673 4.875656256033538 0.5104358908089752 -0.8758110677787303 -0.479356216279826 0.6512750860417365
Ni 6.332293404369771 6.020015821687889 4.915522699149608 0.27762000604616704 -0.4593288653153057 0.15032186031742498
Ni 5.489773655126871 3.1309203785294026 9.4952241461362 0.5276500182892074 1.183044525815956 0.6214829423809685
P 0.09007783191324394 6.205065496586947 12.413891137047427 0.639895126339569 -0.5010198172961888 0.6869643119132298
P 4.028914079982023 6.509216727673803 12.580070932139714 -0.07940235048872776 0.48182678930750567 0.22135655556774778
P 2.368535738072393 8.816135974536877 1.9237085338195892 0.3608275892135979 -0.01761745597144708 -1.7770688577653393
P 6.591654151077323 8.225041721619823 6.039821187434154 0.10901991624484451 -1.3182570412957684 0.09048817598924416
P 4.63063720038283 1.4689131262776565 13.054834596462126 1.506828174902379 0.5505960855624196 -1.3957454625912349
P 4.240181021337151 6.249337277672953 8.51098737711764 0.6105282431416775 1.3586092198605697 -0.3516212401239815
P 4.904321438031671 1.1688842213638653 4.001317244766931 0.26199438369376815 0.41644055059221186 0.247220053598071
P 0.3856595385913247 5.803352546070891 3.3943898013233524 -0.22414980204216878 -0.614305965016555 1.7897929902002274
Ni 0.5986964411841154 7.682023073939635 2.406917051759227 0.3318368584082027 -0.3052295402333195 0.4996882429689587
Ni 2.036192527991818 6.633751018354581 5.06872945187474 0.0960085915868411 0.621674232456168 -0.06667153318562066
Ni 6.175544909157759 5.9989036876448205 9.423835102879961 0.09173361836057105 -0.40698737559911197 0.4336592284633434
Ni 8.88459570919464 2.854315022334086 10.515714635333286 0.1486886955893762 0.2753492077341193 0.5544285719346322
Ni 2.5655519889484495 5.7052175230017275 7.43459796301264 -1.0075456520122712 -1.176816285518057 -2.2063548968616518
Ni 0.8558040135860354 0.9372422506456198 9.507970597064704 -0.1900016954055502 -1.3598217521114322 -0.034432213535940705
Ni 1.5701603691066173 1.1852370251894668 11.935078857019947 -0.9757331354873647 0.4546443153554428 -0.9020707728062077
Ni 3.8821665482671373 7.1954884848824365 1.7637358881371201 0.9899582779478112 0.6200922326810289 0.9027904245810516
Ni 5.619221977007328 8.109116085596261 8.34234419638507 0.39803865104625646 0.9423558455784996 -0.15744715850829658
Ni 7.072073501308253 1.0585915211043826 5.222989081284692 -1.4764950711364766 -0.7919110865299651 -2.283860544548299
Ni 0.9010385807848668 7.849036434324312 7.161734550575302 -0.6242815881720282 -1.0683977503026374 0.26580218747563256
Ni 5.460052866426585 4.6824074290772355 7.361783850708495 -0.29664051301272776 0.42756417130919916 -0.4303484189225556
Ni 8.539375917359347 7.888112082419545 9.15619330359517 -0.19689096632621575 -0.0971733013189036 0.781139449835758
Ni 4.770204786511517 0.874083299643067 10.720000012361758 -0.0022052351814349116 -0.5357708476241289 -0.15037636770444424
Ni 8.540895627008137 7.235128336559854 4.745334328606471 -0.520061150198356 0.865293198966542 0.4338119519911239
Ni 7.290793389982896 6.589679438539673 7.319575962726354 0.7689045983324628 -0.16113412044158057 -1.040204832808189
Ni 2.492187323148784 5.464730296124058 2.943480118452278 0.29699738213151433 -0.3211935197617436 -0.9956972373141173
Ni 3.6795537618581116 4.623275253641087 9.756566885427622 -0.5458616562012276 -0.27369290307761895 0.15123434482936535
Ni 1.329427440668964 3.4846669245019166 3.9654894072923765 -0.6389060229534221 0.7273864244840182 1.0080009943821349
Ni 0.5082236667633415 0.15178168367722492 0.6512711149860242 0.31507069469345733 0.9510574871175558 -0.49843405884688347
Ni 1.3460259460545494 3.74938760524023 8.39492706023898 -0.5865568199277447 -0.20855220471422792 0.6731474606347956
Ni 5.45757765071119 3.0623241430049815 4.909116258474469 0.375237851101657 0.3198568032281911 0.602143361512092
Ni 4.389758671020742 7.002339758561684 6.157732456064696 -0.018266402409355637 0.7292851841686279 0.636092207653711
Ni 8.049820109120123 7.435329607657926 0.4966493032765399 0.15116492504401063 0.8014354810806327 -0.5564440597027642
P 0.25591819485044204 5.892405711478424 8.115111203659872 0.7894037467270792 1.0077816792824772 -0.31503984145552194
P 8.710912006459285 2.2218610068197244 8.301628717878389 -0.6405638702718194 -0.34635073575366154 -0.9266060389434106
P 1.8958787371254018 3.413622773435433 10.719080906526264 -0.40227711460763627 0.2812637734463414 -1.7895338230015696
P 4.286837017560779 6.13952688047566 4.140778360219626 -0.5619984138620902 1.859161610602037 -1.2026720702388964
P 7.177079067999191 4.189812201540432 10.55071709756745 -1.053696953757353 1.2218275601214248 0.1172603018767658
P 6.618908824119992 8.228936546348457 10.353544325697627 0.834983235129091 0.3028127032617108 -1.8164440171288523
P 2.5743062445301015 8.668041634270967 6.190443523750567 1.0278259995278622 0.0998099676108023 -1.8637895962923516
P 7.118347295105239 4.359009575791634 1.7378571438303612 -0.5168166751191292 0.5994686428934063 -0.5369491842029461
Ni 2.7017707538151328 1.8448820133420567 0.6041328157002056 -0.28730020944840845 -0.7440083493114154 1.3741199139016593
Ni 1.372561714532821 1.3195356778651637 6.9522421204867255 1.0482636985569236 0.6826227471150824 1.8631609615694171
Ni 7.221969653014045 1.1995969163618647 9.687441936546348 -0.4460627443340188 -0.8459528467667172 -1.5457431068000218
Ni 3.085647591087907 2.003778122189485 9.347078845546738 -0.2516474932418053 0.6998234272640851 -0.07622909496706871
Ni 6.379295202788932 2.362038296819483 2.692260283432197 0.8710882083817642 -0.03969551881740905 0.352164000001329
Ni 3.9197952871757975 7.315290745519078 10.546694872029935 1.1776575504724298 0.023585243519107766 -0.1341668478241173
Ni 7.169498719870796 6.536143798636494 11.535153157851331 1.1991871970140895 -0.8817420885511846 0.9725398253610477
Ni 7.773596955351448 4.342520271099374 8.311298439272425 0.4659607688095265 -0.8174064025875923 0.026912508120127843
Ni 3.349567466741828 8.77756082961939 12.62610084438827 -0.3255517967304393 0.03892315942775877 0.0944294200251793
Ni -0.015806800358970433 5.621469691278293 10.28085033415614 -0.264249498276532 -1.1588884973950428 0.03158523100544883
Ni 8.738849183835244 2.4435384142719525 5.899813158509052 0.5856250521420946 2.0220294259052722 -0.1587753904014169
Ni 3.466566909583096 3.1107910507262693 11.991683946411372 2.1562561804330476 -0.1519820216286673 0.19081699221799395
Ni 1.1573180479290632 3.5032219423095974 12.757318217500615 -1.1455213320595174 0.049354639173727906 1.2144765190729923
Ni 3.2717710728046727 8.70446916555304 8.201097649596491 0.0330085937155367 0.1511253300553268 0.6802213367624415
Ni 5.794661990893679 8.12564179051963 3.825667929551706 -0.6379511152393207 0.23617690841003197 0.3465312271955838
Ni 3.325561514325613 8.732870445875633 3.8858293215224537 -0.2684339686715248 -0.43777890705867184 0.7062563273736224
Ni 3.8694446674946326 2.8699944218841753 7.166009757719023 1.0844756297011064 -0.08896119782175646 1.0431973397776098
Ni 5.38403098375598 4.835916303720571 11.698828617043336 -0.496353522168771 -0.31694811422182834 0.11779123467957132
Ni 7.862586420354541 0.010806318610407246 2.913366207256017 0.15305699986040092 -0.40419104380089743 -0.36255768453082715
Ni 4.816332979384068 0.7090109815822634 1.743624760449541 -2.011056986054169 0.33630492148188534 0.5851398849755599
Ni 5.898775751922453 6.341275161395853 0.5765905808317775 -0.3897602130875481 -0.5866041282259122 -0.9295666642336313
Ni 7.98844021941301 0.15120929004303996 11.85953381737687 0.9830592368351327 -0.6281986638382471 -0.19298186107979667
Ni 0.12097616808989806 5.159951161050576 5.869272454603041 -0.034462552553243875 -0.7668597999882922 0.5362881535801796
Ni 7.381602866541425 6.428299013919074 2.541370405417136 0.07867190008060644 -0.1367402649782484 0.9403984647418127
P 8.57282772974828 1.8020025410959608 3.754798499594544 0.2620558330593229 1.357687993597881 0.06544177454357761
P 2.0192573204684767 3.4928751766169377 1.856554657452852 -0.2903055719336355 0.4419044991912712 -0.5834432139994274
P 5.076230629500473 1.3782401505857846 8.480208251697869 -0.45129391082597115 -1.4783519218395573 -0.8848808912904825
P 8.3683221313216 2.202832786007631 12.726884894276374 1.9833937158109456 -1.2116110245997391 0.33738169948583185
P 6.184517566126064 8.310027161200953 1.614938113405034 1.7710637892218404 -2.582697036771081 -0.36534578879892565
P 2.04804990327549 3.537638360822911 6.3429177218246355 -1.9240480268627767 0.2518614090248243 -0.8620029582510444
P 7.082411166943135 4.203780790228411 5.8702852910336425 0.5159131894682535 -0.009804644795247631 1.1306634411110785
P 2.7365875748706427 9.210077475711216 10.352839071219895 -1.0053532723466427 -1.0052643121772622 0.759433425617234
