# total energy = -340896.74342978664 ev
CRYSTAL
PRIMVEC
9.06446474469864 0.00000000000000 0.00000000000000

0.00000000000000 9.06446474469864 0.00000000000000

0.00000000000000 0.00000000000000 13.26676040401099

PRIMCOORD
 96 1
Ni 6.354416428690487 1.8711140151343766 11.341342318814949 0.2421166709332346 0.3766241899262223 0.5279063572743876
Ni 4.503090140190441 0.4647468935349218 5.927297034941075 0.02544363688408521 -0.40495826098422516 0.41389901511728067
Ni 2.7716685919189423 1.755315477455234 4.741646005167222 -0.41791482114489314 -0.5771722933890511 0.33170856036045454
Ni 3.3774920960900183 4.593245306981577 5.0547951637854265 0.32632775566451544 -0.253858384850195 -0.2356639733293554
Ni 5.09042213619201 4.590716321305452 2.6266326230629637 -0.03417818854360565 0.4330678747362477 0.09025446271188325
Ni 7.189462118445137 6.036897291597517 2.5908388645042635 0.9362106519127102 -0.2228963892510419 -0.5561005603204164
Ni 5.228682417618231 4.70602537788599 11.537530875368066 -0.1894885032145575 -0.7579519559757012 -0.6364822440032781
Ni 5.636003207375565 7.805927304278469 12.435624449962425 -0.3419901447921207 -0.1352809068239025 -0.3264555394916313
Ni 1.822963578175347 6.505892699779031 0.46521643281099073 0.6202439277675447 0.21100015203408823 -0.05314753055725686
Ni 2.7596581760735512 1.59995055097222 0.6545558797695582 -0.08357165137506897 -0.9451079544023401 -0.38746370374388756
Ni 0.5587789319163012 -0.09872924403502573 4.80055052315189 -0.943114321011079 0.3316296274934031 0.3100994667311111
Ni 8.567478313524118 2.3693967090490657 1.3105965188715503 0.3831493926392498 -0.16046409095774944 0.31931892844685006
Ni 6.667421462318548 0.8176192561978479 4.780332234440084 -0.23691121547289518 -0.3316972475065449 -0.2751530325629132
Ni 0.851074382840993 7.524838251172386 2.745251115737956 0.2850854611852767 -0.7898781152603365 -0.44313631471584325
Ni 7.4910277975095125 3.737115672127772 3.8034077289154546 0.6312860445143194 -0.08855342086037653 -0.8423797847034782
Ni 7.56508447483543 3.959793314133707 12.608357797427592 0.42488842424924894 -0.6071297589830899 -0.39253777583268523
Ni 7.936800046901675 8.894351978279309 7.010103553665709 -0.22705951948979608 0.3922271865708019 -0.5005688458016991
Ni 6.764710362898605 0.605569699156985 0.20906825457176936 0.6035399847493025 0.029141140340330458 0.5825507840921451
Ni 1.7680419860189536 6.559472751146657 9.415751776745317 0.6180767449128968 0.27578372416837665 -0.7456633684163352
Ni 0.12067703262856845 4.804256982804101 1.2483372424684824 -0.23265989639570897 -0.09853032956743031 0.5828536600445445
Ni 6.411694781692013 2.1097904374928507 6.9957354705287065 -1.009808222794203 -0.7732636466321069 0.41562653933134874
Ni 3.2525475134388007 4.419878353427659 0.7019884111173013 0.7764122195634177 0.20798399091558376 -0.8391553642289096
Ni 6.110827066416389 5.573875365711937 4.719490640330012 -0.972402785562551 0.7482874363027436 0.384695396970131
Ni 5.5308826092178345 2.979290157910391 9.110390806273799 -1.2123856979822347 -0.6269308528694171 -0.10722708601047985
P 0.36544205598579627 5.729403452561153 12.275853287145491 0.12642757019833065 -1.9165609744571122 -0.6920270711481179
P 3.882500622878126 6.128974124923915 12.647150080938484 0.20505678996645976 -0.024219534668996998 -0.14749467528127502
P 2.512497414672598 8.40137199626617 1.5195750352419088 -0.8415976551218152 1.1581575327662892 0.01144346595025126
P 6.425536219424777 7.79875731263039 5.648946356647741 -0.4449867376610207 0.24393726908174115 0.9180980014723995
P 4.663422393377812 1.1847346123836888 12.754132520163871 0.387628511456526 -0.6799441718416548 -1.7041976235269103
P 3.9693653889508638 6.251824816208879 8.215759857228829 0.16320540114831247 -0.24613453384337608 -0.15292484515791083
P 4.655382213109992 1.2110215602717131 3.63992104198152 0.768749046591205 -0.5847915004972059 0.6682968174107136
P 0.22546315203558662 5.519180385175268 3.486929192380259 -0.5390646878840523 -0.4173376084851845 0.05062116459097733
Ni 1.3330020629369361 0.8533232765551374 2.799711326636591 0.14310528796432775 1.4027900281428423 -1.0827779302837095
Ni 1.661625169396399 6.394717039142265 4.951433978243235 0.9980485111551133 0.9300549167239595 -0.2920852895418776
Ni 6.150828549530131 5.702744861616781 9.280271566669876 -0.4486371899294144 -0.46204986379089463 0.15708900383792948
Ni 8.74708161885285 2.252138792538898 10.272545836868154 -0.38036694479810623 0.4559990296111244 0.6209170425751694
Ni 2.175915708128416 5.161677893898134 7.146657902818644 0.07102621060989057 0.45782374152468897 0.10125724158029012
Ni 0.647171060305981 0.21161446273099216 9.357789056652225 -0.0531056215757279 -0.5971963019194618 -0.47539671741144585
Ni 1.6058333886202643 1.2057188483701635 11.542904290094969 0.09050334549789574 -0.5665130139029921 -0.4235175120436513
Ni 4.017552083769049 6.756797085137831 1.5470367377665843 0.6021683012127564 0.4506403364023723 0.3058761726783829
Ni 5.910085429199771 7.673966825880586 7.916382339964512 -1.2514271281554123 0.586089650483339 -0.29920390286452986
Ni 5.179045408433809 3.030885091489231 4.980381346546824 0.21492545523042342 -0.4003076495860912 -0.7232484910562448
Ni 0.6700552081122249 7.390883590520929 6.983967982339661 0.4979504343422456 -0.08483920523358292 0.2185234569943269
Ni 5.214414950040385 4.695021117632176 7.0940948844003415 -0.09256305624040187 0.2950369159710338 0.0839118083233071
Ni 8.25923212391027 7.3854811695067 9.10932935744701 -0.28395648978715615 -0.44494174335569825 -0.06225900594022181
Ni 4.57050256482604 0.3315654317299638 10.444084487874134 -0.4001161024005754 -0.2873331195688729 -0.04401625767995
Ni 8.184223677781508 6.971371095622423 4.702164822332366 0.5635421042001263 0.6358430677573823 -0.09575842324924798
Ni 7.390267206915278 6.071559804950554 6.901581061872676 0.08447282303309968 0.22451052781569722 0.363702853878864
Ni 2.2978690173992717 5.119890711220964 2.8422173213715265 0.3655393928669704 0.8117011246726988 -0.6530450334579656
Ni 2.4226504396842876 5.014135600528005 11.274982278541351 -0.4828997106567102 1.0280787389686163 0.9685420170555643
Ni 0.9837029122938236 3.3405000152862154 3.7702145653047108 -0.3387194444606489 -0.4979573763207811 -0.08510480019014376
Ni 3.628369288054451 2.8791731443161734 2.754935589918496 -0.9557901167065345 -0.3637699596713735 -0.4080685244784327
Ni 1.0472085526053754 3.1940001353668177 8.215215989341491 -0.7277129545855016 0.9351626702641701 -0.16532013349847013
Ni 3.7342150433953005 2.8826720277247175 7.001015521268284 -0.5330647615468754 -0.717496676174132 0.07841684664700689
Ni 4.288724612395995 6.901837586226204 5.9649607925857415 -0.45260157389380123 0.3490907603926439 -0.1231221599741815
Ni 1.0686188184369318 7.70768663489557 11.649264000589353 -0.46574993835030104 -0.4750277641078013 -0.1549174501079074
P 0.14953738207018272 5.594941181881513 8.172682801212188 0.2972015277225204 -0.0660819792307378 -1.1785962602366153
P 8.42319922747802 1.6861173532562068 8.14116112490853 -0.01998878441710106 -0.41324775468652697 -0.6679440620569852
P 1.9579153299535916 3.135026727449753 10.279258073044389 -0.5021932687789996 -0.3078494943546698 0.5090056637151427
P 4.1014708987853705 6.269364555575544 3.7259165258809945 -0.4010316722363093 -0.5868090451478668 0.8359376286225604
P 6.963222141777136 3.799814575073105 10.376490773942756 0.775021252753162 1.081407532298744 0.9194974529230874
P 6.36596455683164 7.731852498022974 10.294899713484243 -0.8284503191065796 0.4058743450405914 -0.5341963040481574
P 2.311746712991191 8.476625182944233 5.8313378913455605 0.8749497482196996 -0.1249008491411591 0.2300790230424102
P 6.851185356985417 3.9469761609220977 1.5623466187951613 1.2647063617628218 0.009574531062312543 -0.29432909127073187
Ni 5.230894147026739 2.999467656530647 0.4621354212292184 -0.06565234789248693 0.32605907538416107 -0.060432237144128174
Ni 1.4219879137702935 1.1092729430154802 7.000338405748548 -0.5076332088476484 -0.2900816288482875 -0.9993356053976532
Ni 6.7276910887004355 0.6181910599291522 9.165739334721753 0.03614199713819582 0.11055255083928703 0.22459820243349707
Ni 2.665396806733011 1.6059512266625207 8.88520049462836 1.6410047929185094 -0.7438265723179126 1.7024500447081843
Ni 6.383767165677185 1.83194646278122 2.4015356754048516 -0.04205913395357917 0.5564582007701514 0.5803136672315103
Ni 4.134320519180612 6.78100827058918 10.518458421467665 0.09535141761881642 0.4443012815582219 -0.5109753858470039
Ni 8.441001836323565 7.018696666285657 0.33046409925810344 -1.6385912983810105 0.9000503999420693 0.9075978732720241
Ni 7.59061907214597 3.9132835453014816 8.16492180645987 1.1926972184143718 0.16977354128413344 0.09049511796777963
Ni 3.235959542874978 8.467379428859479 12.550169372161252 0.017373458281441045 -0.0840791871391068 0.2381206623999641
Ni 0.14375878576721182 4.748093558971618 10.120826638123265 -0.6092393491269249 -0.500488627383067 1.223315971741493
Ni 8.389678836688393 2.1540884769165665 5.7987683629122975 1.8119888095709762 0.8196882566432334 -0.09179146818169998
Ni 3.484489038459067 2.870942610287785 11.872477352464317 0.6330855596169033 -0.09961610643244136 -0.43073794105149044
Ni 1.0092828319283083 3.2937908282286323 12.591920296979266 -0.3932180897291615 0.4273435706579608 0.1155795717402332
Ni 3.2202417609308975 8.395235353604035 7.860648571763026 -0.07954993181018558 -0.45171557174442206 0.7840391399810562
Ni 5.672659902982176 7.946109252239952 3.5250842440164867 0.23110617875534392 -0.23733236217071382 -0.28241871298639104
Ni 3.3313177124549846 8.470361637775051 3.7856703842163903 -0.9740647466460064 -0.5674954324209195 -0.21289968304964624
Ni 3.5899450218139903 4.3098357508895155 9.197884646202892 -0.2718558498688802 0.4229757806075683 -0.013982687432337208
Ni 7.416128124958221 6.1822278555591375 11.384101212117498 0.44593058963152876 -0.3706412328699101 0.332471406668408
Ni 0.538160900307301 0.012857036856680699 0.4233585473084666 0.4509817789021911 0.18181247472653853 0.47336220347992025
Ni 4.703296973984509 0.2155964821127884 1.450574516375281 -0.6280323134637119 -0.7314102009314306 0.8528027798090151
Ni 6.031077905202996 5.608293138515672 0.3473040619430593 -0.2942069638705707 0.5198171525083499 0.37519054280348935
Ni 8.053441579806194 8.776187615290244 11.245065012505341 -0.21802183476755999 0.3418291937342242 0.3578389388989192
Ni 0.02450849989642786 4.721951642520217 5.769010631456575 0.4085017553611094 -0.3735167546454922 0.12575779782481566
Ni 7.930237374394458 8.868627027208202 2.5147544664050523 -0.14819015868640284 -0.18513048335617793 -0.1226516480956662
P 8.377106424026087 1.6684779047768634 3.6367113149997436 0.5533541079235309 -0.8440592292884301 -0.5876163715405105
P 1.7150239314682447 3.1924138540287474 1.5423803222044883 -0.9889555477149097 0.10584280406844351 0.9004962292302363
P 4.734134283196599 1.0445707933517838 8.174778505471398 0.14852080255294423 0.165589842220089 -0.3666310832692525
P 8.484094301930348 1.4878956372509236 12.494701192778084 0.6265629280070371 1.003688225939394 -0.5949697265817883
P 6.349295006084716 7.63929524806276 1.3148060563195498 0.5562715386806419 0.35821252018825406 0.06841962622497895
P 1.727768568961542 3.171547456084529 5.993099610630153 -0.05306705502830861 0.3643597707365725 0.1571496818725358
P 7.001827697313376 3.9965950411769415 5.922971472343777 -0.6175260146157494 -0.133830290420305 0.6416198223401596
P 2.4856303410380787 8.480740449958425 10.244871119420939 0.6594902748626772 0.9663354963225487 -0.07661913131663578
