# total energy = -381161.59790748666 ev
CRYSTAL
PRIMVEC
9.36844736024292 0.00000000000000 0.00000000000000
0.00000000000000 9.36844736024292 0.00000000000000
0.00000000000000 0.00000000000000 13.71166968889194
PRIMCOORD
 96 1
Ni 7.124385767066506 4.409109902477662 11.81461935673761 0.5052515959893493 0.33532790228059667 -0.247927878298373
Ni 2.3265415056317598 4.09776828799796 8.729507165410515 -2.0593145355089755 1.1653717911265413 -0.5636089528823197
Ni 1.0511772789420306 1.9980743691928937 13.648376778528666 -0.4285455613858619 0.09163205978570024 -0.5199382514672465
Ni 8.378136985463133 0.7137735804698786 8.64790892486778 -0.5005007115679251 -1.4096823843873012 0.39194667921590565
Ni 3.3034644699959275 6.028970679212455 8.055194422492166 1.3697950612740601 1.3317355353981772 -2.4291947218431456
Ni 3.67771520917792 9.028859977674058 9.095115511809505 0.12378833280327066 0.2525008423810361 -1.8382986511100985
Ni 7.368639929276201 7.944153025268214 1.8750160644103981 1.6947210514950426 -0.2637787292877006 -1.8961109341328766
Ni 2.136427601300625 5.651815721317476 11.855781504348103 3.3066235277309572 -2.5721526855963317 -2.2579229987469307
Ni 8.459642478376002 9.366564403309715 11.12719828213148 -1.024696195649629 0.1928587052383711 0.6770560516605824
Ni 5.571771706208561 2.1589961912347753 8.712408811948988 0.722957185068071 -1.0192950792387157 -0.177398661929559
Ni 7.784374153816606 2.017120422881614 4.356842397246606 0.15999332196891802 -0.09283173652075626 0.11739168524830751
Ni 6.327796047883928 5.578273408746668 9.754303833146414 2.108301249820324 -2.029500280361021 -0.2504953819152331
Ni 3.934326353589003 4.627806940013069 3.2852475239075285 0.4322929442434361 0.08244602241105801 -0.7905093210864321
Ni 7.5715136590495575 6.81781269234458 11.507998502933631 0.8587762237836307 -0.07100101379890998 -0.7026876361857575
Ni 6.24622497583883 2.576810211111577 1.0419240633845546 -2.2636313619856177 -0.41987297331252854 -0.23860480112523422
Ni 2.8780620076755135 7.415622693294367 1.8129435420663977 0.09107644439254636 -0.12118560507310096 -0.28259766176641654
Ni 6.713766714839944 8.7130589822028 12.744064903057659 -0.9272310741219193 -1.769292042033398 1.3965959835169883
Ni 7.945708187546781 0.6517984899794753 0.12791584479115353 2.497394261637518 0.41807191554804773 -0.4179608438914802
Ni 6.9078341039997255 3.4950211152360944 6.397192822453134 0.6644748725614621 -0.6385406691942035 0.6325402286363945
Ni 2.9276492000879064 2.3113084100597683 3.84990821036043 1.0629153870318275 0.34938540881492736 0.11299818416630217
Ni 5.55346575986928 2.446026684552535 3.1311693527360895 -1.1714863886647116 -1.1900674941010085 0.6758890279356746
Ni 0.5505321308365919 7.1514699486769775 1.8603441388413353 -1.1411666546352475 -1.7126269852411857 1.4950365815840896
Ni 5.030519022582337 4.480338208525542 7.86833230627483 0.6124642838221258 -0.9136618200779167 -0.5070549677466751
Ni 3.4794226502131145 1.4008452119857042 6.268920976658452 -0.7584088410074616 -0.6043647946434431 1.0963600398435183
P 6.191410189743059 0.08180528323162999 11.011457671660965 -0.6294785589919353 1.5996383141565804 -2.9000472715273347
Ni 3.5383970269816793 0.3016462082020551 2.596071739091906 -0.9729326899240921 -0.12983762432114412 -0.43356075521226617
P 2.089763364496142 5.246649105513361 2.086216470287313 -0.41585305351985796 0.16728857007875061 0.4554382720116479
Ni 8.597377392951293 8.739468635596062 4.809546389158593 -1.6230358671449145 1.9185466374285733 -1.67744400958215
P 5.6099012873758465 4.107399051988125 13.217131215526672 -1.4396521912765141 0.18359759165141928 0.12447404601638562
P 2.5535108822754498 0.3707169607996088 0.5228024631960397 0.8195003090021434 0.1331461198690868 -0.3802692428779773
P 4.5612253839059695 0.8308126577585215 4.424906978586821 0.946125597033577 -0.1229882054994785 0.8080177622838407
Ni 3.423033964943854 2.2829688564894886 1.072879287486015 1.0521442645582524 -0.2452464748114679 -0.5169298036582258
Ni 5.690170145223831 6.306051881326369 3.7322480050051063 1.263890550729746 -1.9992584507573439 -1.026071992951233
Ni 5.951390565785849 6.883672877997163 7.595785432732163 -0.2104586777083214 -0.35668991289614055 0.05019281880430711
Ni 0.5860582204543959 0.09814010822506448 1.5247101400946135 -0.41861364698413067 0.6935345089315798 -0.6870337316985845
Ni 4.011531729117159 7.744923621557284 3.945752112112743 -0.7537823979790439 0.770778418316408 0.881698636907759
Ni 8.223604444589823 5.5078788945228405 1.242760155835089 -0.005571066329874276 -0.1513194483440039 0.3979088103366115
Ni 9.08017096441932 4.180641574240172 3.0579352620867564 0.7400979585134156 0.30344108087432903 -0.23749099923576522
Ni 4.702763888150526 3.5405424014503053 10.997664506463769 0.4748413591286081 0.507038769796759 -0.14678633636034077
Ni 2.6828422994779983 3.2304093166931045 12.18931790770825 -0.6681734044589718 -0.35381130579676484 -0.046224835295494586
Ni 8.800850703362167 4.641559820886183 10.076184951020023 0.5664271390574052 0.20403066269479053 0.6057799298234148
Ni 4.287132716532195 5.805233416942897 5.644422142581059 -0.009314592532706539 -0.18269102067674992 0.4008856335767483
Ni 8.336231919968965 1.0852409539111334 6.427303949438335 -0.1933497859421767 -1.1685884982916261 -1.001378861079927
Ni 0.632735573085325 2.200826309149254 9.267964304314303 3.294693866172907 -0.23387654241162945 0.9333032484579281
Ni 1.4721953078505798 6.4200471500348515 9.120166740320887 -2.36462480838156 -0.9362145085674521 1.979472012159036
Ni 2.0844233494432296 4.634908223188696 4.742770906189045 0.5632024614725203 -1.1201167759434838 0.38272696038985055
Ni 4.733539238060731 7.81507455614712 13.297124641019295 -2.1330308913565204 1.2492653446174034 -0.37309252262388004
Ni 6.5314473587965685 6.381589673206422 13.583232342262123 0.26139274555402725 -1.0667440167492983 0.005265105053681255
Ni 5.57123770470327 0.18743546520196339 1.3971784016493711 -0.07502067648126434 0.621424321228891 -1.101681966277064
Ni 6.156447143817677 8.889785375111808 8.7509796469917 -0.287267299327944 1.5143789906664438 0.7167554271327333
Ni 3.39210871987427 8.439125578435867 11.349148981470178 0.22998826310081683 -1.1240217674248447 0.08471296406836379
Ni 3.683636067973429 8.117216355219876 6.736159177961822 0.5419486943000665 0.11530137837818207 -0.3771805766503246
Ni 5.912755088455657 0.9843240378585546 6.459512671810111 -0.20459476272837665 -0.21449222434774673 -0.5553371997918306
Ni 8.59840792217203 5.315263614719552 7.804476968378955 -0.3484731814133031 0.2321719010156969 -0.4408241216428989
Ni 8.369967699276923 2.887852035272519 1.108151492177619 2.5085240530020925 1.5314657709454012 -0.4809510715707717
Ni 7.59387614313956 1.1099268129715256 2.169926358887815 0.37162288005688904 -1.0329877462344594 3.5997768535260324
P 1.325494789054875 5.70095322825173 6.913368982759831 -0.1300926777547437 -0.26473852209780857 0.31547564344135987
Ni 5.8637581082333226 4.759995733691298 1.5829575253401857 -0.3204317018950546 0.8190020292094862 0.8257442330293263
P 3.139244954447687 3.6645244351524804 6.681271317975854 0.4306376680282003 0.034825078098985184 -0.49674484406991865
Ni 9.25773114915238 4.48340169084537 5.308719754167869 -1.5741771937709987 0.2199599323305373 1.0893267871458208
P 1.2903350057328058 1.1146110367021504 7.408552325995362 -0.19859355083961927 -0.18883107213621672 0.7023487647891001
P 2.297771003478263 0.6345755361667144 10.333265454648913 -0.13829758216303922 1.3445218885295682 0.5709738778878232
P 3.4642645022208125 5.339303050905118 10.18317730525122 0.859976414739319 -0.31432224656320706 -0.02811115641391933
Ni 2.040522804639815 6.909314318698603 5.129577238658603 1.433231889572467 0.8760553225790526 -0.44972013858094806
Ni 3.343720688736916 2.3365844813102195 9.150386541296639 0.1523823423908795 -2.763285152172215 0.9116494176335783
Ni 6.738836680246247 2.195120924645353 12.674066674161441 -0.21648714329058846 -0.4666809348050027 -2.6417383071049536
Ni 6.837130431009676 5.798563082350487 5.883183584044223 1.461901746703334 -2.288459219662575 -1.2036642589488367
Ni 1.2908409018957134 9.270078762906307 5.622730439329281 1.171193540014641 -0.15632487197839529 -1.8764859608130975
Ni 6.981488837940069 4.080567818459106 3.808347903732835 -0.8665633239282173 1.8048735386824337 0.7448002490850916
Ni 1.2711296884372445 2.280870324258169 5.578003597459785 0.5240684715855362 1.502685099268283 0.14594584273691638
Ni 9.348042982678825 7.0284060228260055 5.8949756488636975 -2.058637049825977 -1.5108923176694238 1.1002519186987567
Ni 6.075728600491551 7.78417741641992 5.42373337311539 -0.4673291099119629 1.0731483776137452 3.7517154235112744
Ni 8.146370963719283 6.790906511235872 3.722416756239271 -0.07615299031349466 -1.7094313611220238 0.016700600584132527
Ni 0.6879119812530996 1.6127688620066274 3.5366788537172864 -1.7503440401759855 -2.126139563553325 -0.05184475258543329
Ni 1.4821727043968103 3.0534487125975645 2.1460958390806346 0.4787864598192851 1.7782705913829244 -1.8567159772750217
Ni 8.742578960153196 7.624988757158369 13.627713730808136 -0.6701924917715297 0.48636530060780747 -1.2197835331082025
Ni 1.4362766802841496 8.873924593559913 12.60262851489043 -0.6449751119656376 0.9993294347500661 -0.15216328440153792
Ni 8.164245961475347 7.630488035818122 9.23250566751822 0.24773298867874752 -0.7867534535884257 -0.6699685486861816
Ni 4.534178676085342 0.8853688747043615 12.422909839862298 0.33439356339178533 0.2904783500660739 0.20334032149598527
Ni 6.279342437614346 8.680831522936101 3.622705559374955 -0.6100536174981042 3.0397191083300807 -2.153354176294904
Ni 8.090609964429927 2.304450706518134 10.358577125999718 -1.4253203480348742 -0.2624553824905867 2.4564036781577694
Ni 4.807971553140357 7.040257108864486 9.497772320538752 -1.6638819546269987 1.421546739925055 1.5128175597165947
Ni 3.390169451249791 4.693713967902959 0.4390560376504389 0.4416227062847943 0.31951690339026906 -0.439730631468404
Ni 5.210149634204334 7.272913133117155 1.6069529298226837 -0.34738791876892433 -1.0331134731790463 1.8716579432968348
Ni 4.901571711725699 6.171951924366044 11.756824467504416 -0.13739049696773759 -1.0404891968178274 -0.39089561224357194
Ni 0.8883386725495775 8.397904409606369 10.132183908874893 0.6995197799807372 -0.03386348551666426 0.23846776132673772
Ni 0.6260521226664696 4.520912954480213 13.407832521513626 -0.25032543199627205 -1.1236813533662906 0.13235936230173334
Ni 9.194559707921174 2.9566351765330126 7.231945849213857 -0.40090311707824505 1.6403411911925814 1.2085740375456284
P 0.40218276528770724 6.577914858204365 11.714071557515004 -3.2413483606722306 2.022860149336684 -1.4471693255891658
Ni 1.2821376142042127 8.165491964987693 7.5917260844472025 0.24116433432229437 0.41400571589847407 1.0927388981511632
P 1.259718919429443 8.505463554908975 3.320006337678256 0.8102016573090369 0.5031723448628174 2.046262330310708
Ni 4.821724434013471 3.1746202120613645 5.33985859983957 0.2729236290117622 0.7088315442999663 -0.016883920239532214
P 7.790538592246107 8.099659884677493 7.0174402550726125 -0.5702148882346114 0.8236161309427298 0.3358354380446345
P 7.299491418564719 3.37223824280896 8.76831127479501 0.1873891974833676 2.226843760843623 -1.653476957243591
P 0.4394701230282261 3.0575895663754364 11.652821584858103 0.01707546742504801 0.3201789624543002 0.18804739989265679
Ni 1.5022586557537292 6.754772409377832 13.525067399354208 1.1778812364474616 0.7016735930989465 2.7674076589810213
