# total energy = -340873.38663504604 ev
CRYSTAL
PRIMVEC
9.19977723571559 0.00000000000000 0.00000000000000

0.00000000000000 9.19977723571559 0.00000000000000

0.00000000000000 0.00000000000000 13.46480391219971

PRIMCOORD
 96 1
Ni 6.544362558445537 3.479972042177626 1.5085564311615383 0.25760448215618864 -1.5759818510799053 -1.0384199729936243
Ni 2.502146145604635 5.827525135264454 4.8354395843590074 -0.3925532024516529 0.263521618971572 -0.44318053769021737
Ni 7.215725483971566 5.491659676961667 8.512475449522688 1.9733640994890855 2.19602651835245 -0.9011251210634869
Ni 6.234330073926967 6.980109995514441 1.4819902351513226 -0.43165659621101793 -0.388132447676138 -0.546272261376085
Ni 0.31249894472923573 4.192807562368632 6.4914629207829195 0.3748984654843673 1.3406703759939622 -0.40480605167707706
Ni 6.051705300924648 4.966251213361072 -0.09221580460144783 -0.5153498607656157 0.9768970738884789 -0.5628180815499081
Ni 7.77910142720445 5.524254486832566 11.142622692259344 -0.7007438821958254 -0.9940000521173525 0.014503078712181474
Ni 3.9641655048689275 2.3180126091761726 8.246263342756606 -0.11357256861253344 -0.12855798627777215 -0.10395921389248548
Ni 4.8924322028038905 9.064632264717876 0.9025514812962001 -0.9723981575768608 1.0972676392594523 -0.25499764066096087
Ni 0.045988765188720485 1.818032329172293 6.493388434106651 0.4891976278502801 0.4064844678207645 -0.660533885635843
Ni 3.8934284196029547 2.6708240566921124 1.3396374859169575 0.15472795980492063 -1.5015165328814786 0.03509015883491376
Ni 1.4767390024461828 6.537057935516524 9.983841782207481 -0.11907370093642075 0.48549858173213806 0.04088953912551022
Ni 7.173148916067947 2.2210837588234233 11.182411727735392 0.0026556924552922005 1.9499310652771258 2.479361572505524
Ni 8.547227607097433 7.532253011044146 0.4726137033956482 0.3304790588287276 -0.7150808676437878 -0.5604842912104089
Ni 0.24948507224526104 7.072411358041884 4.756442019334898 0.8902290429762733 1.008064500630219 0.3590234461253236
Ni 0.9615698906339903 0.5101368337993838 4.54450583686894 -0.344919916844406 0.1925198338417136 -0.1063577960316491
Ni 6.876161715319328 7.659292731480849 5.662650411984099 0.26064789696820273 -1.4571706597762515 -0.5378835230917575
Ni 8.829642361095981 8.277315350026504 9.590252323189208 -1.2715943471319067 -0.05747161185390747 -1.4829125446270461
Ni 4.961559327096844 0.14344200282982475 9.193970089446351 -1.2015019611901951 -0.7493127922434644 2.005627844618797
Ni 7.770978024123444 0.4951577569064124 4.84238725594086 -0.4726191546663086 0.9101106123915488 -0.05846097235037029
Ni 1.6761809677838115 2.982512501068645 8.892694872643307 0.20590062602399375 1.1729922837862765 -1.276589229243337
Ni 5.399818303283658 6.7537494827079305 7.566923290603691 0.4005156518318393 2.0740420715271375 0.8491096472281442
Ni 8.261436534944039 3.879867948321638 13.1375547732139 0.8466933244771677 -0.34700585283915725 -0.8325818247764499
Ni 0.6276777844952743 6.236970409922718 2.0010848918045854 0.1816641220741323 -1.5760415006732469 0.8548218671215729
P 3.5120608643141473 3.530037228550031 10.166169402413065 0.4322608054539201 -0.5176234872911408 -1.1734303997649598
P 0.6197208973777636 5.351537873647057 8.481035211663869 -0.5528077485017577 -2.0042949847399867 -0.6202876365212866
P -0.07389076881769294 7.076937648320316 11.520970880740466 0.1833548795129939 0.7633062783090789 0.7458266334670768
P 3.2020559791265426 7.82131920380551 10.798274119595291 -0.15820049173455336 0.6993292612364859 -0.08249333070922567
P 3.842130463114066 5.914987415095851 6.50444288613625 -0.7610239100328056 -0.9071571861901797 -0.41807808619563486
P 1.9569673612553629 7.514543440340934 3.2247131898942683 -0.020954747874796172 0.0470730422284028 0.6359464261044661
P 2.582671793586565 5.721718500117627 0.7271172539882351 -0.2490378235331001 -0.35198427989035513 2.6816950500035492
P 4.08605335019197 9.068486971276132 7.265217524237577 -1.7464339064883019 -0.6871018659323587 0.4530859697293874
Ni 3.770583797473089 2.391426829545852 3.931156705033538 -0.6047885124444229 -0.14679816343488267 0.23689938839835328
Ni 2.858214314174568 1.147718178222974 9.921392776030611 -0.7969424783062856 -0.10397489762176933 1.138848290914716
Ni 5.982605775962661 4.919277152056863 6.347725605111757 0.9407211381885541 -1.0033310997102916 -1.0118319380924508
Ni 4.914907257987239 7.114113947131577 9.944268941490666 0.6444570346786386 -1.4847169448256365 -0.7423487022208054
Ni 7.83039018391635 3.1376391406517947 4.48890974457094 -0.7843466439191459 -0.3027823642444076 0.15458217825567572
Ni 6.8104293087351975 5.134174742735477 3.2354033307551164 0.5223941692069067 0.5460814855215177 1.378264532197652
Ni 8.268419165678447 -0.11124186339174026 11.971691874836148 0.057737721031100565 0.04616441437120437 -0.13479599676768397
Ni 8.447281229892395 3.2358835591139257 8.413899839088964 -0.1095937864704435 1.2157769830519707 -1.3059270589755057
Ni 7.891531901783129 7.552943309491691 2.8964807865589894 0.8802943003610646 0.4656784616824174 1.41676603070696
Ni 8.895632361435794 1.6273485515278896 9.850096344323726 0.6310273915362938 -0.9103265850570966 2.3220136585792526
Ni 1.3611530043603872 8.749346707538766 10.924412261887106 0.12847391120439808 0.6028470724473359 0.5183120287177332
Ni 3.5444716786452726 4.354751236700394 13.072129639181192 2.945137993218386 -0.39396962318320533 1.4915573647862377
Ni 1.5245134443484065 6.614391260883381 6.991962988186659 0.405371951482876 -0.3784404171993547 -0.032340106893602366
Ni 4.823111883194174 1.8534514705787175 11.12923885669621 -0.46024263537882676 0.4048263633920512 0.3359909897858923
Ni 1.7711962645229151 7.722982787573493 0.5999404568743995 1.3224607949644709 -0.21320564432583927 -1.7551592021764417
Ni 4.68476563683838 4.83165847601666 2.0131632790130256 0.7464899780826887 1.2030132556283992 -1.4106154377245317
Ni 4.968081968981819 2.4991562180833133 6.058111105641867 1.4741797927397386 0.9014660493426733 0.3023704735179696
Ni 5.808214803365212 8.805750540256374 11.701694979816923 -1.6850210505984593 -1.17457068401699 1.1259524087886543
Ni 4.689117131354027 7.077820826911229 3.8158043812832547 0.4218300970388993 0.5127067667158137 0.8769456956038059
Ni 0.7271485332299965 9.216428585031123 1.7121171366569996 -2.4641552970787304 0.662479182287672 2.1283905643710317
Ni 7.635106517777605 1.4541351503849924 0.3143637395248415 0.3423038193777976 0.9207848042759431 0.4531543610734776
Ni 4.549869306853342 9.577611829606761 5.332129104134036 1.3851412047128273 -0.9255822256645866 -2.4480517066486485
Ni 1.5776789555659976 1.932201561601832 2.7291810020644163 0.8900439235486608 1.864261136612131 0.23125401718711786
Ni 6.214338958530561 1.2611882276013728 2.4079109899541717 0.3791153317791922 -1.0116748436892966 0.5459107642716081
P 7.817584094348105 5.393939645787891 1.27443130657658 0.5392585490624132 0.6251655334388782 -0.18056034748699226
P 2.599866176778411 0.8158748624196375 1.0599927847697017 1.1241783476073672 0.12880172685746205 -0.3203203731281709
P 5.716318231025271 3.088217938668597 3.360532257511271 -0.7245314715337263 1.1195585894471687 2.0753613045591934
P 7.008408509531626 0.37996734923113 10.234987414199198 0.30806649546148235 -0.7589423449134285 -2.7253022451705387
P 0.44755535083387715 2.516102207296465 11.920162083967146 -2.9337482633242056 0.07005433361492451 0.41321998677238514
P 8.634174699417462 1.38834754513893 2.9839081072378284 -0.2367194111770633 0.21060625902977922 -0.38698676410746896
P 6.151191689280251 8.647477576943096 3.6803082258385538 -0.5927220681981922 -0.2469763130183811 0.1480932280972224
P 6.907845747268347 3.865249502686623 9.737719228451583 1.7353861333145726 -0.7418015714680838 1.6784850492521544
Ni 1.5254426218242634 3.643810870569056 0.877800401285851 0.6741699883620389 0.04491023024912911 -1.7333670460020145
Ni 2.6470426331763703 4.445433438477829 2.7806703139146696 -1.2566577804267325 -0.018750026913993516 0.48061579971854
Ni 5.426203263687197 4.405101616159448 11.184067687593355 -0.032031060293615805 -1.1020498911394438 0.2191819165139322
Ni 2.6720752263625727 1.4127269541589365 6.347052181436186 -1.1375593968999635 -1.0216813200827048 -0.0689767842800296
Ni 5.207533764443225 4.331797793113633 8.76520988300035 -1.3009617445504305 0.22829082079373586 -1.4959007293565978
Ni 1.1066779730764653 0.6737659072754727 12.864825544429035 -0.09264121777650498 1.1357184870364827 0.9445903913359732
Ni 0.3004509167848583 8.701369870542793 6.942991655298207 0.4132307854056625 -0.3058252648357894 -0.6173277825620143
Ni 2.4463034992833377 8.430556035326973 8.550487088084521 -0.1423694382395677 -0.15761736553757372 -0.1788449074577823
Ni 8.826523636696818 3.4494747814601463 2.021417318927271 -0.3361750807722404 -0.42223196046300826 1.2321741934630714
Ni 3.145514149754106 5.242446918115271 8.56921599407808 -1.4603328595543172 0.5530453184338605 -0.2830128949269642
Ni 1.3044547787791425 5.662103945230971 12.54017553425315 -1.405523367913605 0.3506012834998994 0.2863113631725779
Ni 0.9540536728342375 4.309469934362103 10.705447449801795 -1.2226685679654814 -0.3481119414191424 -0.787387744738315
Ni 3.4614528910994093 0.2824616728611903 12.433480200649216 -0.6340942033870758 0.2517806763855599 -0.3710058152981804
Ni 3.919022199185467 7.145126395360423 1.6724366585494181 -1.2576751659476533 -0.5134801545467286 0.6744918904778319
Ni 4.558839089417306 4.845872131464173 4.282224794810122 0.21600377589626668 -1.4838839074013799 1.6379096989329534
Ni 0.5000575581305843 4.626512648946048 4.041824502341184 0.3540007960997516 -0.09176627137071938 -0.2663570315378381
Ni 2.451197780641316 2.8979389512116946 11.942351946063845 0.6718788783350171 -2.245660379329494 -0.530704488844815
Ni 2.9708011849620535 3.7050721855366873 6.5037289834419285 -0.33784732626834074 2.1082320871452853 -0.06777787887592197
Ni 3.270658716131142 5.415669519035157 11.18056717244916 0.02405472695635857 1.1380031693056014 -2.345264144466761
Ni 3.7391849586107186 7.07976197985584 12.792909967730811 1.539211219218775 -0.11161107401078843 -0.17106294951951828
Ni 6.122120393996018 0.14533991682258976 7.263763039495666 2.7501385874879283 0.5054853092667101 -1.566439973027741
Ni 2.5635914561120394 8.275650190391552 5.254531745167602 0.2002758236380486 -1.095015610000482 0.8012048531270654
Ni 3.4629892538565197 -0.09394076278682563 3.082605154727802 -0.050722466055531996 1.0806842809794743 -0.6087642092627192
Ni 6.210281856878553 2.000362709310974 8.80598145465879 1.6985334832625973 0.8710609546882546 -0.2120044249288865
P 7.120645788793541 2.2932744088536077 6.433577003992435 -0.352140088741929 -0.29197421788531003 0.9708246424421539
P 8.044487393996949 5.56588347770635 5.176651033069918 -1.2630184325374376 -0.9391543079220663 0.3136493888658985
P 6.827550093711134 8.685242661481634 0.1987685416620571 0.008243728066030964 0.08751263830068799 -0.3744410662319745
P 7.7447494599287126 7.77497992711352 7.720287252915809 -1.4128335284217735 -0.8648126597856975 0.2315751479719625
P 5.7901464413594415 6.449540457023195 11.802425178021394 0.48265159920164613 0.6732209941852082 0.3842968759801317
P 5.577475196712088 2.4786131160675877 13.248653120084617 -0.018480318192374622 0.40904940033446324 -0.8896819122235516
P 1.717018777836569 2.915317329943315 4.871430951894128 -0.3131950749372993 -0.025148474241169595 -0.09513724472548131
P 0.9481014171225604 1.077790673332005 8.357617443427607 1.6035247936951804 -1.7273007852032767 -1.1208081455835535
