# total energy = -381163.9540153629 ev
CRYSTAL
PRIMVEC
9.33658423699909 0.00000000000000 0.00000000000000

0.00000000000000 9.33658423699909 0.00000000000000

0.00000000000000 0.00000000000000 13.66503478724639

PRIMCOORD
 96 1
Ni 7.545267085890249 9.243778467909644 5.0641800292865415 -0.11864586937038275 1.295652416522375 -1.5867753421509834
Ni 3.260335172609789 4.8056892288230815 3.1657649121190543 -0.11593155576301324 -0.18063233837550827 -0.22537261870567638
Ni 5.700899586841901 5.015995785990995 10.504817665658557 0.7704017517032796 1.9279445337037053 0.8264803398644025
Ni 2.7336771359071173 8.906737117978256 3.6035517392741787 0.7728476421406109 -0.3002475136376958 -0.900651523861178
Ni 1.2966554651685993 3.40905762096174 3.1728840575059816 1.182568357510486 -0.6474202310720205 0.45292141912706513
Ni 3.0382178365376613 8.46779628902664 6.006998563361073 -0.7266387476847163 0.8958962685643796 -0.28771287150579483
Ni 5.684261793950749 6.6977760092780985 5.810646464809947 1.2587419166492708 0.8425983284721875 1.6966990011570198
Ni 3.3886478480885303 5.703271079206858 9.887130734819591 0.42183781034838314 1.209483179623459 0.6715353789526693
Ni 1.836104622107455 3.013830678831886 0.9548757987993547 -0.8909687493557751 -0.9354547475832923 -0.5170457604107999
Ni 7.924173678988826 8.108319127469304 6.912212137599634 -0.4378755805375362 -0.3429738488616287 1.1746681288268026
Ni 0.8543487976438862 3.6628539869326793 10.439826637299396 -0.7781166038490341 0.3686529987952877 -1.4026285628643134
Ni 2.8898501783820425 5.2590737533990595 5.746788897762225 -0.19517989717238 0.2961581740596706 -0.2900703159943779
Ni 8.255809146718207 1.9961243372373496 10.188061912031662 1.258282460514349 0.9580364895385501 -0.8285256524292054
Ni 8.15325610681 6.273568310058379 12.972258370921239 0.18587610327295087 0.23558375491072334 0.04247642399665588
Ni 1.344617497762232 5.57212008215746 9.046116446607323 -1.9058561864450987 0.8170533901235477 0.5633101906949782
Ni 3.6605011677359505 5.3866021558122235 12.252220070390926 0.49819186092909046 0.36195193262602826 0.19762244517560157
Ni 8.306684193555409 2.5199160426170226 4.095998664466321 -0.78946545320295 -2.422343760359583 -0.427074119046658
Ni 5.219402607498662 5.524839620204149 1.964717935594667 0.464166138802949 0.45654641747416214 -0.8826471168639574
Ni 0.6329298380634861 7.353148194576413 7.783207131060377 0.10486475642589037 0.7967668719603698 -0.5354926542620778
Ni 9.428829565049181 2.9851580290177835 12.570602256970481 -0.9891033861466836 -0.8600296365747575 0.5444884300027848
Ni 4.184656999896069 3.522599820372129 0.8158260515895105 0.16048131734893006 0.8425980713618714 -0.07378397586068583
Ni 5.201009536794076 4.4919239830879025 6.328004330076662 -2.4767966399918246 -0.7685772969000312 -0.33183891529073173
Ni 3.947498426816283 1.3034711715718215 5.196990137332998 0.7430179603736881 -1.3623470896364471 -0.5969078241447656
Ni 7.308173868899261 0.21359863672651122 2.486421047108037 -1.83385089975139 -0.09001612144883206 -0.5142201180365468
P 1.3896011600234974 0.8407706033668918 13.242511400051518 -1.0405827849728981 -0.22441308300588447 -0.09136106551250071
Ni 6.674621280675371 0.9386628204853887 11.31948598081793 -0.07386907937532439 -0.4289237706608871 0.9338161835386046
P 5.175838106022724 9.030045384371892 4.043305784702124 0.39242567573485315 0.2999055569172448 0.3270057555681465
Ni 2.383928694996571 8.711742558757306 9.89482408012953 1.666569271651175 2.1577132245945485 -1.1941316368680532
P 6.9139926241901755 3.23631214168446 11.967960297772821 1.7632741179740923 -0.05598859955047777 -0.4768954134441593
P 7.632741542454342 5.687408222797167 1.8049736496961353 -1.1951955593561934 0.7260445657441431 -0.3585585906737631
P 4.24817378162363 3.3548400770117253 4.475722208674873 -0.2124721085939244 0.25037865383171076 0.32088421605144096
Ni 3.009853293999321 6.979535444670475 7.571372175073001 -0.7979436658772904 -2.1070329246308614 1.029095096048273
Ni 3.4619120236311103 1.4262752624233008 -0.10398153727764954 -1.2626723620519285 0.05141640679876306 -0.12981834104743448
Ni 5.594070391409481 5.171225833470407 4.085776972178311 0.2473918032892449 -1.8863183735224867 0.9275280365370476
Ni 8.294574643959546 0.11596691030479497 0.2017710519708924 0.09660714440278846 2.3898398741946068 -2.6815261285258525
Ni 8.966920739177118 2.120431618131183 1.8457502471556313 -0.10280761678654553 1.0552244461454732 -1.8790172118753834
Ni 8.29131617610376 5.382783492909597 10.069941985430178 0.138654965502458 0.010758524068084698 -0.1312537879423804
Ni 1.892534936492488 5.384996263344616 0.7180794851831921 0.8008407849194272 0.3883340221639829 0.1984349137745679
Ni 3.220645353541163 2.904732693459763 10.317934730715853 0.05139738063536955 0.23656488787707003 -2.768406532559181
Ni 2.0751771949306113 3.8623581162806917 7.800028854658576 1.8524584875502483 -1.4124491484991613 -0.010325036075091895
Ni 0.536280320290563 5.257673265781959 6.703396632914727 -0.3589105746965432 0.56303379710514 -1.1776827472834106
Ni 6.431365918169141 3.502974320564495 2.2158262989991844 1.022431310874852 1.1437786383367978 -0.15402064932525086
Ni 8.916475175209161 8.009883521155372 3.7954362823267536 1.5716336014135386 -1.520820118306097 0.299294148585491
Ni 8.858261573258353 4.712444763276535 3.448767980515417 -1.4875037635421544 1.4960642515176557 -1.5961213021422576
Ni 7.094730219469042 2.2835510791869265 0.316552216093209 -0.27210010466920237 -0.03088871915905648 -1.035659379529352
Ni 6.519204501513679 7.200261629709616 3.4576769490769985 0.12121311587692674 0.9614714833620278 -0.4442532019291059
Ni 2.462701455166413 3.4869994251454357 12.356197873034933 -0.6293150368308775 -0.8980346550636211 1.2746634729755337
Ni 7.389887653065014 5.6091956576741655 7.4406796043036 0.7784436481711496 1.0960270819841318 0.7358319841482102
Ni 1.0980663210637591 5.366659212144714 11.951261817084927 -0.3303690156134245 0.8747162920526548 -0.23800162032359656
Ni 9.403900885464791 0.8409844111431025 6.77088799849962 -1.9456586631540171 0.5281979203728774 -0.0037057309863613593
Ni 3.4372541049860286 8.187512033924277 12.248776738169683 -0.5208545926339287 -0.08203027502987809 -0.27570504841164134
Ni 1.3579221301246858 6.484089608660915 3.0390627973999793 0.5399386058485734 0.039198781686648615 0.21763076997672842
Ni 6.427659294275882 7.548124080629134 0.9743556478948102 0.6017677233402281 -0.09880620893663629 -0.8147550810076741
Ni 5.339611127966448 0.37660419145606383 13.083218071165694 1.3151727459434899 -1.172530770768826 1.168198204831743
Ni 5.124738981166787 5.953080723761118 8.098937727751554 0.2827532135076743 1.5498033929123245 0.8272480712683624
Ni 7.994114030586822 6.210574377041202 5.0513076807685655 0.5263230719476678 1.3876482874053973 0.8564267497148476
P 7.100630940629092 0.8311091061257216 7.783931649987624 2.0320765257286295 -0.9492497444848554 -0.3383762021886173
Ni 5.992891918423226 1.935557916089813 3.7815387768730604 -1.2938403030143009 -0.8861682426433383 0.275788352154067
P 4.394095254741381 4.140354908275126 8.890402764070808 0.037960795514489463 -1.5017276204510202 -1.3695441216055186
Ni 1.3597054176904606 0.6979535444670475 4.867431125910571 -1.1746899832036737 0.29472452693693757 -0.4796176974713288
P 1.5534955575607032 7.122235796268895 10.605474445333211 -1.7044673322485289 -2.3182428786829106 2.2142368707128894
P 5.5007325600217944 6.683696440434181 12.120789909476523 -0.2904703796462739 0.36111966653272 0.25063447859625865
P -0.06479869472641385 0.5565771204959938 3.045061552693226 2.183160718133376 -0.2643461717553963 1.3045756871539338
Ni 8.759909996201447 7.801939119768301 1.34260919851931 0.21390935526108323 -3.426650850829899 2.073265084151797
Ni 1.5897961965959464 8.500334284663941 1.4826019407246682 0.8571518008063301 1.0624734143984025 -0.3751794870598958
Ni 3.2513907250285743 1.776621244717143 2.6105817436312813 0.30353929701509014 0.7785974001401945 0.36369951144475426
Ni 8.997423359477565 3.391514179411529 7.864842487919572 -0.06523608629067473 -0.2865587032966936 0.49788409988068444
Ni 2.3511572847564213 1.1277193122098321 7.213320709909872 0.470406463285706 -0.6683053020511458 1.0586599541895831
Ni 4.574543415912713 2.2694528371747826 7.307363453398166 -0.7879675285011849 0.10787397556585937 0.589464737603159
Ni 4.326124922391441 8.640999260925508 8.335548243343847 -0.37406697072200734 0.09871416344346225 -0.6929282428061486
Ni 1.4355371538643915 1.5030313204245178 10.994627005838494 0.4385636077434963 -1.1360812696925402 1.3853417507594077
Ni 4.813578642399414 3.1047783446863875 11.850318404277974 -0.30390002278861855 -0.21474342112660438 2.951359805758382
Ni 0.9252956330093709 7.290144924975122 13.215837712896223 0.5306708073934022 1.0649488725220884 -0.7142825401122086
Ni 4.028166513561268 7.12171294755851 4.416867183395434 -0.2984816799865247 -0.9111395678766954 -1.4461848501887093
Ni 5.650976871584328 9.111357695420741 6.301261552198923 -1.326284025365303 -0.3218537790535619 0.5910449376060852
Ni 7.266299289147958 4.1568899987410255 5.634886202522257 1.9554265411740583 -0.6983751248533328 -0.9316793397012599
Ni 5.629633440299718 0.9646278609064307 9.20238939053227 -0.04008375539476323 -3.7418339027315044 -1.3951093716691327
Ni 9.003025309945967 4.31700307971206 0.8256593419783783 -0.06504042534010089 0.6302696874346628 0.19857709577938704
Ni 4.244793938174362 0.7999538585957057 11.016231861478296 -1.2349075332338344 0.6515226832761684 0.4043774487800907
Ni 5.162598829749068 8.062215075114358 10.42755556479836 -1.775548307355755 -0.2962826154526768 -0.42212911633655686
Ni 6.1777936302169385 5.021401668193003 13.38238743495545 -0.17251073770963837 -0.9827928705476234 -0.06864125531748178
Ni 2.244486811253939 2.724835390751157 5.568856946009617 -0.9674210160772435 2.5009583248396927 -0.4381442608178906
Ni 4.5191214526119925 9.06535634549105 1.716683175680479 0.16095002945523249 -0.23346079503044953 0.193238457175293
Ni 7.083638357541607 7.446205928440678 9.17783324065403 0.24420286403830202 -0.5468417607263099 -2.7987332085671803
Ni 0.23171534454132228 0.08121334325724223 8.933201665649397 -0.4744706060527506 0.4660641271566102 -0.011663295270541203
Ni 4.253532980905068 6.8237078558077675 0.39053157397892185 -0.7250575192405254 0.506764690199766 -1.3093887922718612
Ni 6.560126749685354 3.4601567458176774 7.796694760471466 1.150108694319884 -0.009673775644338177 1.2502670464090402
Ni 6.724796083704022 1.947359358409913 6.060046233321603 0.04295079252991312 -0.034744602570036934 -0.47316062899207545
P 1.32473991018352 2.083300023109794 8.946115095137474 -0.5464725503123492 -0.19315052544717703 -1.1278925632341605
Ni 9.406235031493294 8.977583118235309 11.191307752150433 -0.3317903214409834 -1.100348335067305 1.181408789984746
P 0.20998817964962632 3.692142851298306 5.191838210218891 1.4912606594814253 0.5617410464356454 1.8261877267791775
Ni 7.153139889686243 7.840863338939578 11.229761407482364 2.2888320296209614 0.07528961387193485 3.305488385685249
P 5.255143051487064 1.724140305412333 1.505217014765606 0.3292493001866845 0.6351707242807061 -0.5050808747394397
P 1.292267270635018 7.013679332775383 5.308291556556025 0.17773059134768102 -0.11826251788903504 0.3897471004614256
P 3.395893037360996 7.265645728259978 2.2158944560632166 -1.5485360961641266 -1.6912356640496036 0.947123442170472
Ni 5.916135860422008 2.838965794960727 9.872850429417225 0.4912020598748185 2.053074211026219 1.2210516011873487
