# total energy = -340867.87799134036 ev
CRYSTAL
PRIMVEC
9.27820767670383 0.00000000000000 0.00000000000000

0.00000000000000 9.27820767670383 0.00000000000000

0.00000000000000 0.00000000000000 13.57959479045865

PRIMCOORD
 96 1
Ni 5.050712815477435 4.949728806124013 0.2526947620308003 0.3486050790054771 -0.2682920437770218 -0.6664674775114586
Ni 5.49898940606091 0.8058670542079944 0.6143806264021592 -0.15770786836885098 -1.4975056119498726 -0.3963008424195433
Ni 4.9555740767866965 3.511356147355838 8.469171839050638 -1.7329862656238282 -0.4873934847620057 2.2532093953213455
Ni 0.1987132235505413 8.809388859316623 8.148598639494232 -0.48375203135467654 -1.478679480382305 0.47280067454949537
Ni 6.085140158624524 7.570729614856827 0.08400117852647314 -1.1039491650446858 1.005675174462436 -1.20950503400033
Ni 4.942797985195401 2.220005963065273 12.148033959363465 -0.46453946298196774 -0.6845513315963629 -0.29128439090713704
Ni 2.301802639513248 7.161022532439667 2.073481728325101 -0.5725275955281882 -0.8305228853648923 1.4354978027885086
Ni 7.060641606567316 3.7424391808872883 5.324314162245102 -0.34941086273622407 0.39156538461708695 -0.469488836567443
Ni 2.518049819410362 9.229932887978253 8.675948752653463 1.6949208262106745 -0.7878274033788948 -0.5540053683542847
Ni 1.3912579215854601 6.083683480062553 6.22929937829816 0.4874587907823025 -0.3279622059441448 -0.0032868982813878877
Ni 3.914726214118056 1.6668949070569261 9.887954490712161 -0.12328465369397477 0.3424855963713005 -0.08475281616736371
Ni 8.370640987734063 5.483420574041887 3.9828403181116494 -1.6720328658689074 0.3600140921733671 1.0588759268551313
Ni 1.7203559381019842 1.9144003676882988 11.43640844119052 0.4041082542791041 -0.03419310094194111 -0.2556792401090177
Ni 5.315772644511662 5.12337973584274 3.744165855284631 0.9517894801875737 0.16731042445562153 0.35290036394672125
Ni 4.596219825935232 5.303757365927256 10.488742543271728 0.5535047745687822 -0.9336462336196437 -0.12555442356475796
Ni 7.073863052113864 5.329959023627922 9.629140750900342 -1.4387731311056706 0.6181788177084 0.7240733009503852
Ni 4.310488150811384 2.667753695826886 1.1323616057277737 -0.1225979120395953 0.9837210387888478 0.6737195310881816
Ni 7.137520833092715 3.47959684342192 7.938684763969099 2.0853708662763957 0.66044775367994 -0.7750760172504975
Ni 3.072728892469492 0.9065420992549594 13.337171699640702 0.49025409413925247 -0.19408306456377544 -0.5912521685208849
Ni 4.88819573464001 1.2576424568024192 3.162741421571129 -0.7482421848871049 -1.0263028780151164 -1.253429503297422
Ni 6.690283401738162 7.2985719571607675 7.948204204762614 0.39461831251079776 0.6034859915829155 0.43766860673305263
Ni 6.028107017730048 8.718926337156034 5.4119839439779645 -1.0868204757841993 0.7773038781397515 0.9092940300275243
Ni 4.138460907387847 3.021429683748887 4.415133340805274 0.5691656210344908 0.9859656118486503 0.5663278944753795
Ni 9.218056782504862 6.171371818210218 8.62099207457535 -0.6447974487371928 1.4931061973305964 -3.0678320645162134
P 6.394123021495493 4.89375338087326 11.780868385701025 -0.8806342001989866 -0.6853401460462455 -1.0618789753475133
P 1.828846017242884 2.459253819109679 0.3696057422089259 -1.2421842694009058 -0.6584926868360981 1.870575251755617
P 8.863833380346197 2.4632341700847453 11.177364601835158 -0.4091383605038437 -0.4015911442842051 -0.45157133285707385
P 6.303354318490668 1.6397097593717438 8.482833071627997 -2.0570043993185605 -0.958308255142698 -0.14479167452781513
P 3.107206711171928 3.709770612628064 10.43374596890179 0.24482764210649446 -1.195324885845206 -0.3556637856244714
P 0.5804233151349241 5.833246105892438 13.059020319963544 -0.7103076146248606 0.7124585995295923 -0.3908868704928236
P 7.924043752690185 9.093023659567827 6.523623601296153 -0.09373933593669018 -0.5836141923596531 0.7195808123966704
P 6.014301045117231 1.8283264376284232 4.903604981491734 -1.0419706664593604 -0.2527720937645518 1.6071703608675678
Ni 8.511382115801139 7.996942628240518 13.048673263069853 -2.206757788727025 -1.5832609012398218 -0.4242765016968628
Ni 1.34675036068245 4.434760460741531 11.437562650191216 -0.5848745471293153 0.8519244909691199 -0.8515072009260432
Ni 3.216949348311975 7.656970552649922 4.415309626745894 0.14725890512138512 0.5101351493338956 0.2952523744159496
Ni 3.3717933516287006 2.2729566927032714 7.17002610490168 0.29570360302075527 -0.5437831764056441 -0.31937009339975964
Ni 7.256467451974639 0.797021211271799 12.315062104639297 -0.31239957561919746 0.21154034080827439 0.5675579102277386
Ni 3.5716644954628975 4.748039133639203 2.3402932829166536 -1.4353615343209603 -0.07853768849558733 0.018339421739136157
Ni 1.3789179057420156 8.07297753789242 13.0456717629756 2.362349124973506 -0.6912341429331773 -0.29420722098088686
Ni 0.2543286543541316 1.8794493604084075 1.928411388684679 -0.6425189371156611 -0.00017457790465131223 -0.726796099198187
Ni 7.647284104123187 8.61843407279487 1.5804748998609899 -0.1254919457579387 -0.38685229541213373 0.41019868344755805
Ni 7.4808980107995104 5.42347407602347 13.43812230744748 2.3742412484254016 0.15191414450520932 -1.1056957154221474
Ni 6.493186441916889 2.739483517244683 10.36163759662203 1.4380748194870654 2.2590504274831544 0.6893757495681999
Ni 9.060364369516002 6.43389869662395 10.8061249673029 0.5842186587128714 -0.6682451382371718 3.187755257937123
Ni 6.102945038627208 0.5484682410248435 10.381871511322316 -0.06853069788154649 -1.9629462465898713 -1.5235809688806856
Ni 0.660108271578412 7.113545945168308 3.8320796538721416 1.1391231418426575 0.02518087014100179 1.1094893781366246
Ni 8.188834513709782 1.7594450258827599 5.834785360500278 0.7830986304446578 0.03355829557141962 -0.3773590112097178
Ni 2.0841080592615646 4.6374614578330595 8.581569899148874 0.8761514818372846 -0.13054287791828487 -0.6567134834484883
Ni 3.5294393735805545 6.8971317575379745 11.936965874837638 0.41964568779307077 0.9673310274665986 0.08308159911252788
Ni 9.09716174006871 4.212333994715294 9.411989873602364 -0.4212618832402551 -2.6434298358747634 1.416963748540063
Ni 0.13341227204095718 0.8190049958879324 13.026850919262497 1.1921246337403535 1.5399498971570122 1.2470356839559362
Ni 4.509078902024231 7.535843555028742 9.770966501412605 -0.6821936299974638 -0.22047903805880092 0.02640060148071582
Ni 1.2843080248731404 2.511703525548019 8.885875617668956 0.784346901029462 -0.7184603256389819 3.227491914405113
Ni 8.37744191375906 1.3680438466679425 8.891945420950748 -0.21766136610434772 1.2207433259183105 0.7769868611199652
Ni 3.120242592570454 3.6622754689419046 12.924705278342461 0.6451602313932502 0.3523282934933351 -1.4087411035199546
Ni 0.8524779847288307 8.61083522093338 5.898187990775599 1.1707065730758934 1.5339934224632614 -1.2316764278910464
P 1.7388195708301455 7.095304989417773 8.124644163626108 1.3118151423251667 0.8098491590656246 -2.0782905623908468
P 2.359132683044559 8.564202950535522 10.610375203196266 -0.13411414020931095 -0.5305831327756024 2.8259761034435327
P 7.929462225812419 7.798110643635243 9.74633286076272 -0.6838177958644481 1.2355533943479495 -0.34679142283550596
P 1.5353299261095252 1.2064916994002315 7.3714931004088635 -1.7826265543587752 0.01106988466091642 -2.860294674219745
P 0.74526087564336 1.1778313167382766 4.193351710193412 -0.018936946113819 -0.3897244747536062 -0.7105102175539699
P 5.307654213035712 5.606421769558086 8.200404438338936 -0.376717520970977 0.6594805046706642 0.10696920436340286
P 8.032877125504925 5.100787300821096 6.749520116890396 0.75561430898146 -0.7960333362284548 0.21370932343513518
P 4.480669030962106 6.627674058195633 1.4945429263743506 0.9447413150915407 -3.489283952280087 1.1629325855574293
Ni 8.356695842010232 4.132606358517761 2.023916616567759 1.1977229537637373 0.354885255587234 -1.4829012317731365
Ni 6.749135071283251 3.03699851576791 13.436370581890156 0.4799401138077541 0.29394111180369376 0.3902194121121538
Ni 9.222361870738967 3.1902837802412534 3.9873495269085772 0.6562797383451795 -0.19615794481493312 0.9730427331393952
Ni 3.9988981116607096 7.231898758776563 7.054463248258933 -1.0599123385394456 -1.3976447364964768 -0.5073650427879262
Ni 3.6366119472705005 8.04829750620553 0.43165468202442936 -0.02199681598606534 2.649005273080012 -1.8627914940451402
Ni 6.321344762641374 7.5117573286155235 11.34977039612066 1.1388734877256965 -1.1420251459808008 -0.6975413160981278
Ni 6.761400861467488 6.249280925757138 1.7383241145549275 -0.9898911721553018 -0.7815981346397313 3.912310126509617
Ni 4.697092496799839 4.300820258699452 6.357694923597349 -0.4068400513879703 0.10643390068522315 -0.3318384010700995
Ni 0.03511059244719003 3.532120775519468 13.208763164851153 -0.41109239890642096 -0.06322779761139434 0.2257587984005015
Ni 9.055428363178624 6.548651565760583 1.6410532438034209 1.1925797189999008 -0.488317796348488 -1.1190893631202339
Ni 6.136031126219481 6.038879016522708 5.888397626325974 0.32402507567326777 0.8413248610764027 -0.41357505611895873
Ni 8.413190846875445 7.0391996692634065 6.141412486512111 0.008538119377998199 0.1992036736197924 -0.9681910614740487
Ni 2.3000212236922395 6.403197108333756 9.973954195112826 -0.12094700669973366 0.07001139619213104 1.7916215587685338
Ni 3.0023908021618584 0.9932321022862673 4.8711358946916326 -1.519064826177887 -0.12779873951424442 -1.0324282741865638
Ni 2.646191141826762 5.7813438136907624 0.2533052680777918 -0.7527182183805875 -0.34833665583543877 -0.7489386967334973
Ni 0.5649389148032515 8.740229101348927 2.1359750942751163 0.9149201179650501 1.4350010656577479 -0.019346522847411843
Ni 1.9744489259881282 3.9788850182965665 4.850019622467501 0.9664529957370193 1.1638702668803502 -1.1160096957536456
Ni 0.23779396094465607 9.186167583667329 10.706926085053448 -0.3563003907672057 0.029359684109039764 0.08745118893513326
Ni 4.982323148724029 9.02386390160013 8.230266348859333 1.313499472006125 2.8360990508101476 -0.7533512239788961
Ni 5.478846417793152 8.20231574906356 2.51692344503187 -1.129606460601474 1.2023218859883293 -0.044435861715871855
Ni 2.41287206031165 2.468300071325738 2.9032902689108577 -0.2206901256283425 -0.5155218675671057 -0.5146273807772944
Ni 1.0809761096783386 3.331498096885784 6.79636949734144 -1.490654393355994 0.15522366849441654 -0.721183638107416
Ni 7.285257729540209 1.9220363323793928 3.2795132286382387 1.142373273348839 0.09449575448674047 -1.0037337344653487
Ni 8.108002770831519 8.707922383178346 4.134728284550389 1.305389441304481 1.0886205051074154 0.0869084290577858
P 0.9914321300504567 5.030105916839622 2.7892898623944533 1.1461234844198906 -0.21133979476169407 0.8280877935608384
P 3.423936877222805 5.631955396325875 5.23998546299737 -0.0037939198247934664 -0.08201202019743295 -0.4087683787589347
P 7.480517604296066 1.3465647965344285 1.156471955480236 1.1211881546307916 0.7033970035479564 -1.164763211008265
P 3.2780556222555277 9.071386879908493 2.4321187737444627 -0.16528002428915406 0.9950256651683895 0.8682132008268144
P 4.919852978292516 9.0552149644084 11.950803393355615 -0.7745545975293886 0.24595429951176995 1.8388187852796267
P 6.631181220593244 7.222852506560504 3.9341853985003543 0.6372749151079025 -2.5201284700102407 0.5573501164568014
P 6.389706594772576 3.688068885516924 2.0576206327729443 -3.2228554440743657 0.34321861788258307 -0.06948714825754485
P 3.979989124977296 9.321443847575166 6.398473572945862 0.4816858928542672 -0.2886304982240578 0.03789291839103152
