# total energy = -340874.5161893864 ev
CRYSTAL
PRIMVEC
9.22505155474065 0.00000000000000 0.00000000000000
0.00000000000000 9.22505155474065 0.00000000000000
0.00000000000000 0.00000000000000 13.50179543286406
PRIMCOORD
 96 1
Ni 8.667397184278844 7.27062290396503 1.0985726439333656 1.4732403116446047 -0.6823669223505345 0.5992251594240325
Ni 0.8279954244209101 8.942119219452943 11.075860728013039 0.06072328602198575 -0.2534593496395635 0.23003197185455868
Ni 1.2447638808645598 4.897921195071531 8.811636400301952 1.691402785755087 1.377056370822164 0.8860381448233774
Ni 4.871731273719641 0.5860352373232824 5.68787435190846 -0.8657392853650251 0.34454993509949694 1.8417557564207636
Ni 8.987543373287638 4.430146506099972 13.21531438849321 0.7878446297700754 0.4096374116274493 0.6108365184107157
Ni 7.365650159986803 2.550357751653163 8.91425033871886 -0.07504664462319334 -1.2802080569428467 1.3613898679295005
Ni 6.452240905764903 1.93183649529477 11.76932630316775 1.5172521984491805 0.055251464274137095 -0.9024566953907168
Ni 5.928257977696107 0.03504781585068616 3.8762439683374166 1.6207295876092411 -0.36842057106950743 -1.7054376665815982
Ni 0.16392732104219912 1.8872333710480689 5.086329035413311 0.7270871480760446 -0.11556054557683967 0.9408795181432893
Ni 2.4626182863562907 4.510690431187449 6.603836177894385 -0.1278650739758056 -0.43792777393171034 0.43356821141143387
Ni 5.509975690293018 3.6413492482223218 10.166379500741344 -0.0936118092198904 0.005339152824726289 -0.22756371281972423
Ni 1.6662195860010223 8.45114352583186 3.6079499490837112 -0.13405834727071103 0.22484502833698053 -0.14562008396638146
Ni 8.393348577867933 0.4632350411035535 9.556867429727177 0.14297390459278603 -1.0878689716533716 0.9554517595305094
Ni 7.91546323239702 1.6178987659794668 3.2289811413682634 -0.3446280966356 -0.13534364174103788 0.9918704073688596
Ni 4.562553671004399 0.7274700376750354 11.027874777362767 -1.370454292124614 -0.3176338274349433 -0.10541497250240556
Ni 0.6541410254052105 4.635763680109223 5.025530410664539 0.5087444396339561 0.49970701202203616 1.3838037168483264
Ni 2.312231495979926 3.3725220209889977 13.642349404807419 -0.3109996099478773 -0.5849457666868829 -1.0418171716006315
Ni 3.0447467143479336 0.09491102037223613 7.3562101647351685 2.207009499726515 -1.88588848507392 -0.7336429469166913
Ni 7.790648284918659 3.761173442811857 4.874472036535297 -1.009090885012204 -1.033031969208834 1.242958171452453
Ni 3.3493671415972246 7.831367662462598 5.243138306679138 0.8694797262440639 0.6461884155474484 1.2925681211700966
Ni 5.814817518779522 7.483952221070504 5.514255191707298 0.6192959620319786 0.19380744230488559 -0.6558076838047673
Ni 7.46949656529086 2.6154497153935403 0.39229992971108507 -0.8570708110567499 -0.6745834217503737 0.4362660699585712
Ni 3.8267174340782093 5.244580182236482 9.726180335864564 -0.6328510750085939 1.1870701020355812 -0.11025867374795204
Ni 5.526239456176562 6.994904563223477 9.200569186197102 -0.09236302441445382 0.1832216963692393 0.7109892140729175
P 8.700210692643997 8.360230642801612 3.356464896260185 -0.6511017936886657 -0.2650804788182596 -0.49241356368441647
P 4.501945082317568 7.934780490343781 11.813476477383322 0.8416642466936923 -0.6448136466871088 -0.6401339818232523
P 2.875383992932176 0.9012570938144164 9.39696592118162 -0.13749565508703418 -0.6361233180019625 0.6782354166806642
P 4.446059720024597 3.9009237487504875 3.910754886187863 -0.31149454730642484 -0.4215197648873321 0.06074205507506313
P 4.742608227167195 7.758498980265143 7.344476821668079 -0.9718160598211457 0.8552856941318691 0.11107499900166032
P 6.877737183480488 1.7229259778819888 5.696947190108384 0.45340812895549654 -1.092122604723403 -0.35046167259824157
P 2.3811149559075617 1.032495444687394 5.133261485176515 0.6325919078099363 0.47103844044275006 -0.23235059268540628
P 6.844056520269587 5.737779113281238 10.530495975460477 -3.4376158344818344 -0.9963376991115938 0.5093630470545615
Ni 4.930448726838619 4.519039102840658 0.08749869145140377 -2.9171805887735114 -0.20195655377458122 0.23339343212762387
Ni 2.940983334507831 3.0544422435275163 9.669999771921974 1.0866494974239738 0.1303382181066465 -0.74439324345466
Ni 7.63398845948795 5.671386417272239 2.628245784399249 -0.7097046909335389 0.8540777898666968 -0.3749930820807026
Ni 6.677857991535653 3.6175393901704633 2.7676787485645415 -1.661242460121623 -1.4267660793424652 -1.334140288184928
Ni 4.896906439400976 5.464367035427311 2.3145183862592966 0.7104089160894153 1.204379025627674 0.12500060794381698
Ni 9.06671276569409 1.1660834161902858 7.594139004305225 0.2844663395440391 0.5597008760771651 -1.8708655293025265
Ni 8.332776889387304 6.609647960371205 4.850385426936923 -0.28281723397639036 -1.1915952435994446 -0.13760724096423396
Ni 7.106444661520657 6.622959709758586 13.09166456502568 -0.03208968144569312 0.1892373064356999 -1.5830122755641254
Ni 6.52406715713715 0.11856128503227091 7.438030836957235 0.8717680080576083 -0.6466113620174799 0.5743955019748624
Ni 6.642968846571635 4.275516192010374 12.239431240160966 1.6366696558782652 0.0678544977501283 -2.3607056758328118
Ni 1.2825312419123356 8.750413423181856 1.1675511218919716 0.6169439168600342 0.06556338772310644 0.1734867284696625
Ni 0.5910176876657113 5.987372108031755 2.957757245742118 1.3882887492028737 0.12930154931201604 -0.48362938973388325
Ni 7.993405692947253 8.734629359978939 5.498794927813804 -0.2599097332505975 2.356486752655458 0.10944723359025021
Ni 4.347019566578354 1.693903965704094 3.4390420227093936 -0.41183261950655525 2.134239052732008 0.5543167289471163
Ni 1.9815041728426996 1.455869960546362 2.475229854330989 0.9438527418390003 -1.3818746181464137 -0.33989546704662105
Ni 4.876786601969319 6.943945378458476 0.14213867178505668 -0.32699727092771425 0.9373334526632437 0.9637415103431274
Ni 6.014087857322023 0.15408603604811827 13.426077296257333 0.5627854285397598 -0.6518646399966193 0.07906193643017351
Ni 4.7342503304624355 5.561156276295231 6.6032153319250355 -0.4742381783269703 -0.03760058396159331 0.3016464508677515
Ni 6.145120489545424 5.261360551006855 4.427509063861683 -1.4060062210872946 0.5327060926558761 0.2728506096819817
Ni 0.36286740273919255 2.6410769086008488 1.4781899727728136 -0.5261659775445131 1.0123327889882694 0.03657317113834346
Ni 2.88620497840092 5.811800926922506 3.760628242265222 1.3570323622917533 -0.3934865128991998 0.3122694777992364
Ni 1.1976146423899185 8.60256352198188 6.0345462541455825 -1.27599993239877 -0.5159350438451243 0.45922165031348006
Ni 6.617341653364327 3.4227247515268564 7.032788159920789 -1.820580150784413 1.0556911013692465 -1.0606237627841735
Ni 0.5064811602671753 1.2647822427291602 13.083564047259179 -0.014759417697361677 0.2641631092103128 -1.0745367733208397
P 8.655856644789159 8.036440558430368 7.647336186576378 -0.8483491149130358 2.307656361416316 -1.0528924555781867
P 1.8079071527652593 6.395497613677734 5.38655464810394 -1.8857414179730942 0.4887062900361584 2.2665318234618645
P 4.42900259970771 3.9306007395884683 8.021876047042428 -0.37924311560630813 -0.47181568492840675 0.20980844571883223
P 1.4322815037317156 5.556571425674629 0.8718540870074855 -0.35443042743800246 -0.19303713979776432 0.015357970513309034
P 3.6001870682039594 3.642142602655665 11.788458137578347 1.9041160638255403 0.6984368313292035 -0.1826030889486339
P 8.426005260356726 8.64055228426687 12.709671785411976 -0.0328818383296853 -0.35905121403946555 0.20897875072868524
P -0.05111324312589409 3.618424995119312 3.2977059304092307 0.19609958077317194 -0.19322997253486077 -0.6865326236924499
P 6.134539355416993 1.3009997951164505 1.867474233132038 -0.24382774008707037 -0.1902022414521305 0.05070678232624816
Ni 2.7501908183402453 7.207523551359562 1.7801978654230013 0.8268364376522405 -1.9089006296983773 -0.6610123679341583
Ni 2.965964774106604 5.85775090869558 12.85578829942561 0.49658903521834474 -0.3076952281649927 0.25863395186196747
Ni 8.060785469472156 4.693337226835937 8.494978203284402 -0.3256363860244456 0.25378665107199516 -0.10587571418890798
Ni 6.548688819725454 7.882409872691553 1.9589885895233774 -0.5808744248309867 -0.07504253085813528 0.22218059413093993
Ni 4.083266117697809 9.139230895932625 2.019882232303119 0.8832430985767433 -0.2557278339587661 -1.0322539533922288
Ni 0.8729518681419958 6.906916021534741 12.475821341132397 -1.295793827196246 -0.5522598464180876 0.4383707750063999
Ni 2.0810424790726705 3.101259380146339 3.9539059873205145 0.8289784236959078 -0.28562539284914684 2.1544980600913606
Ni 1.7062101844724702 4.510635080878146 11.354159315673268 -0.3110111799121031 0.013021609070648543 -0.33886651156147446
Ni 2.176171210661498 2.058570253495635 7.552107824430805 -0.5747963369577068 1.6247338236726276 -0.16466733040581963
Ni 2.860476309626556 4.198892913831863 2.142775601543508 0.3072607117307353 0.0009366528816564516 -0.7806568537723846
Ni 8.51249011864273 0.403071099901457 1.3957752072308942 -2.4915527152550765 0.040280444786601595 -0.1540057369269154
Ni 8.059743038646948 6.968954493211902 9.449487829679276 2.2116595969040165 1.4407911899769639 -1.0316613141135522
Ni 8.73338397801962 5.148713446523614 10.969061383707663 0.9497030299721902 -0.5152873829587964 -0.4305281390335295
Ni 4.896860314143223 1.6875848053919964 8.193604994180891 -0.3683766052054494 0.507956396515022 1.0747943978576007
Ni 4.595459429885057 2.119557069296037 13.299565861798836 -0.5673190547440553 0.047210339137215465 0.2376560640587197
Ni 2.6625436035588788 6.800910954167866 7.440150753803541 0.28065030823205855 0.13031045019250462 0.7846798588888486
Ni 2.327563531656869 1.889050706203519 11.584877854951447 -0.2828655707158225 -1.56814949951968 0.47386845369237746
Ni 0.17912836098712456 6.120056024482698 7.202465455594419 -0.0014508735139136303 0.43467841375647714 -1.8837218164399043
Ni 0.531768871577425 2.920494495014155 9.516983841853715 -1.0386732266550112 -1.8984305834049888 0.9685548725713707
Ni 1.2811013589220068 8.556041587012675 8.675186817808092 -0.8722017531609173 -0.09483334033181733 0.5264012334837709
Ni 4.071172075115094 2.7248680518341035 6.0872840288495205 -0.10842804829711648 0.91951056554921 -1.1244452281155086
Ni 3.104635749013825 7.873027995264687 10.045429849862648 0.7054770260054367 -0.1207847700902565 0.6606354442107139
Ni 2.6299883966371396 8.476853744503122 12.80462985354712 0.9497549662560482 -0.017083952065480253 -0.9540255686069439
Ni 6.832599006243857 8.415470251486049 10.978093631680766 -0.5617649576950454 -1.3315391031166552 2.3068292375293304
P 6.857156093471306 5.748600098749982 6.439600740130398 2.1519243858269133 -1.496192549565404 0.270041936588593
P 1.2445517046788983 6.6108656671758705 10.303328158524087 -0.045597229013824694 0.008252984037411593 -0.28548758171970184
P 4.395321936496809 7.480437476429761 3.5132612524538422 1.6623493200325563 -0.2039720415427132 -2.0864332461026387
P 8.807378116506237 2.7355783366842426 11.592911952346784 -0.1871973931875357 0.4126790266672506 0.21247390836613728
P 6.880080346574316 4.799314619048162 0.7895620146511878 0.7896148342966207 0.06773262746028334 1.353918756363436
P 2.7719988402056437 1.0296633538613884 0.46295367703126306 -0.34448077242445835 1.4794796076860972 0.1801191461845156
P 0.49174137289977515 3.374311680989796 7.23031957624602 -0.6935715328171023 0.6792504882087399 -0.6201889061598932
P 6.339538450972359 0.8112990036196475 9.847075558939112 -0.8176771397504755 1.8979752410351247 -2.063853818140226
