# total energy = -381161.9097126662 ev
CRYSTAL
PRIMVEC
9.31052606503395 0.00000000000000 0.00000000000000
0.00000000000000 9.31052606503395 0.00000000000000
0.00000000000000 0.00000000000000 13.62689601857923
PRIMCOORD
 96 1
Ni 5.497977235262264 5.145983495327554 8.137232926387114 -0.2275845387553306 -0.7163790176299211 0.4402777622211256
Ni 1.8704194677221493 3.2561143391241156 12.42917305897534 -2.079848908016902 0.08427639075157743 0.25816318287313605
Ni 6.534313245542447 0.27490258597344946 12.926936115682885 -0.8810664026403987 0.8677689142005441 -0.28120875183868993
Ni 6.666755475626859 3.471746117595466 4.787155829425747 1.7317814466824497 -1.0001475597759872 -1.9709094673010057
Ni 6.2735626588469104 7.168797650010802 12.474455732454324 -2.335914842041377 0.07363922275270543 1.1029420639364103
Ni 7.2954766645998 3.0570552966492683 12.18671020713617 1.5692545596584007 0.2502084468024336 -2.506918913298502
Ni 8.350740973914192 5.043725990018795 5.081605864401813 -0.7381986846081737 -0.41259289471134747 -0.7197613038385927
Ni 9.388361836760398 6.643637439964321 6.5719110109924905 -0.885494099394449 0.6647448383933972 1.2257914298651793
Ni 5.700704624918359 4.836240921658085 12.617088333071417 1.6787429308992317 -0.7469764308008039 0.045012303044632156
Ni 0.7151135582490934 6.158084206844313 12.404494579181897 0.6797842492250227 -1.0367006763096727 -1.4161664494497483
Ni 5.300054076939985 0.7208423247988958 8.77938641099048 -0.17462032785347345 0.03166570653439708 1.9397962908359692
Ni 3.764888023690909 2.9723667536019707 8.90054335270334 2.493968266675105 -0.4291058047647061 1.2365741223029798
Ni 4.22948326314343 9.055426743221666 7.114220278585016 0.07452702467429746 -2.0421891886825994 -0.4123355272849028
Ni 4.0434030936905625 6.375168427346817 12.938655274558615 -0.6385506964965325 0.25766850262490465 -0.39693179113532284
Ni 8.712845944911937 9.130581307808054 9.112768409769565 0.6888029077838653 -1.313597688146886 1.277645181311677
Ni 4.986093835064666 3.819615294582731 5.961439383719966 -0.8954219000311224 3.222773682993837 1.7871529814742189
Ni 3.255434670737742 7.571477892622456 1.050623012182787 0.3425635007970874 0.7103009297566413 0.40632403098350023
Ni 4.753870699545131 3.9822515599686357 1.8080985319546263 0.26994372044783194 -0.5467607709767294 -2.3768038669462555
Ni 1.207286575241862 3.7973165851941784 3.347596772877395 1.6898495823353543 0.5910125417062532 1.2344915287423384
Ni 2.9120159251023465 7.1070874847384315 9.359074646675792 0.8379240629249697 0.0936262073975936 0.8233304813815111
Ni 1.1206242007163296 8.237822916517796 10.587770776088416 -0.9865063148434687 0.11756086383632011 0.40786335044616207
Ni 4.798067765711084 0.9472994516652651 1.5282427462339077 -0.30322279421593584 -0.45034543086977286 -1.0244223731629518
Ni 2.83814621308198 7.85813036220691 3.4373567593501386 0.7710005616295432 0.8307576270835176 1.9929890728088644
Ni 1.9501920531255401 6.073647047994715 2.451069480726809 -0.5754835928327187 -0.9757426485690615 1.1366929351346102
P 3.342255324202567 4.4894052130391415 7.6642842831502875 0.9322434397348461 0.4747043193301115 -1.8495140602099438
Ni 6.309883020151605 5.2414443167725775 3.1213221323175038 1.4877544461003798 0.13628055173301046 0.4986731714408831
P 2.019723060104126 7.108986832009941 5.544607141830401 1.8672094206071777 0.4026483819041259 1.3130348736648807
Ni 7.178117486377375 8.463863862879085 1.3527188509792623 0.7427030002364305 -0.36440450793157886 -0.6817519144743549
P 8.497148992759701 3.18404155859101 3.1876717326163115 -2.4299035749847118 0.20325393242976608 1.208527757688725
P 2.783847226378832 6.144742223314544 11.253853243155048 -1.2334062660979597 -0.26208411519409697 -0.5298776220681455
P 9.282892200036587 -0.1559429283590023 0.6935420009287018 -0.5998784767373152 0.8162175244858136 -0.41137830557795607
Ni 5.85056684885078 6.380466116550194 1.1656666626286223 -0.9506072869540144 -0.31601094711953964 -0.6904712966252238
Ni 8.414182896992939 8.761018605611884 5.835759388553679 -0.04930398844145058 -1.3524629977535159 0.6293350914355355
Ni 7.074668233761003 1.505046502154308 2.292575468287446 0.1193567793944783 -0.024917846287602248 0.7244329982826491
Ni 3.71986232072513 6.6610667443381715 7.04545925209346 -1.2726387292360213 -0.2489794594913389 -0.2548477453466579
Ni 4.9611323152856635 1.9025966450277187 3.7401881296880317 0.04376069002571819 -1.0381163257102766 0.5028000491250632
Ni 3.6900779485606288 3.6975449902848956 11.243796944194472 0.4965728372684286 1.6359762293556666 -1.6330631694739295
Ni 5.145825216388261 1.940928079914012 6.9036031493314844 0.3440999920462719 -1.133181836657558 -0.45734140257163175
Ni 7.925901679801597 1.378348866513629 4.91948633320007 -1.3417695225954118 0.006953805610013831 -1.6618335567384026
Ni 8.746159006370075 2.583065736623449 9.61624161197523 -2.3828773268338446 0.5890649310615791 -1.0014868474127012
Ni 1.6815368299912217 2.462624774347741 9.561175437942806 0.20087977577063468 -1.1657973086997344 2.212233467129616
Ni 2.7411863969765986 2.3789603891429243 1.4555564020478977 0.09793691895780551 0.3337034793032962 -0.2956598942670134
Ni 1.3654072355950115 3.300851415788832 7.523313611395767 -0.5728117024275102 1.6566905790848823 1.1625687744601074
Ni 9.31397073529295 6.5605596178874706 9.359469412971437 -0.7566831165656066 1.0786317693258198 0.5241011245956845
Ni 7.329394910237587 7.22818018382299 4.440569642899335 -1.3229634456325023 -0.6083687735965135 -0.5463355105138527
Ni 5.203150123989647 8.14475490021384 2.5464036790203988 -0.28704489890449275 0.060953913975553095 2.0801376429019145
Ni 3.083385463726858 8.598875798095538 11.56931620390106 -2.7844188488270367 -1.8371141438836942 2.0380479128207156
Ni 3.3746745751799954 0.526029813160006 5.185279500690947 0.6533381392183523 0.2814031272376831 -1.0194256912793087
Ni 8.148106689516503 1.7773886935215564 0.19657033891761996 0.9915258795452473 -1.7769814402578556 -0.20532032804049155
Ni 2.88967066308459 2.92808589270345 5.91110202576205 0.25996963995425554 -0.30051825080057926 -1.3076077891120386
Ni 8.24395855304684 7.955481220397602 12.530707136426274 3.177698130811437 1.0089826415691139 -0.16297785851853866
Ni 3.134975087410353 0.364048077740705 9.648945765043386 -0.4178932238783384 -0.2619285634528392 0.5137159247066185
Ni 5.2551866529134985 7.598050133371905 8.868819598006214 -0.6585659632761949 1.1122324880994006 -0.1998395074315784
Ni 0.3549842808347525 1.291463039367919 7.6549085836286705 -0.7893127296751696 -0.4163950420662571 1.1146953478175963
Ni 0.44261029478480063 2.5556741696000156 5.589589085324729 -0.36722577943045787 0.5002636558564546 -1.4262078928461501
Ni 4.147066488401271 4.067601150350625 3.8981644768906496 -2.1747845782545383 -1.7338367865495816 0.46385966330612377
P 2.521327639773556 1.4276760324178264 3.383326846843788 2.484234841437425 0.446546883059289 1.0494083536843282
Ni 0.40503766775452704 7.076372059989858 4.270437473159057 0.5026218716759859 -0.3871669984390751 0.029797542977406746
P 7.15452461389696 7.315224289907993 10.54099003900166 0.6472816486116272 0.2028034751559088 -1.3600701206768124
Ni 0.6161668759292995 4.554113367632229 10.27499297099487 0.6105909780588129 -0.25175830778805675 0.6069317840396709
P 9.004982314216582 3.9860037018824506 13.106144186012708 0.9059305128719299 0.5184405838757974 -0.5122357406166663
P 4.460924314492344 8.785104935961858 13.13515578453243 0.6220953791539867 0.2548670286203675 1.9676467373893343
P 8.789555367313726 6.322266019519779 2.560548229877639 -1.3064981009876273 -0.07035206736100141 -0.7739071937533769
Ni 7.325139999928372 4.972072183148524 10.616128775694117 0.9250276387126971 0.2039157343834811 -0.5019320446978129
Ni 7.877542808584836 5.759007137733022 0.11118443748485196 0.5648173713681239 0.659370204345045 -0.09256357046103413
Ni 5.707771314031474 7.498632338444571 6.24645971812454 1.5063844024967412 -0.01938714627736016 1.4490228338581368
Ni 2.820958982379989 1.281146976736388 7.7427338428317105 -1.782474602161943 0.5902962323655189 -2.169842660868231
Ni 1.6833430720043236 5.653565432586733 7.990961772271463 -1.1745262039322997 0.15480149335533339 0.08088767678500264
Ni 5.27175007838416 6.103645562253554 10.59650591143219 -1.543692137808264 -0.527519406248614 -0.13609723207761076
Ni 0.3183510858618088 3.1197616881865975 1.3742727183005563 0.46148473531604395 -0.18448487935237903 -1.7752634291254845
Ni 7.252732040465 3.7854084226438824 1.2595875230995892 0.005633029916061266 0.25429521527729754 0.8495637040464272
Ni 1.748544684466969 0.012241479375394276 1.9781487690675057 0.9043210022929652 -1.7200772708716443 -1.8914258699523812
Ni 4.724877722077092 5.966445653464528 4.828690085201251 0.369375478783609 1.4909099610102259 0.99805802423681
Ni 1.4744707352933448 1.0214671005125353 12.957542607279123 -0.41267722689503766 -0.9673767931028694 1.0582830304661388
Ni 7.2260201418279415 0.3269698396325743 7.5927431336426885 -1.0089579589787656 -0.4751606901412397 -0.8770289993462316
Ni 1.9409373904398528 4.692598128987274 0.6884826611868481 0.6622195008683821 0.2292452142872052 -0.7052443411693403
Ni 3.766610470971445 1.6808478510790075 12.479920080070249 -0.09995652049099558 -1.2108597482560115 0.42413072014761793
Ni 1.1366103735848663 0.4079062407660565 5.829858377275824 1.160758717834562 -1.4408996905303701 -1.1881193692357022
Ni 1.3440581998422132 8.28048374592003 8.150437114134439 0.5041768748679317 0.36698820949835503 -1.4535752291155095
Ni 5.025263217276624 9.156026974930775 11.010940692917767 2.6435187960441437 -0.16917961645387639 -0.7091878991981205
Ni 5.71330176638087 2.587041331157441 -0.06569879454254043 -1.7022574690814036 -0.7484915818937496 1.2673029188454046
Ni 8.640475227551928 8.759119258340373 3.2359244638384888 -0.379224860773863 0.6556174221708322 -0.897704525417712
Ni 0.6431282966588908 7.086241217381033 0.8456480615887384 -0.331039559317888 0.8394566975194123 0.16850650164625172
Ni 5.457336789967468 2.193895067006697 10.81825656748607 -0.6664330247290974 1.504114889736274 -0.004314311104637732
Ni 8.489989198388178 4.6178439170120384 8.14723522429781 -0.1546423420696498 0.18727838293711616 -0.40638856567284853
Ni 7.282721244197997 6.948668887558378 8.159866814705932 1.4417648667441427 0.8690830050262773 0.657028700696062
Ni 0.5055745878879181 1.4213355643202878 3.0760943909409804 -2.3634868381223746 1.0844602030821389 1.5482036525253724
Ni 7.107366800513653 0.8074972509037555 10.397770875256601 1.0064778728693893 -0.6399123527307495 0.2712380137792232
P 3.8742587707419864 4.096864133068045 13.342829856567706 -0.9531084561093134 -1.0958087953257385 1.2527746433222424
Ni 7.674117129490685 2.4847745153228424 6.958124657602226 -0.2445813304236433 1.3824631436600319 0.3831285667036434
P 4.137057673122484 5.9231144662017625 2.808626259851356 -0.08696396488606958 1.370634269345904 -1.453170280367607
Ni -0.006590921242654097 1.0946199020431655 11.203638784138228 0.44028393286871265 -0.48135627742899034 0.5413496272634871
P 5.680137673336183 9.027048260459116 4.869680606267658 -0.059552148532020024 1.2456627148678097 -1.4766282542802311
P 6.418974451427461 2.600709183091636 8.790900738297713 0.33990575145926616 0.2907488301186412 0.07241512053761723
P 6.917823115448034 5.690714430691254 6.539042992669539 0.29214262514237427 -1.1289063492106557 -1.2354415513604335
Ni 1.1626891564647563 4.73300581113605 5.6256049924344325 2.139835315872863 1.1343704576490206 0.0836510984627527
