# total energy = -340869.7091615533 ev
CRYSTAL
PRIMVEC
9.27137109850199 0.00000000000000 0.00000000000000

0.00000000000000 9.27137109850199 0.00000000000000

0.00000000000000 0.00000000000000 13.56958876720638

PRIMCOORD
 96 1
Ni 7.372696173054164 8.023954354819779 6.195928341000429 0.9155464386951394 1.7372728088143243 -0.4725366222548313
Ni 6.639460529253762 6.071422173231672 0.0070610761236930214 -0.04025499086530486 -0.9027256327813872 1.3241194136138164
Ni 6.096315804261235 7.067399198688241 11.637659395595339 0.8783042665142293 1.1614755413959286 -1.4833892271531486
Ni 5.434302832181172 2.589132325864807 12.034040172553679 -0.2149233983478944 0.741036411167285 1.9366484892356066
Ni 5.388233389877298 3.2925234265426147 2.9879551819342045 1.161060308235381 1.4528465784796012 0.3377869053440505
Ni 4.562469463888796 6.246780883582945 3.806337242363772 1.108306413572117 -0.3431638533852477 -0.6852560709728714
Ni 2.611828641976677 8.519815087912576 6.540379242070618 0.9455607256690424 1.5284328976563484 0.701250903739231
Ni 0.8282718318333793 2.2197330926763863 5.240439392529375 0.2917248208786653 0.388248404428712 -0.8545768409903025
Ni 7.293518665049518 1.0211117121311117 2.841282093335434 1.5183767989719268 0.2736198837478384 -0.2878427122154398
Ni 7.940715986334333 2.010023952915603 11.599908227317433 0.11050961341649355 1.7937758861073752 0.007695825982360939
Ni 8.872423868291111 5.939787248331207 0.9859305678835204 -2.0034940861052464 -0.7208771626105908 0.9451130966086626
Ni 2.86323113694787 8.399593220664771 0.5235107427089858 -1.4300252097097113 1.3230554911256762 -1.2825135651475719
Ni 0.7796017699750198 7.6730978635528215 0.14404094638301884 0.30034470133719243 0.061316696631610525 -0.5246670244014834
Ni 3.730011608066646 2.4691607856329427 4.158536228145843 -2.1647835011777685 -0.8388851412866585 2.042550942897392
Ni 6.675359277613714 4.013585760271576 7.76128899840549 -1.6218744998469616 -0.46693598823860233 1.0339652796563805
Ni 8.837980725171995 3.809003688652078 7.137332222707942 1.312291567740953 0.04490354538090976 -0.272435376521434
Ni 6.625025004667903 2.8222331345595153 4.893601113436797 0.3561651507409221 0.9982773393364679 1.005096162030514
Ni 8.08378251162938 1.0697400528201477 5.183012520798604 -0.49199190276596555 -0.270339927444986 1.0100357654239767
Ni 5.911027455611019 8.141756394246832 3.7776108265790413 0.1779995287383515 0.89593277822927 -0.1702571657887713
Ni 5.7628060480618055 0.1708806381772401 8.173492297045417 2.3849352378041377 0.625906782480277 -1.601641203519222
Ni 0.6007653683763762 8.694089047861445 5.540544399157288 -0.6419622932812428 -1.691696662846422 -2.0864705270984776
Ni 2.388008475613661 5.133233602973341 11.570611622218617 -1.0785744337253231 0.10718389147737026 -0.5309356310190146
Ni 4.975416326479771 8.015953161680669 9.661547336242803 -0.10227745531468836 0.02614451960585175 1.2146436407784758
Ni 5.1473353582046135 7.928691018198265 0.2136735779835919 2.1499559492466327 -0.24161761980962904 2.2141275988285356
P 1.3563181292163549 1.0025875129515702 0.49146888466869815 -0.498659030373496 -0.11320130131604375 1.7908674542113288
P 1.3284762022212784 6.094582057891579 9.83317524691948 -1.8024052796475991 0.7321555637378875 2.1126173606971745
P 7.38379400409416 7.054558349907628 9.571159813609537 -0.40325233403671196 0.34514463126070233 0.8907484058148529
P 7.854696206560668 8.04653941448012 0.34607246385122037 -0.6752704205150694 -0.16591225855651426 -0.4647271535127415
P 3.915031086959002 7.146511807096162 11.607208504811911 -0.2257827096599015 -0.05395177162610708 -1.6745566607320257
P 8.55129139232426 2.8419996974477946 3.5110496400870534 -1.68613408115698 -0.22830161942701327 2.0329393879495568
P 4.101432000124507 4.915374928138076 7.592985801355334 0.3122049431098881 0.4524449937112789 0.6640668384897661
P 2.0940225738198297 0.7794052169106523 4.272982031285111 -0.17146455583331116 -0.10629120445977179 0.686832928541688
Ni 3.6964956020436026 6.197225405797836 13.447014722573968 -0.6803673754220024 -1.8680172612204538 0.9836711593875188
Ni 5.497348154714144 5.812593310120934 9.231744194108122 1.2334602592643467 -0.8938571266471638 -0.544016632572689
Ni 0.5186293658981607 0.7861714634377941 7.252429803225749 0.9791938403424555 2.2936093964049467 0.3488537046811734
Ni 7.147031003869962 4.732209723437865 11.155042815919948 -1.290202192041081 -0.037864122035625114 0.04172823297672169
Ni 8.766869309903186 4.74785052624862 9.463783430827826 1.133405779742906 0.1172901266734367 0.40497985825078
Ni 8.642836909190521 8.66793451038122 8.414203047024692 -0.9325005500509747 -1.5771126222502385 0.7630237140716536
Ni 3.4264576514413405 3.7026796064744105 13.102645409568233 -1.6216754964622782 -1.0838745057819978 -1.4806743993251466
Ni 7.311328968665083 9.354164303410716 10.277809801180041 0.9404069493822449 -1.4340253320080398 -0.2534819753473828
Ni 5.142032134015076 0.9878367617530467 5.571740708165958 0.16256751045399745 -1.3161770188382882 0.38635658672263784
Ni 7.616570314805243 3.8868183051254963 1.792149516749704 -0.7597635552631431 -0.1855097210724676 -0.23865493763687934
Ni 8.504081571392215 1.5558936605170586 0.6615104637739921 -0.8600034113225126 0.07612573661998502 -0.6375834474872567
Ni 3.2460553152874287 6.395577116131723 5.98118948249345 0.7005549061134709 -1.6578352342122866 0.7010254179919861
Ni 1.8020949163792803 8.826298797761474 9.18724903059338 0.07324532974839644 0.30378638002888975 -0.11514582663692427
Ni 5.795543258924149 6.506388541854384 6.51793510724888 -0.9608209942622227 -1.609334201288106 2.047122364318158
Ni 8.219014728462607 6.226652737227197 7.720105568597923 -0.8309175497001496 0.1152378721300983 -0.6638027861951019
Ni 5.31905969113928 0.9448639573500568 10.438677358719692 -1.5624820168212574 1.1620108450741085 -0.6369126466724773
Ni 4.097769808595018 1.376399918717299 0.3969806346595003 -1.3411282894669871 0.7175532404436803 -0.6676969790431856
Ni 7.515252772946369 6.286276923875661 4.156609637260203 -0.6811315072815367 0.18302629252898156 -0.5470849870853675
Ni 2.7362504402696923 2.133462985886781 8.846747733552462 -1.1966361484574615 -2.784622994418043 -0.39000858165292834
Ni 4.615121579574789 2.668810487901333 7.203225710400051 0.041919780162237484 -0.47649766378510844 -0.26949891960092937
Ni 8.754482758299648 6.64944579577847 11.767601368158374 -0.8188750167133189 0.6290679538170779 -0.7094594076919524
Ni 1.0068245294806246 3.351860200691296 0.35632474585959717 0.12325405756635548 -0.27928402401215124 0.09629578380995674
Ni 4.7952643173418 4.463683006302203 5.54313667447791 0.3587681355814079 -0.5435684892916768 -0.26210134158527765
Ni 1.7180221245073684 7.65697494945211 11.58119581930739 0.8962783344941467 -0.14774510072918426 -1.2736409452482904
P 5.956985641463365 1.751751372062509 0.9811372690968222 2.59587136936951 0.6810129794258014 1.0437267299185184
P 1.1095513197255285 6.348209681893346 5.684083764371332 -0.6026519257173943 0.17751256179960395 -0.6072331173301736
P 3.9950152042372316 8.138631942233067 2.143058854831138 2.0504493718088623 -0.744051543844525 1.6606153680605853
P 7.5693419511312765 4.0683888340204595 13.193072799096631 -0.33665536284276865 -1.0504321669631522 -0.007925682604979898
P 6.965182333846177 1.573963562519524 7.082659875289605 0.37145575835140543 1.0392954336200424 -0.6100914127145751
P 8.102538495082939 8.512731760498578 4.0669953469650615 0.5825998921625257 -0.9116116224171075 -0.8303632198585763
P 7.115517613974436 5.005752252263285 5.911618041941217 1.3003991871787413 -1.0187988563285875 -1.0087173037228692
P 4.756649057290354 8.02498347699642 5.659522975559259 -0.6109424478609606 1.5920777282005032 -0.6202387855612221
Ni 8.189188728081934 2.3138931361535744 8.949184329886295 -0.5165767911941813 -0.9298988507620695 0.4583361623847332
Ni 3.2696138688986474 6.594169882110589 9.052951367952993 0.5950890257684719 0.06041063987757337 -0.004182927733096022
Ni 3.0056301235337433 0.9049850094366628 2.365898110146509 -1.9205292150762407 -0.8951537339714002 -0.339337537660622
Ni 5.080294074787565 1.0333221076863948 3.07199181545937 0.4811012239953908 -1.223439898913867 -0.41782663230646105
Ni 1.3074858183661826 6.752784496506782 7.834469783672736 -1.060969061938734 0.6760003567025584 -1.4356944921803467
Ni 2.431083265097219 6.260669397282121 2.0823480635060765 0.9612807075074604 0.15261605566824038 1.055751779403853
Ni 2.3213658611479238 0.9375859311458825 12.24985080154372 -1.2490601705851325 0.9220042785053411 -1.701890058439656
Ni 4.28098137015003 -0.12484364567172844 12.241695703646661 0.27911253143129355 0.2909385775319441 -2.544971754306166
Ni 5.038841775222135 3.9878298917426647 0.9406491921113083 2.071781300517419 0.8261730930366287 -1.2275917162987116
Ni 0.004024702134053494 4.45907513493472 12.098644939682247 1.2711965974728558 -0.05051883468515816 -0.39926558147482205
Ni 9.153643092272016 4.609410415062979 4.891632801381835 -1.2998919085250193 0.4833571099091031 -0.23733261928102997
Ni 0.6580559509540236 6.85303583070517 3.5461946259878983 -0.9834991525860287 0.11438683698371269 0.737147360525524
Ni 4.39303515958143 3.512421802989242 9.398744763538296 0.936834144429322 1.4746022249891377 0.6408644322313736
Ni 0.5329397269760496 4.346873003567948 2.62829366966584 1.317340185908454 1.4261029918371697 -0.33383126313041217
Ni 2.930559832864701 3.4004329131545674 1.88659326417829 0.01807125567941404 0.263715737260249 0.9081925694332293
Ni 6.582580668409675 0.3868006693446172 12.762903437809001 0.2464808614392013 -0.22525434796025723 0.593225747307488
Ni 0.8671439088604378 2.0271667178219954 2.4963157040398287 0.8444047855533071 -1.7647887548464058 -0.2551727327862444
Ni 2.9945322924937474 7.916508436755864 4.041552850774623 -1.1290423605678879 1.727497217484799 0.3678888669357535
Ni 0.9124818399955102 2.8202583325448796 10.595962458520114 -0.23217138679506466 1.1075253124317184 -0.23366108396671373
Ni 2.205037969703627 4.428757751893128 8.86235237801647 -0.48037540157295977 -0.6793049955957592 -1.029441423644098
Ni 9.205145557958879 8.725871307514831 2.0102798427541195 -0.5283190193317739 0.4910899597769865 0.7720056058552898
Ni 2.063881346826492 4.223276357290438 5.538671582223221 1.1858264594364676 0.15794055320494735 0.7927901467008088
Ni 4.752467668987065 5.067527396974638 11.44231160945273 0.1324272394251913 -0.5410503508555133 0.14298187501258602
Ni 8.984690899254609 -0.16854517983223188 12.138159522716885 0.2133246864022068 0.4800270170946055 0.5403175864545469
P 3.390679430903878 4.522797267547826 3.820477010215983 -1.1796537549668524 -0.1461733853666902 -1.1801643760546836
P 2.989637008626481 2.79427995111291 10.958894910463426 1.014411525894169 0.7141647835874216 1.5737647888239283
P 3.7461901503931228 9.455963956559547 8.200943899323045 -1.8090428395687745 0.1328463292404809 0.7205850852914687
P 1.5088043674075038 5.576562748202633 0.35192455320163396 1.3932224390590653 -1.6454936819277985 -1.9575407593035836
P 0.32735449301859976 0.8624970977349191 10.349755639835315 -0.595145332927704 -1.5417740948499448 -1.0841221030164294
P 1.4670461126003698 2.802271872881061 7.229890173283115 0.1587188261318686 0.1616336857858184 0.5453507780030802
P 6.252334434788423 2.9319505385088105 10.110035072274647 2.428464014324708 -0.09354058966232279 -0.6479488498819809
P 6.139446221970557 5.451742280958307 2.3766315763077475 0.30795516669459866 0.060696546549108374 -0.4815930760301448
