# total energy = -340861.6785159057 ev
CRYSTAL
PRIMVEC
9.30078541192438 0.00000000000000 0.00000000000000
0.00000000000000 9.30078541192438 0.00000000000000
0.00000000000000 0.00000000000000 13.61263958815066
PRIMCOORD
 96 1
Ni 3.4591945637233814 2.766165150463395 9.487261370246026 1.6922332520761825 0.42399907966576006 1.3257811175869554
Ni 6.74568284565936 4.557022054544523 11.310578945018424 -0.9493199356011585 1.1945473842492331 -0.7663808034693447
Ni 3.2292605501336267 4.139323787805752 4.567952337400711 0.418234409267841 1.1402189460099974 -0.14748336242736537
Ni 0.4528096612336605 5.0288136884476815 12.724373643309532 -0.49622393856944214 -0.8499367711151298 1.1513489944848878
Ni 0.19949347346039972 8.605635283554836 12.660394471475433 -0.1892668741220547 0.05509025610592448 -0.30411239590974076
Ni 7.6597640225706565 3.284879246083256 9.283520228150142 -0.7720485432780834 -0.16266495526381017 0.6553649398403939
Ni 0.9363751592175273 9.630405106034113 6.776793972407105 0.0759807264016885 -0.3578469093187192 -0.3995124073783055
Ni 7.3834004888838205 6.594545084926672 2.684058748126651 -0.5690396369795878 0.3456549952382176 0.9858403991246957
Ni 8.7180259728283 -0.07961286180428688 8.444056461271469 0.24827034923945632 0.9237667697224027 -0.08803097269800322
Ni 6.797023180382095 2.8027730413091714 6.584338403164947 0.31604977077727503 0.4820738723213052 0.3853582273651105
Ni 3.7632837383175493 1.6223545772384131 7.3995447919656545 -0.2297211254823592 -0.7847071125823583 -2.214057407712232
Ni 3.871684390707671 6.746919850101049 9.72448812957058 -1.8568229351665313 0.8217397398556234 -1.3402721121142789
Ni 9.106649984794737 5.424124965027461 10.515695702123992 -1.2883234869611297 -0.5078473817409835 -1.734971671484973
Ni 6.997064470095243 8.549095809862896 11.921527998140439 -0.8871046384146787 -0.4779418524308027 -1.689023229779317
Ni 5.9076448891634765 4.399011013492976 4.671285921972545 -0.11135653479782112 0.5345583153732665 0.22620179947519106
Ni 4.539834203354737 8.666276403553427 6.381931923756149 -0.6311541469221452 0.06087883776324354 0.914994165736095
Ni 1.73774942015598 5.839823562931922 1.0829034507675002 1.1324120483710691 -2.6980953457384436 0.2577726323029367
Ni 1.1153966742072368 3.17345583847848 10.221608592015482 -1.021571276867402 -0.5533515368203696 -0.05864686310893126
Ni 7.914903164257986 0.7570867116904009 6.236794099604916 -0.10227436999089483 -0.235195261223053 2.306630491254963
Ni 5.944773623984701 6.83134307805001 4.98449916692233 -1.2736733411481227 0.20124692930206634 -1.3581453928502738
Ni 4.162417637645707 4.585826586543854 0.4308728290820225 0.16145499411610903 0.09358455552638076 1.1978430242813694
Ni 3.914188979418341 1.0956046031402114 11.37583790490648 -0.9510528591318654 0.03805566922114091 0.8218328137900621
Ni 4.120164170137486 8.94538366889664 3.3324425319054645 0.2491319259088032 -1.3918093607616222 1.039892700884409
Ni 3.8014541610896693 7.010197178904754 12.403143121451958 1.0154075712588513 1.4298226067806021 -0.3450685266071283
P 8.869126530419884 3.7351581636433555 6.038553441921175 -0.07833071469110381 0.27178205920815124 -0.6297937762395089
P 4.864506015764379 8.474652324514931 10.995432066809789 -0.18252132786810502 0.057314260340436775 -0.6872543323498229
P 9.155646521627958 2.042033911240941 8.426305912572495 1.3174139765691828 -0.37514914804259264 0.158425720371482
P 6.9448405607713015 4.949003649995546 1.2351768373823702 -1.0083460364263794 1.243190342067917 0.009194264904758359
P 1.793507627884747 5.941602056205633 9.13485740637936 -0.5158684522732471 -0.6475654984006332 -0.08495567620678916
P 6.306964804197152 8.599692081763562 3.1408175227884403 0.1314641041809736 -1.2797776542736476 0.2885651922037611
P 5.374021634746415 2.485820880678492 8.369908740895276 1.9296545744162767 0.4893495800471121 2.5593452494190183
P 1.6207920453120692 1.2127293921190878 12.781642298567098 0.6970692615577155 -0.3570665795092689 -1.5657077228474068
Ni 7.390803913963404 5.337581158035605 6.444046288142436 -0.07922700125312808 -0.5452409918980933 -0.2830766582853641
Ni 1.54896208062662 2.6685720105638198 1.3899865481419669 0.7102456510386735 -0.016764878163164677 2.586833684647274
Ni 7.647180060092422 2.3710491903744075 4.360972661871774 0.4446296114319181 -0.3541892579614739 0.3897445293582642
Ni 5.957627309235936 0.5373928626893657 5.2009265801344835 0.013454068622376828 0.0828766821905734 -2.1046315142782204
Ni 2.2228690793594423 0.882207385770932 3.345659877860986 -1.1238155649513097 0.19044006849454945 -0.9641312895823784
Ni 0.9984765025044293 2.691768169041809 4.718127466857347 -0.05264565122017385 0.6779119719029744 -0.3662616157449757
Ni 8.171353716669211 7.26621989519329 0.5664875791893039 0.7351390718462436 -0.3083315761974109 0.4763811928119022
Ni 0.2756557439273434 6.779872532333413 7.3416911173142365 0.2698192790548256 2.7655081279654627 -0.6275191212727192
Ni 8.179538407711965 1.1354212649061584 10.944766039019553 1.1006784647132142 1.4433635786898305 0.3976077341564249
Ni 5.495741011651567 9.063122309703724 0.6964930256967155 0.6422672261161713 -0.5601086530385451 -0.5943932852530278
Ni 4.825619432526017 5.528135646767379 2.7676672272854463 0.6248585437214206 -0.17076470155280912 -0.21991416669426642
Ni 6.8873059030548465 2.948200119882482 2.089771121747808 0.7791946674045612 0.9172338536998913 -0.0752495046626188
Ni 1.542488734074623 7.615641097221988 4.964094174105626 -1.7055253411993982 0.16069034803594262 -0.5872661872899434
Ni 0.4836538554439875 6.090591335539598 3.436129546317782 0.5351409273496138 0.7992251036928752 -0.44677468279937893
Ni 3.4738526013181334 3.1085456580382695 2.4632748470912853 2.318043875298227 -0.7248515738773066 0.388200324799596
Ni 6.087410466975255 6.8098117601364 13.223889988041496 -0.8825632989008995 -1.7359121810213718 0.5589038340971665
Ni 4.583678105145131 3.5968368850208 6.804958610379457 -0.684147668400041 2.8350263865712595 -1.4779215191703579
Ni 5.107628542875299 6.534127183774701 7.309075123508859 -0.06880092082379764 -0.753830991828792 0.11627865468978685
Ni 9.093703291690744 8.170153915368624 10.478342818377621 -0.06045949083763781 -0.9154752191375717 -0.7827178500664713
Ni 9.414533879781455 2.752269777261264 13.488247138015726 -1.723751634399438 -1.3964538015121692 -2.3465545811434105
Ni 2.699757543593771 7.306743416640201 6.895073918917242 0.45567327084058945 0.2650802217079435 1.2480736383021473
Ni 0.72498040091814 0.44998687290243766 0.8785651982569062 0.5519551706934752 2.392677857864034 0.8064013097263402
Ni 7.239526641451578 7.648556576313248 6.69114304080173 0.7838090262481211 1.187680996146703 0.4661710850481197
Ni 2.065053354798689 1.1780095606843106 8.607980011522878 -3.5474461624431166 0.5306954899837506 1.581667588610773
P 7.157689031809306 0.8243378997845453 13.202831150019897 0.28384593235122085 2.044756178078827 0.17949153990284572
P 4.6570333986158206 3.192838674993368 12.642861561151914 2.5108488444805275 -2.0771335659682677 -2.4225551050394407
P 2.6108420363565714 5.340641116391363 12.605168268664446 -1.0021787312734032 -0.5903774792254155 -0.6506361669061569
P 7.214786552617796 5.542561164730234 8.624247084970355 0.21050855710965038 1.1854670192145198 0.36390931346271516
P 3.561103267990954 6.262432644296346 5.302409308436422 1.7438018681820935 -0.3521827690544064 -1.3521320967766586
P 1.0291783947000357 7.6700506910857555 0.9839989001440291 -0.43133520831585714 1.1612495414280515 -1.2736975095178387
P 2.554395570517391 9.359752254506654 5.4818912122972865 0.888141050098993 -0.31647014614414526 -0.1882793133978048
P 3.947104458509601 1.4629205160396603 1.019298170501492 -0.2355855546829362 0.4739918666441192 0.2985901805399309
Ni 9.002164963005752 4.442017844608542 1.4004276096926447 0.019869485230417393 0.40777079073235584 1.3071527038524908
Ni 2.563054601609214 3.1801524038770976 12.734529170752241 -0.7581381038445782 -0.03910005132525524 -0.5863387903796676
Ni -0.05720633999621806 4.798498342661617 8.105074460636393 -0.3792526286880049 -2.1535308110820846 0.00480487758781108
Ni 2.876928202313585 7.022660231174403 3.0663963593251373 -0.33085058323553346 -0.7488147695611233 -0.1480837150155256
Ni 1.9525789584577415 8.079424755002632 8.866728787975768 -1.231839435831472 0.42297063840124577 0.8955625393740448
Ni 4.056481693353688 9.392677034383192 8.969898678726748 0.4337325049034401 -2.275349421753494 1.3897257387597162
Ni 7.085580043565581 3.29218966331008 13.172324574315084 -2.181200509083211 -1.1619252273388376 2.2939171574533526
Ni 2.1373762611037583 3.990715840668098 8.032001911038089 0.7602361240241875 -0.1375087677131567 0.32448016093281534
Ni 3.147943784466803 8.846209395500171 0.6586248784460608 -1.2708353574786952 -0.9907861731657451 -0.006100970691415299
Ni 3.3251795486835474 1.9155990362009312 5.158509418805407 1.7130959544578044 1.1386109780929292 -0.3837757133693391
Ni 1.823511961184664 5.231859131804931 6.134168304792574 -1.4657913115657273 -0.5761230261889303 -0.358466288070273
Ni 8.215169716103777 4.632218903499832 3.96620548123063 -0.46784255921327167 -0.55835104691749 0.6644543037361718
Ni 5.827686038146928 2.3621018349390326 10.923257973069132 -0.029598025372090955 2.4493208031690594 0.7590953255515249
Ni 5.842902122858232 6.495789346867615 10.631199364229287 1.2640257907560297 0.9627817175330193 0.8529753008311374
Ni 4.078961691365436 4.765043418024356 10.952552656452502 -0.7780021897583569 -1.1728776125852831 2.0275328722220047
Ni 0.5223637237621073 8.573742890843919 2.715530745343098 -0.7367439544395183 -1.8388419252080783 2.1758145621809493
Ni 6.246146969278318 0.5928599558389984 9.76916538172169 -0.04993802248102368 -1.0070214040776848 -0.7480164420295441
Ni 7.753357824801613 0.40594858469977896 1.583340573241773 -1.0702324895185311 -2.0445893134836592 0.1223569996733828
Ni 7.255468187414398 7.750437378224993 9.235127312281326 -1.285622800200515 -1.592125293608987 -1.0358720097607903
Ni 5.314236186993202 4.735969163252025 9.060981268933222 0.07513123391719964 -1.0647020466186052 -1.03263241977757
Ni -0.09574042347262417 0.4746906886736434 4.504149880486854 0.7861433308082525 0.24074730138953376 -0.4894943331550925
Ni 1.3187583442638655 6.742092742542879 11.550201586630038 2.253083668376758 1.7013293008401795 -1.0493579600623668
Ni 5.5049301875041134 1.192183957444718 2.535694481563224 0.31245613988874577 1.6636569831003865 0.21922793926051923
Ni 1.6935055845987246 0.2106413946920428 10.838587344231835 0.04171820567439267 0.49347748617255655 0.2966392274611472
P 6.2821782114369915 9.441506157081445 7.6780735484647105 0.20736332661244933 -1.1247686728931985 -0.7133327746044297
P 8.527099452685492 7.647673001712042 4.8902859323920005 0.3923575415010791 -0.557425192669111 -0.22769946706664013
P 5.443591508609832 2.4198225083610057 4.301648533068242 -1.4659975140392625 0.46232008673314573 0.0880170887409323
P 8.482027847238687 3.512422957857115 11.677752555903151 2.1278717157530838 -1.099624826637719 -2.4035865343567377
P 8.139210202755846 6.716320266543478 12.05653819720479 0.2197496160919441 -0.5534749497721113 -0.33853869590841046
P 1.7916288692590236 4.439181105099405 2.8551150706061157 -0.37337045887561504 -0.5229351293120413 0.5086068856148273
P 8.80283053297357 1.8676627888891606 2.5355986834748823 2.30064162066138 1.3568107331992503 0.7964431700723638
P 3.9250243942647147 6.5861836789636765 1.0045610762318955 0.6924500176181494 2.496371733910275 0.8289727672689529
