# total energy = -340858.04638256493 ev
CRYSTAL
PRIMVEC
9.34737006596669 0.00000000000000 0.00000000000000

0.00000000000000 9.34737006596669 0.00000000000000

0.00000000000000 0.00000000000000 13.68082093818838

PRIMCOORD
 96 1
Ni 0.23142311634103283 5.111095071903541 2.442943510872548 2.576100871610802 -0.5437273834670443 1.3066122579679884
Ni 7.654505048164993 8.893498915667099 4.752170092489888 -1.039248896652823 0.26555407602056846 0.9194529728383971
Ni 9.121341054636272 9.131464256133857 0.6496683740039638 -0.736001676956855 -0.5000456263083776 2.5975963224804164
Ni 2.030557184602679 6.690277116047454 6.292151137150359 2.5337296057334426 -1.082285564028323 0.2299509821049782
Ni 1.1091028167076191 4.274514821827561 0.13600423064621386 -1.982442921861902 1.4066538819736225 -2.7775779146458035
Ni 0.8412847812982635 1.9638169642030934 9.3632491156863 -0.15836529944719177 0.10041134864022706 0.0628038227000983
Ni 4.909173189400481 6.214262308785706 9.643719750862164 3.2774705603160847 1.1086128890689422 -2.2515788016964575
Ni 6.286610951067609 8.821355915520881 10.429423201832694 -2.3360480251851317 0.3262043427127737 0.1444378907328222
Ni 7.560863097469889 8.725937964563043 2.4032685997400494 -1.1867525707951627 -1.068714767322424 -0.5079795364434735
Ni 8.206570056150975 2.7079423795490585 8.34349500272287 1.4735403593835266 -0.14650300079196704 -3.0382314680409612
Ni 5.276225706858592 4.148876824293832 8.635552637507605 -0.7237030620951601 -1.649460122774714 -1.3250753497691825
Ni 1.173618363093885 2.207072915978837 11.772373842608468 0.2585917857701224 -0.3629124967670847 -0.04259109519764923
Ni 3.9931309486218582 5.58943737424645 11.417219592173696 -1.1156399711190528 0.05903407124502091 3.0989015322275084
Ni 1.611804364759398 7.259690842389407 10.925038508836165 1.1286957758617464 0.0990923727184874 -0.8987157402910458
Ni 5.742238828430207 3.99028000083168 2.879319861744033 -0.9089168491937637 0.1740325736708035 -1.0387958682758045
Ni 1.7492107008761912 8.637343593562024 13.455770647432638 1.9245465637657502 -0.15317501349550391 -1.1274346497611356
Ni 5.97929747402599 3.5297350905953255 12.60658920812407 0.5002646842977191 0.5642208754347057 -0.6915038516547961
Ni 4.5271929223655984 1.3250644486560814 8.63002553774258 1.2588365332456062 -0.35394526027146783 -0.5317547844862004
Ni 8.328814958445902 3.006740402699359 11.392607967480123 -0.7283220489244102 0.25671282357985464 -0.21018742632480575
Ni 3.445562025511535 1.4364757493483304 2.922387868115334 -1.331612636667068 0.17900071630935624 0.0854344156154206
Ni 5.127191242705793 2.460797921934908 4.713548629934285 -0.09425458501021187 0.8101888017932304 -0.9020661448205174
Ni 8.66813382969595 1.0591037356267534 6.74692965495471 -1.296169979588742 0.715913133737096 -0.5968517740958494
Ni 1.1541664865320451 3.2112421592682843 6.940034163521785 -4.162503918024031 0.3380573853966178 -0.20241112481349657
Ni 2.8622020234222174 3.778627506362799 12.282353252789536 0.3943113227933403 -0.8675452282255123 -0.1894656203964221
P 1.4333817699432516 4.2492769233571295 9.927938681329378 -1.35968908318831 -0.8632347737756165 0.3692510373906028
P 3.6620564575388173 0.8480130180830844 5.0026926895511545 -0.5778790896480887 -0.26722452174445593 0.9573849719974803
P -0.0666962877615072 2.3691563083778298 4.8162509861802745 0.9309887413921385 -0.6777363655570586 2.633641131919116
P 0.9126472760658593 9.183379548024513 6.710223468471919 1.527617857954221 -1.1097912256477598 -0.46265330170284835
P 1.5985310996379118 0.16023261317782805 1.794827734993006 0.2861280435171782 -1.5335938730319976 2.4930421553164095
P 7.272393917952858 0.9800810713048913 11.628177577066149 -0.048937092020335075 0.4023755878587135 0.08115507151377636
P 6.485981001614214 6.710551561152034 3.9518006182970957 -1.3696973593539314 1.310440116354511 -0.023876806617597588
P 8.504835279222455 4.699091053058648 7.075528962513689 0.34800344086573615 0.40833411943499354 0.6155092412960368
Ni 2.489877589394727 3.9992721705829966 1.6458026182100103 1.6436252612604918 -0.24161479159615165 2.74957525878529
Ni 7.345593170886913 3.1040839118367933 5.971295190736901 -1.003240339768698 -0.5795881019193954 0.6431105479530731
Ni 1.754164806872239 1.8879443635051332 0.6325888598983443 -0.8226884769221381 0.267156644620998 -0.6873875154935775
Ni 4.86612855145369 1.6434358641756721 11.21475649695899 0.21396900485442508 0.640265365194794 0.10482361877530978
Ni 1.5060856122777018 0.8305633481332321 4.353141157669739 -0.023270797602482504 -1.09935048993041 2.544202994460941
Ni 7.789883005034349 1.715896674895222 1.8835754028588076 1.6093614549816155 -0.026492389863573728 -0.36637551561502063
Ni 0.19327930438240704 8.328609316310217 3.733373150194374 2.1354472141074967 0.07077449961040069 -1.0362563896834025
Ni 8.631800603268333 1.683218270060915 13.27993166563028 -0.226767442170674 0.706901417156789 -0.20577592752067142
Ni 2.833645808671415 5.590474932294679 9.009599791789947 -1.2800375928032537 1.0871171810890117 0.7520109079009177
Ni 5.707831160182186 0.46138336930776097 5.8560477294771465 1.185273929367107 0.8308535292314336 2.934171466904553
Ni 4.149652655987553 2.401554292118021 0.976214064417033 0.4452477046318913 -0.5621166846075094 -1.899522788027903
Ni 4.351967128022374 6.637959887255231 4.793130266970418 -0.5837795142929235 -3.4613391462407037 -1.8030123171039787
Ni 0.9746595968186506 2.478342935056759 3.0460208548261343 0.8244437690503478 1.811654309049693 -2.337829028344954
Ni 2.7045399369404524 0.5300173668296091 10.17832574152849 0.9249245374759296 0.2920282110516971 0.5217452227689983
Ni 3.849704906351377 6.860539457024828 13.807642101592295 -0.6496596619255005 1.5638038209564746 -0.17306506755121162
Ni 2.054598619738216 8.29699651163355 8.331113476680672 0.4666824774668995 -0.4237864494343218 0.25540310362949564
Ni 2.9196229161273513 8.487215487142173 3.5900938616298133 -1.4177124537806294 -1.5390767505234397 -0.719841779367541
Ni 5.719534067176622 1.2923393069727551 2.4591004395785263 -0.7415228638854002 -0.9058747199333302 0.4822206823118147
Ni 3.0684704328840735 3.0156858356016567 9.243487809548258 0.0818037608413688 0.5354114074021811 1.1131593707890441
Ni 2.511021339891066 1.660476119328115 7.413677543064293 0.7901915327356971 -2.8417688475014153 -0.7762006177732439
Ni 1.8734092034601255 4.564330022596349 5.196153332907756 0.003163999550278422 0.5060416959908124 -1.4568698407063814
Ni 9.163722029326989 6.709644866281059 8.342085419356447 0.639775570042569 -1.0747776856870521 0.9110115269392632
Ni 6.636754076550532 2.207428116031384 9.62380050581013 -1.9333675044914893 0.003900363495670702 2.3334491541097035
Ni 8.39309682058707 4.438617246104188 9.596397756493124 0.7930673116215954 2.492844951703939 -0.034625560493669404
P 0.7683098652395012 9.0113225120448 10.078167739343113 -1.2827387937845005 0.6735835197309495 -0.3733108092822732
P 3.9888498532516885 6.515088711183444 7.333521977522203 0.8952915451008452 -0.542343358635324 -0.10765466046620169
P 5.041176745770641 3.288778591791332 6.669591386671504 -0.2556923527351403 0.3354816542496416 -0.06280048026598861
P 3.024463015847484 3.4988887702425755 3.71991106820285 0.8388776850874907 0.19952223330147575 -0.4120028265358324
P 6.288143919715443 3.055533673075526 0.9720890701225882 -0.38940205841718095 0.3406084339532457 0.5112638636217002
P 7.10623507231938 5.232853910968666 11.17405617935901 -0.765841643136423 -0.49364537920898854 -0.7129843901260753
P 7.349416245136693 1.8647441916519443 4.087076688835588 -2.3456991751216507 -1.8749155310021839 -0.42262302525383993
P 3.964023239052627 7.974811369233983 10.190501625435003 -0.12678443931711714 1.2259400396279014 0.34211818572955277
Ni 8.892003336498481 4.423951222881927 4.709266599827134 0.7442083811373635 -1.4295714100017445 1.321413070426247
Ni 8.463286220444282 6.36444649942438 4.157150181307231 -0.30509224332450685 1.8218399913334429 -0.8486938998469641
Ni 9.39420012658085 7.236864565328371 6.157245222456099 -2.36940448915839 1.155158083818333 -1.4684228356513034
Ni 3.829271555960131 8.24621225148916 6.016838380632265 -0.930039747215308 2.817511517615948 2.0659688076007
Ni 7.812952313710283 7.070229003834898 10.34666813274815 0.4595618072617182 -0.3875812031583583 -0.4372605726613566
Ni 0.5236144185139626 5.161552174104796 11.665280092028624 0.36484905166816517 -1.262387483821658 -2.16774078403388
Ni 8.06962174115457 5.425549939475311 12.955353596560924 -0.665576333155757 0.368479706442217 2.18023763094931
Ni 6.2183471093899945 6.816270313633731 6.158558527913542 -0.7585420241512162 2.487586788628793 -0.6477925268097747
Ni 5.26066233613516 8.261513895858085 8.126311669541042 -0.47665604373984355 -0.2968346313014049 0.32071812278722184
Ni 6.2016433595504905 0.6346480854661355 -0.004874653352714814 0.13528630614054118 0.19695370124335113 -0.2975272864930553
Ni 4.143595560354649 9.069846394386788 12.174055560978953 0.6544709672712148 -2.6652700716783064 0.819407235067705
Ni 5.107178523955721 8.685211474327609 4.0555695094377056 2.162730732413798 -0.25214551592414636 -2.68773457132941
Ni 3.0008328649833174 4.314558954067312 7.166752748640533 2.8476409900114765 0.2126621131175434 -0.46715144668351805
Ni 8.911389781471694 8.537373473509703 12.156927440550355 -0.5246328287294384 -0.033432825737148876 -1.746917788103256
Ni 6.168796702059714 4.885085017415924 4.999847350182859 0.14467571777524116 -1.5519710899876045 0.300413864012231
Ni 6.232854227325591 7.418082023715874 12.351647174619536 0.28240868568406197 -0.7529740431451355 0.9407879868707475
Ni 7.609011399329589 5.129331790390877 1.659880691871609 -1.7269200048250906 -0.2773181585350321 -0.9282222343905949
Ni 5.803651048041591 6.653046542118666 2.0009708896994898 -1.06158895491092 0.7185186896807433 -1.2059057466848457
Ni 6.680359556685556 5.725628552288741 7.934123203214746 2.256227870432695 0.09642099653391137 1.3179387387244013
Ni 3.298182045814019 6.132725201986604 2.545617825009126 0.8038919130409252 -0.690020068020418 -0.1343337124192848
Ni 8.138465119760026 0.27491923224935083 9.406385357857166 1.6673465161368315 0.21380419714178664 0.4775181346298227
Ni 7.636268329677655 8.144335267996851 7.377273276626167 -0.3352841935268548 1.0932014396098784 0.5450329896523453
Ni 1.2462193843604927 7.0492348112554195 1.8152124790612716 0.11559165592509126 1.3439372196706918 -1.258864301159748
Ni 4.242658985535995 4.674460733625469 0.41511295404165627 1.4266537221343172 0.3192911605327082 -0.052775234819502664
P 1.6987535986749362 6.476072789622118 3.98512679585881 -0.5136400771633606 0.3086586205195265 0.29480525957620196
P 3.03872710216818 1.4110789455912334 12.605727380628153 -0.5332331688039397 1.248808973806275 -0.17389630520325536
P 7.811073492379707 7.357286730511546 0.3942823404337465 -0.8276648470908068 0.10523499528111555 0.393263084034484
P 4.957059764905673 3.7230293507694188 10.612677452100458 -0.82687166176555 0.22470258922184527 1.0933202245759301
P 4.599186364594956 8.817121556999732 1.007615618536132 0.6115798243346434 -0.5253144281774952 0.048396389025516656
P 9.16260969232033 3.2720281051028093 1.4048564015128013 -0.5264241163019062 0.021231912795582786 -0.36302433975460063
P 1.423623115868018 6.535297724699397 12.91723969618567 1.1323202599882112 0.34451059722112926 2.2860310698370565
P 6.619218410798484 0.7576706889287438 7.967395166031598 -0.3334574247307612 -0.23583495168958094 -0.9055381625295179
