# total energy = -381164.4237133728 ev
CRYSTAL
PRIMVEC
9.24071215859294 0.00000000000000 0.00000000000000
0.00000000000000 9.24071215859294 0.00000000000000
0.00000000000000 0.00000000000000 13.52471630961034
PRIMCOORD
 96 1
Ni 8.522680974657927 8.12436932371289 10.51695415057483 -0.4180001817698479 -2.4421605379751936 -0.8383814621773625
Ni 6.871624476475583 3.4258184081872844 6.346256731529203 -0.8353583590803226 -0.534123541828693 -0.072184749694366
Ni 5.7936399749758545 2.093686603979191 0.5353181436503899 0.10829100849861995 1.0107093944522334 0.4337975538134207
Ni 6.65703666192831 0.8916104288943956 5.142719599873917 1.6933974475876128 -0.6677936525220498 0.8403095324380109
Ni 3.3768149123409237 5.430507714694045 0.17363205479983668 -0.49749303508985293 -0.36329816224127753 -0.34579306347797867
Ni 6.941955535665976 2.2923249495785445 3.2488532285615417 2.3998581776625576 -0.7240424477124499 -1.5691802547770395
Ni 3.8614070914242737 6.62103484789523 2.098522268579681 -0.7421550981527606 3.0943753622223804 -0.878479615749829
Ni 7.062639234657768 0.7403390490425173 10.226822591186224 -0.1701340099473457 1.035625440967623 0.4444943714056345
Ni 1.7060479754181903 4.503849113247117 12.230860427495516 0.5439826940109599 -0.01620489189463661 -0.7112650934421234
Ni 8.910134788978512 5.526675804694625 11.816761020062925 -0.3627206924712527 1.0001244198475356 -0.5591087510191209
Ni 6.2146375739319835 6.19158199744006 2.1446010790714554 1.3701064218668921 0.994026534479914 0.590452298327409
Ni 6.588091709541039 3.722981225352525 10.895349294901413 1.0980536254958573 -1.1288240739094946 1.3775117131920276
Ni 4.504468240952511 0.7896992363728814 4.414034936832047 -2.473492001098624 -0.1497824428741872 0.4042805181909102
Ni 2.0593481181098574 3.090057136911117 5.662311899807292 0.09892473679237156 0.21432407420099864 0.21014063224727036
Ni 4.934272238464473 1.1054571383375997 12.23591879325571 1.044499603528801 -2.2141473963228773 -1.5694445641820196
Ni 4.567841043991233 7.7176948283890185 12.271042739646811 -2.649276010242895 1.3463820816667587 -0.9031241537713866
Ni 1.9623298826033624 8.539508311247824 8.370554828944124 -0.1876337093940059 0.44675102865029515 -1.245281420268991
Ni 3.9711682688074665 6.75319551121687 10.146958813475164 -0.8439743828841078 1.8007343197030794 -2.290187000986959
Ni 5.59213700865005 3.509372926279458 4.415981954854832 -2.999244288144486 -0.009107875838539153 1.5409374578812622
Ni 3.4296810258119836 2.4322200888616026 8.839618915547703 0.6341638802827465 0.689352095419116 -1.004869904952321
Ni 1.0970573311106826 5.858842438994697 0.7157023867238331 -0.5506583062589226 0.3556738129268004 -0.518709521266468
Ni 8.82579481036457 3.8763493227619255 0.9208563583690602 1.8120104068375311 -0.3196220615095657 2.060873909576296
Ni 3.883529356002095 2.9993133448667524 11.788872551184117 -2.822984367805061 1.6362523658351884 -0.44120335935918853
Ni 8.981343715810882 3.23901741468659 11.194880506557588 -0.07789337004336908 -0.4375361949202465 1.3296539702788004
P 4.205133856462381 8.42927585755157 8.285065305754793 1.0095308007631 0.33772725575070867 -0.1313239790586835
Ni 4.373130001000725 5.10902334349003 11.412615707619148 1.568377813480402 0.12443136570390828 1.8217325192213014
P 3.27479745163117 8.257065948331736 3.7835799666425993 -0.6948041196726227 0.10196198095679859 -0.9910692516238029
Ni 5.024073477882714 2.2474982555655902 10.217557853314158 2.4177450852453073 -1.3699264446456019 -0.16775831062631752
P 2.6283911643513993 2.2848492135537084 3.516318245434299 -0.3902317534073279 1.8078801867192413 0.19671793108346122
P 2.0045322144024063 4.651737468428176 7.465223790841228 0.03479319641978523 -1.5786519417129008 1.0305619104017862
P 7.798467892162927 7.699980383445124 3.077102582729142 -1.146625877977606 -2.051704584372202 -0.44428688338051864
Ni 0.4923608456792457 7.750499356062897 12.44633627446799 -1.1748501629306218 0.5242304510846971 1.8182291340537329
Ni 2.3458286721790396 4.043134934025543 1.8762434094174871 -0.23265398285843802 0.07866110144732905 0.5880933111769291
Ni 0.8742471310072917 0.5370156624486129 0.7682644807694081 -1.4262279474508082 -1.626381900799012 0.3386862772298683
Ni 2.429401671695255 0.43404733247191785 12.567734280498989 1.3826762881121026 1.1797974796335682 1.2447314613027918
Ni 5.911800959585965 0.22725128630059255 2.761679194539577 0.9478639198809226 -0.869242156311961 -1.608518647365346
Ni 1.2480875283788175 6.664909748570041 9.745396280041204 -0.22939613804277267 0.4565446177019492 -0.07795867606366574
Ni 2.4620860701128633 8.266824140225712 5.786522778577427 -2.4577223969691935 -1.6683320199785525 -0.4423816959380059
Ni 8.477142745819371 2.482766783615438 8.975258706945178 -1.5945051066950733 1.7361260968043906 3.1805348289292836
Ni 2.759230405854062 0.5374268741335388 2.1372297630924546 0.5779073717828628 -0.7278193982563789 0.29765841275428095
Ni 1.181711493933332 2.58408195021161 13.437670619348573 -0.38096781160689874 0.12179727051517088 -0.3306505514095854
Ni 0.9062939202954643 7.573724535104783 2.672741037624079 1.6430819871625122 0.7046694425024768 -0.05434566463041608
Ni 6.941391852232707 5.782116807085903 10.112443830006232 0.2349723465789695 0.4731400601667852 -0.9612696517638671
Ni 2.815755841285363 4.8712598231945625 9.762546117480628 -0.8466969240215935 -1.6178013582188524 -1.2637303710027978
Ni 4.901763413575259 5.742548078212791 5.6425247631571285 1.1949759871462193 -2.0226359491410197 -0.7728779811579141
Ni 5.178726034263007 4.384329743969948 9.185906281886776 -0.530410354643164 -0.36139528879160987 0.07733132689231198
Ni 8.515787403490402 0.26261641527543833 3.388347320942896 0.6409387371127349 2.9747493883269156 -0.18110953512224293
Ni 1.7120267160956548 8.818254389355587 10.72992853680327 -0.9070327447971732 -0.5635053374249198 -2.1705520282304294
Ni 4.292218326546504 5.157121249558351 3.412569999363048 0.4922338435734427 -3.033572372002395 2.163747603714086
Ni 8.391444382538369 1.5072895005625664 7.109659673704462 0.3155041826864502 -1.4879040843043667 -2.721905303673848
Ni 7.321194357000059 4.445152110490926 13.172735709427114 -1.9849937133082136 0.5538469883995494 -1.6507096789110989
Ni 0.3637162732815253 4.945638314250071 4.839494875623025 0.8253953343303398 -0.5123385847431177 -0.8770454544064638
Ni 0.01092436975100277 0.38203044043557066 9.078844316484863 1.4293153281268802 0.1992340126370956 0.20539720402501402
Ni 3.2775234616773097 6.665307099186936 7.7062751564737 -0.29259848173287023 -2.302397427010222 -0.1060747175735915
Ni 2.767879712305541 7.650025094260619 0.49669104333219777 -0.9792738016507715 2.236835581949012 -0.2826395707479455
Ni 4.513274639508345 7.861831454489629 6.007165107640734 1.5328726785952569 1.9432991617829047 2.3440318147215566
P 7.287059166795184 4.1984620623833555 8.31683487368234 -0.7998167145302871 0.6878346303333251 1.298697373996286
Ni 8.806749702889679 5.717912339965309 2.5729016127376307 -1.2471593540179942 -0.7831096861882514 0.33425780914486947
P 2.4153373079995806 1.668604610309864 10.5219589202053 -0.5195104199012085 -0.0874478465010236 0.7817277182390602
Ni 6.148067484534061 1.8335143570332573 8.339732433998709 -0.1925907962889651 0.24137387922993916 -2.0623371243853836
P 7.285423560767501 1.734019610705185 12.37503401644421 -0.1827416714090272 1.2073532777646496 -0.6996982145401305
P 7.259253864324563 4.528872961399474 3.798714404790284 1.8722595814365754 0.3626078210424723 -0.6206180232775118
P 0.7957352694648752 0.08275889278718127 6.480584341819722 -1.425153226329391 0.9514223266561421 2.7323154432635786
Ni 9.008308113487608 3.8856362383428404 7.141252744032413 2.079439845503942 0.820983064195257 -1.0724253834047919
Ni 5.227831177941597 7.426889621094096 4.012661837994514 1.5861953012777972 0.10775004839348538 -1.63495524429032
Ni 0.7357648965922159 2.2656285325504215 2.4130936631209274 -0.6748639291052699 -0.4674275831630402 0.44818878953808616
Ni 6.428218150868988 6.7060216763506295 12.015858629049712 1.6247158259504988 -1.8748831351023516 1.0380456203733412
Ni 1.5575589739557782 0.9019406208624602 4.705735569121785 -0.6245101592430664 -0.36965495769724077 -1.3998566565461312
Ni 9.03362766442463 7.930092594187359 5.196385034934777 -0.7610943582594247 -0.6196399756349585 -0.19959808084473366
Ni 7.5623677000312055 0.8538085241596619 0.8888724059226293 1.794975048621799 -0.5756075200050925 0.8227512118392734
Ni 8.000608467618168 7.68751466292905 0.9197077378648735 2.308866579674333 -0.7729291461108236 0.2352767651932658
Ni 2.6299066411228122 5.642184704954762 5.415851021357837 0.6290928935177424 -0.09419339275497325 1.0094554674404745
Ni 5.887544090531336 7.908543253754828 0.4575963629857526 -1.2812017883146838 0.6009339145850231 2.00448473215329
Ni 7.541696227240652 8.69771854175613 7.97318573062521 -1.4082893606945166 -1.182676086732944 -0.7722128367700895
Ni 9.228957835120532 0.918128500180517 11.776362475250341 0.6502289041654092 0.20540825976860755 0.10766854442327264
Ni 1.3793980461945419 2.192146390560932 8.193787400555626 -0.772467890203689 -0.1584439752039271 -0.8933297933887839
Ni 0.8517164269581503 6.2645096967083 6.839476039355182 -0.5423729263216788 1.3065330679906209 0.33353044406054166
Ni 4.054584176219328 3.97690675097239 7.084178410307076 0.38209575456375483 -0.16089989294358742 -0.7851082046755189
Ni 3.4705988986401346 2.537896871531597 0.29729588341833996 -0.3695711397341829 -0.5099016931668509 1.7647139357444124
Ni 8.90509860092717 2.530051507025928 5.0199419555382105 -0.41408876253058363 0.026711190742599155 -0.9632560860662764
Ni 5.7507538304872705 8.032442720529863 10.110401632649632 3.373892071070628 -0.4498101271915931 -0.9459939565517193
Ni 7.6821273278209175 5.700678412046496 5.688658093849826 -0.7213957541182221 -0.239618072881097 0.319708707686101
Ni 0.48210180719374135 4.504726980889094 9.420532580451178 -0.16359672304946019 0.005544069746680774 -0.22414568827711076
Ni 4.019885302581183 0.0585990512087709 10.187276040021962 -1.7839812686144565 1.4257144981494996 0.6141085042937682
Ni 5.9904671410191295 3.9603935985912013 1.8722403329700719 0.3414720675051216 0.8035908368607386 -0.44791085328635116
Ni 2.403564640885067 6.876993330159675 11.856387965421769 0.5032710752242107 -1.463445694151686 -0.0898086334237163
Ni 8.337728123561396 6.350318948533552 8.41814819213611 0.23975228446611613 0.13667444473731943 -0.40813203072651644
Ni 5.981817834567651 5.85625503962887 7.625031740457931 0.323359674175127 0.8958818703866765 0.6000214300730828
P 6.621450679936166 7.4529022254326796 6.1873414346937095 0.9849561967475295 1.167224270954248 0.5695122057406321
Ni 4.48416639664279 2.3348414655862957 2.545567586580072 -0.048745801945135406 0.13602601252004315 -0.09351976372671637
P 5.07348356505799 1.9675416441831 6.128873601595634 0.7260746476511302 1.5511442232109351 1.2800414494579955
Ni 7.360365735256277 8.777669182160187 12.332890825202101 -0.34017957394594317 0.040104324220053514 0.6424659723905387
P 5.204914212129985 4.628035042094797 13.345716294029485 1.4268982340449556 -1.0933659902122008 0.4012746414850509
P 4.361773165927148 0.24780078169247205 0.5182995243216622 -0.8791105644656085 -0.46854267060408983 1.3702694298073177
P 2.1464141067699387 5.648616240521247 3.4333708421218936 -1.6364135740034012 -0.18763319517337365 -2.01934519420489
Ni 3.481299643160234 0.8413418795723858 6.96169924096964 -0.21015323065276062 0.4994041360696367 0.2672512612173333
