# total energy = -381165.022684504 ev
CRYSTAL
PRIMVEC
9.27323813426648 0.00000000000000 0.00000000000000
0.00000000000000 9.27323813426648 0.00000000000000
0.00000000000000 0.00000000000000 13.57232136278271
PRIMCOORD
 96 1
Ni 0.9835381579294514 4.942849084064321 0.6738157214340006 1.9595559899613992 -0.29682357555781136 0.534879446158111
Ni 8.633996516667068 1.7810366171507825 3.681166646653214 0.5165197127040008 2.741668345233388 -1.4199822236514128
Ni 5.51360760344355 2.8279759025883293 5.224719350533361 -1.0541011311743074 -0.5717621781170734 0.25286928146404836
Ni 6.89507894604865 4.405084745125899 6.371539754045641 -0.2485392866301268 -0.8686315193111556 -0.4709651640026534
Ni 6.562178978751131 7.08825903793817 0.15063540373764214 -1.5642815319238412 -0.4177680111543837 0.14120858516224713
Ni 3.3044719587351774 8.087450421439314 8.421462249960793 -0.7077233988374522 0.3665233540467946 -0.5975691118778483
Ni 3.494378597646731 5.615557580893309 8.9787959028352 -1.9164041371642735 -1.3062942125069374 -1.3793325684508504
Ni 3.704139238897737 7.25091163066773 10.577574447692635 0.24320784711488438 0.9625629166539937 0.547222026883864
Ni 8.485773082106675 4.475477894009029 10.654557159426028 0.5832920331335438 0.9013176966902671 -0.7502191061078176
Ni 6.997548224820693 4.8740509320996335 12.546009292903584 -0.7042655221958387 -0.1860895048353376 1.0535601710691727
Ni 3.1470680186558413 3.0755435347491655 8.561298040842516 0.24126563578684898 0.32311927602954676 -0.5617225344928842
Ni 0.8558679278460142 4.111902055745183 3.339930965809253 1.7403380780032092 -1.733129476069912 -1.0042775227839607
Ni 5.158813521469037 7.451445400210303 6.7950234911014356 0.7882531780624037 -0.3527499544117861 -0.1657461652922952
Ni 2.897942482528155 6.304049128624563 4.308723748157218 -0.750217820556237 -0.6892150556206195 -0.28543795942868905
Ni 5.888264960995413 0.7763007647104702 6.97948488471933 0.9117036679102815 -1.8323599170281606 -0.5617973535948776
Ni 4.716609899068707 2.8302478458733207 10.219822202828684 -0.3467284308080545 -1.105966966805663 -0.04823286686445887
Ni 4.730927778383099 6.5386156812525105 12.445275036942242 1.1328907877797005 -0.6298701380033991 0.09392882623967694
Ni 9.184687749235193 3.6732500834597572 12.899608981836844 -0.23958002055430996 -3.3456803845231025 -1.7578082097635148
Ni 8.421528089949868 6.493501378879118 1.27139893608055 -0.46025369112242026 0.1564724532998531 -1.5584533552778383
Ni 9.126442541998342 4.1869689165288655 5.381655919422641 -0.23928100125665244 -0.3944650747623852 1.1506257431656184
Ni 3.357579792176579 1.6585927839466144 6.286685917984491 0.4022079519325976 1.160637875985982 0.7134086221476874
Ni 4.378758022733697 0.9106885283271624 8.617759077107806 -2.603683152104445 0.412339898160277 0.9302919724354302
Ni 1.4025772320607712 7.192416046007636 9.94127731946984 -0.18259717541136294 -0.28525566821455395 -2.4742623036057454
Ni 0.5576090680399751 6.533515400408652 5.610634418893302 0.7627288085390541 0.5926333651391278 0.0148666326991873
P 6.739807850685835 6.393118578634107 2.813854615917373 -1.5356672106212585 -0.6321324516750145 -0.6562637975055795
Ni 6.415439262254406 0.18010575377723972 13.412710217261951 -0.525333968561521 -0.6191933750158434 0.9556615615484702
P 0.9949349673059981 4.888786107119433 9.065442255782019 -0.2559952286875397 0.8315731810062774 -0.7743615076819761
Ni 8.249342608661244 1.1560018363550133 7.985315906555386 0.9192699102933136 -1.0239176656123914 -2.010987052048182
P 6.837019203569756 3.0495784686349823 10.494606788219924 0.12060813530307617 -0.25157884478739895 0.9579066488289051
P 2.3613651180406676 3.06115146953159 12.652632982253895 -2.2699434202465745 1.9068316629844904 0.29813098151532524
P 7.6253186107963495 2.4755928624672765 5.600970777679877 0.7576053712695598 -0.5479864158537143 -0.28362404614840186
Ni 3.818700819888671 8.63219750851487 13.174665273098492 1.1887981404702819 -0.3871320314360817 1.4319386246823405
Ni 3.1919690365575817 5.438475829994583 -0.009309403525724352 0.22527054591017331 0.09751294404650947 0.4681382360768196
Ni 2.058028233161726 4.655768185220437 7.037425002429339 -1.5612180625071692 -1.4895297928332476 -0.28675307869568684
Ni 6.695750697432806 4.29639312372435 8.640179911697404 1.2384769957526476 1.9562678061284309 1.303854235606877
Ni 6.604010554908659 1.0280404266015812 9.437838797934369 -0.4517263703776994 1.3672188159064518 1.3837952322078941
Ni 5.532098439812008 5.218690818575921 4.515769185351712 -0.7153282077679035 0.3910167112024685 0.1514253777942489
Ni 9.026189567083902 3.2801575289668246 7.71819936158194 0.09297006187083344 0.7987561344762566 0.5224525332486679
Ni 1.8664616846664441 7.496188773067779 0.45490517634911454 -0.2429679631899364 0.7847181683259519 0.02458565975916411
Ni 7.069230353771633 6.603509800062171 5.791377244114129 0.8156945621028081 0.731640828884998 0.21119864119813953
Ni 7.4819914458460595 0.981423859688725 1.8683524978738304 -0.8264721123342862 1.0577695811648298 0.1758868532707229
Ni 5.568653543605618 4.906516537980261 10.688813427544744 -0.22332704903055733 -0.07679139522844194 2.0462687580686114
Ni 3.0772869034739747 6.570497073145567 6.653341398554238 -0.35787904810823523 0.620976177947879 -0.4559278100535567
Ni 4.986377662757168 0.13360695698568714 11.451944339792584 2.2801342447366473 -1.0148079900016393 -1.8914423250126136
Ni 8.632058409946403 5.579762882607328 7.433546196419733 0.40052130825879406 -0.6790928795849531 0.7103713779832604
Ni 7.784234088653046 6.664342240672543 9.49215586159766 -0.67310863697706 0.22405030034982704 0.7820092540352209
Ni 5.28186011513657 4.983985167379505 1.7113204146342016 0.5991783653464972 0.9898230379215276 -0.36734225040366414
Ni 6.010467690014234 8.398057524830227 2.044805523243079 0.17023094053652615 0.4881398760097271 0.5131633946372581
Ni 7.576615565356461 1.0868883943017973 11.719468907233539 0.4196806547960643 0.1798664067437612 1.3107177954959297
Ni 4.8759890388202995 7.399135065228123 4.04134847984642 0.9538615322252542 1.437006526123551 0.24250593595185332
Ni 1.4805280698307073 1.543595360774478 8.134218142129907 -1.5016304327515233 0.5655897307577743 -1.944893759963534
Ni 0.8875573637145846 2.1065365406057586 5.920124097117515 -0.056100442537993706 0.4689874714509923 0.032197153557834875
Ni 1.5366218858752403 8.729251216354527 6.546012015799893 -0.9401542099414905 0.3687807826224036 0.19208068942176595
Ni 8.249685718463468 7.81059790399684 12.336873667886898 1.3330815079031104 0.5879292747952392 0.6587027459643752
Ni 4.094366362880212 3.5413382743618103 3.235735937464406 0.32709985794384955 0.5610712740621305 0.6586806344771882
Ni 8.762801791069212 2.0702689071869838 10.16167807388492 1.2798658431120797 1.451412417136236 -1.4000032094263244
P 8.75950051837755 0.6556132827641685 0.21403374927436858 -0.3002462280861152 -0.6584353512356016 -0.9495212529786873
Ni 2.3949435124690446 2.1889478058045957 2.640916147711438 -0.3171520027025183 -0.6819624878232643 -0.09533007746257775
P 2.861461564637728 5.400566833467875 2.171937905528436 2.6786747751199864 -2.0682077242335475 -0.01765705096013088
Ni 2.2226560255635435 0.6516999763712453 9.820523997534462 1.8535607194754915 -1.4836188266654513 2.434561385471697
P 8.935942415861321 5.765468744751123 12.74947155097432 -0.30968114824676984 0.5951165365722977 -0.6583453626249565
P 6.140181741730373 3.0487624236999653 1.640785385211234 0.20444203920059628 -1.3658134509184927 -0.8286822326117277
P 5.398777098553576 6.24259538107503 9.225649495677896 1.6967702207145874 1.9158441508957456 -1.8174341489562638
Ni 5.474697097223867 2.74089092548894 7.835355594536713 -0.734827711253412 0.07602443515543035 -0.8405866973587974
Ni 3.3503466666161996 1.5848149032307433 11.705868776532446 -0.01378239849607304 -0.12164377565644209 -0.37215509841127514
Ni 3.601873971359448 8.768514105614331 5.740317868924378 1.0896474037100332 -0.7611925744001857 -0.7119137827697158
Ni 4.479687944014685 4.483897994020342 6.720484277554145 -0.624427369721273 0.8662077403610113 -0.18270953261951114
Ni 1.6209156183673554 6.377307708018149 11.901975502302552 -0.8283212497278831 0.21028718512746364 2.003074739179641
Ni 8.84171704558053 8.259302066163613 2.3926233483469845 2.572487700338247 2.5446457384253147 -0.694306611210914
Ni 6.437314830455605 0.5693332227143185 4.823616573144204 -0.1940056743586207 0.4032052828488604 -1.0307236327906315
Ni 4.773213743197625 1.3360510233810756 1.4198551289121804 0.2954596053307492 -0.674555910946548 0.23470032386450548
Ni 3.0595379261373514 4.784573459622581 11.256543307426512 1.380269735553139 -0.953815252368351 -0.05593872014914883
Ni 0.004984365370133319 7.64508915399472 7.935722630277297 0.20444332475217694 0.9066735616855418 -0.21905233291460335
Ni 8.519193831490789 5.636005070458228 3.7372335703078425 -1.0788899080832128 1.322111382044852 0.0003946643352573848
Ni 5.699675121865363 8.367632031287144 8.842692590207392 0.5785768870460616 -1.9952382738543575 0.8670348642479971
Ni 1.113827150395262 6.312441408922181 2.3782646667858414 -0.6833429131105586 2.424151245881967 2.5953923728505623
Ni 2.865606701978099 8.5369891750169 2.798164297394089 -0.13792168688085923 0.6237719955254611 -0.8934938297704741
Ni 0.07928340205586762 9.115453755089304 9.812665855739764 -1.6702891437049232 -0.5349164700436336 0.5557745444395654
Ni 0.5228001149425436 2.1318802997807804 1.328884665133561 -0.9517889659669416 1.0267363660081092 0.1167432530310312
Ni 2.3290478839664077 0.932164419974961 0.371358866831572 0.3508766486484731 0.4477797270251256 1.2288736683349286
Ni 1.5409246682598765 3.2703000770813326 10.326500604282597 -0.10256567597906853 -1.0954426702355715 0.6918267822118537
Ni 7.484810510167028 8.005196801284741 3.9790786873618704 -1.089865690368426 -0.27467635003681085 1.4067199593248678
Ni 5.59791988241146 2.3649167681555716 12.472094168266825 0.12449127240756626 0.6819601738304191 0.5299020475481777
Ni 1.8372324388121926 0.6491220162356229 4.403444309341757 -0.45420259983233396 0.0776930811071049 0.1396337844759595
Ni 0.9416231226308418 1.0053951796548546 12.073475691310518 -1.5486854772577974 0.6710836361272313 -0.3977566010294633
Ni 4.162969776849042 7.118443427295908 1.6816785096934923 -0.1398584988922559 -0.854991817040534 -1.4033559279486414
Ni 3.6513188758311705 3.2524769138415257 0.7127948496141278 0.22970081376738502 -0.102482629346959 0.5848956301752378
Ni 8.815909624510612 0.27899185342552557 5.110956195325438 1.133947511178989 -1.9041271195691338 1.6659478360170923
P 1.2686902232905668 7.844306123755787 3.9953791849388387 -1.0379054952510511 0.20443818254585436 0.7431488295245976
Ni 6.951126395903692 3.692872254851761 3.517972496830415 0.46992772387707454 -0.5001307298230161 0.37643161429944205
P 7.79466648128821 8.619094423365107 6.6864171834885475 -1.3295886642585037 -0.8288899777471596 0.346579563935016
Ni 8.13152612116814 4.358987479535327 1.547108990614001 -0.931767528539692 -2.366026316714777 -0.08940239912423313
P 7.162602586165815 8.531731249128779 10.704870038964996 -0.7805059300168171 -0.3590293596625946 -1.7031195599713829
P 2.598083061860934 3.162433773852699 4.911592708405584 -0.2714154198973519 0.19602681855370757 -0.493280282560086
P 2.2511619588617573 8.62970300752033 11.79026173267007 -0.0915829517153197 -0.8335051079216678 -0.5805610073556259
Ni 4.09477438534772 0.92868695576324 3.8559912914475865 1.5095406887375356 0.47895460996603323 0.15656115635891746
