# total energy = -340889.35168579913 ev
CRYSTAL
PRIMVEC
9.11395242210239 0.00000000000000 0.00000000000000
0.00000000000000 9.11395242210239 0.00000000000000
0.00000000000000 0.00000000000000 13.33919062217520
PRIMCOORD
 96 1
Ni 6.832192378453043 1.9229710412244856 11.146427562252759 -0.5188378193142161 0.15618037598073103 0.40849404205162554
Ni 4.707757419799142 0.26374046545868224 6.034169239413456 0.16253177212005557 0.16841188504991642 -0.8250934868192048
Ni 3.129248208895614 1.8291429014400098 4.764425241531821 -1.7648594601833412 0.568738303689085 0.7450887268597878
Ni 3.5912526831019895 4.575495742814946 4.635595879015117 -0.5453777745862736 0.03662896407694337 1.307233436491755
Ni 3.863741631453253 2.369299517331852 2.350232217551075 0.030331818214321956 0.5557308356858235 0.2994124193309102
Ni 5.058480535407321 4.515790240752963 2.7114974418808364 0.7415418900487939 0.4612093701674702 -0.6987183671253644
Ni 4.98135827034115 4.471997699551953 11.34599577758648 2.507233359215127 1.1887287206849269 0.7495287649090124
Ni 5.742856333810046 8.284901704612025 12.078650004553202 0.11697928030123723 -0.12808258930325037 1.2569696552401965
Ni 1.7353876732745994 6.516594435329506 0.49846575211038474 0.48441434752902374 0.12992169939451817 -0.7455713229231612
Ni 3.0413259102554164 1.9177396325565603 0.12476545114906061 -0.27267860288049167 -0.4415692273390396 -0.0007751876031276973
Ni 8.031351549312935 9.049133953795865 6.889758835890701 0.4764457275012504 -1.4280061223971536 -1.043769410230996
Ni 8.434762423648074 2.2471816693500952 1.1823648908034716 1.2748539917197852 0.7720786251850703 1.0354711747779457
Ni 7.0503530566483805 0.8795465317115795 4.58507997514106 -0.7118214801662257 -0.14936489572079437 0.6983620122272101
Ni 0.8535562737005655 7.6722162556551154 2.4835037204593244 1.2628086305194768 1.1393689393048765 -0.5009408844291373
Ni 7.515665895569837 4.042639402782002 3.5957786718554594 0.6704927966207679 -1.2780038502026763 0.19562109847485665
Ni 7.80719389044949 3.632912559445345 12.666654870456554 0.0706829683378589 0.8228399148983376 -0.8074762879580739
Ni 8.442800929650007 7.362141367675763 9.06460671075673 -0.5095831334851676 -0.5618528894231614 0.29661480198111495
Ni 7.5740681024410295 0.40163183082994797 0.07247779493172063 -2.1816093144858555 -0.4098670111397522 0.14580854582810374
Ni 1.9245112991772368 6.3383346406675765 9.378758269637062 0.02952037805662013 0.9781880247857606 -0.35381207712771323
Ni 0.023206856953201578 4.850992295452645 1.1690840393907531 -0.547387863037767 -0.7105189593047182 1.5896197535783139
Ni 6.50576705989833 1.906766433887254 6.958428821516744 -0.5244610790382646 0.6343106902732559 -0.46841051590159977
Ni 3.531282876420897 4.699327013844734 0.4977585094054527 0.39532896542457724 -0.42653367316215574 -0.09349302425383899
Ni 6.309434297660625 5.824936588972648 4.963005504427211 -0.49431052359681316 0.3322307514125117 -1.0563747576998324
Ni 5.689120470559025 3.111658280796145 9.0232685569325 -2.484054607105819 -1.1193547009664786 0.6945392960470103
P 0.20002300155764038 5.545384327524448 12.524993062984382 -0.031232475651720402 1.4359325763330817 -1.0784250526316523
P 4.537691068329661 6.229158605069886 12.573201314115027 -0.41970148073167074 0.7677396314900842 -0.937554053314482
P 2.6899648179804188 8.387971392113009 1.1945657388587876 -0.7137914594084029 1.0001637577259035 0.005605004891603251
P 6.744561726289106 7.872513587179489 5.616865967460691 -1.3251550539671824 0.7244854487871395 -0.4014170806001861
P 4.98486714200866 1.4064651317669041 12.273442508838155 -0.27988694770347283 -0.5329955988718369 -0.25466314013967756
P 4.206453582916646 6.3187123011866655 8.235749248014486 -0.6185647402929089 0.6294664748070772 -0.22660237734771943
P 4.869420707171365 1.1910386392865104 3.8592812631569418 1.8287971393775664 -0.3425200491536617 -0.7325229743796352
P 0.3947134295759028 5.76843008419715 3.16660356552841 0.24902959600298402 -0.9226953910350948 1.6921376070385825
Ni 0.8081596768801212 0.3389305726196268 4.4215811377588725 -0.33671989753211684 0.49647050736260956 0.006883100273078468
Ni 2.037041269251926 6.733351564857839 4.720939840526123 -0.04792536292636907 -0.09816728980105675 -0.9311766890332286
Ni 6.08873082675039 5.61198909154047 9.167639031052943 0.5823420105154488 1.2295007603959665 0.24251879146765978
Ni 9.008959651690962 2.192525296908376 9.961227320862891 0.09125333629004283 1.2889834891426317 0.531636256630465
Ni 2.463045631544879 5.4451035094527045 7.205870805928648 0.012792523778977969 0.03635796980374383 -1.5434599671928
Ni 0.5634154223736277 0.1328221850557606 8.92676000375214 1.890821403599163 -0.3669750968722325 0.1589571673949198
Ni 1.777721982094307 1.334528705606742 11.263026000671285 -1.035557563844165 -0.9790755695970363 -0.06049162962715388
Ni 4.456057396833833 6.917899986664136 1.4841980316427459 -1.2115673158459974 0.7407615602393436 -0.0162704550252494
Ni 5.691581237702473 7.97203794720343 7.8311189268504835 -0.1983806634978648 -0.18472682015985606 0.3191350945708182
Ni 5.424314584066752 3.144304458232569 4.827319715532665 0.40498680022931544 -0.5510313733276252 0.16641388078328115
Ni 0.8835001642553878 7.5287991009539486 6.6435572603981425 -0.1378484104407626 0.27478253659737195 0.924167347594931
Ni 4.954973378191944 4.689547742937618 7.053110027244282 1.5626486243061088 1.0262645685780132 -0.6071644688757672
Ni 0.7490793919516235 7.455832798174492 11.278098655122529 0.7399817446505256 -1.0409350261059944 0.7600060102912524
Ni 4.764099873431744 0.42214642624916854 10.123618813030527 -0.4696932392687652 0.5322785182001543 -0.015265925020134997
Ni 8.655894250320316 7.423851939262037 4.554893653452846 -0.8335732421554418 -0.41814904864288627 0.1966341131204033
Ni 7.733425559860316 6.467944157508279 6.954520758734851 -1.1184494155433897 -1.1032968761726676 -0.3274058192200426
Ni 2.6008668194827953 5.50145507703769 2.6139608348716594 -0.5212328019089539 -0.170048649322391 -0.48610536207820154
Ni 2.6625956189738345 5.489442887796704 11.621329190476523 -0.9995340945617043 0.10330486813793822 0.33816408617781113
Ni 1.3232091767468763 3.54757862328196 3.533858479364374 -0.723185241918477 0.02732799839099164 0.05226589928325192
Ni 1.4490910870628722 1.3508791361821038 2.218867353481379 0.06535872791146809 -0.6460344064680875 0.09455488985945006
Ni 1.1300298420337394 3.6293034343016193 8.172588646604053 -0.5536544127727691 0.042371522987675415 -0.5795168823618277
Ni 3.715220663417525 2.9125457630815808 7.035595744949592 -0.8643339203770662 -0.7699613217317514 -0.5815051164364502
Ni 4.127918655231088 6.964754815865885 5.833375197484202 0.674078199979181 0.10400395108749186 0.353481690371488
Ni 0.847086278903771 -0.12522023737297952 -0.01200945505526989 1.1282260353141795 -0.35817498208209925 0.566215023046599
P 0.32862451526476666 5.71348206527917 7.896613611466239 0.7303506493186648 -0.2317543538623041 0.39795740418635983
P 8.657717040796944 1.652004122921208 7.7996511834571995 0.20457445101340252 2.3579839060262744 0.4078085859488267
P 1.718490405556249 3.8348048326367685 10.25254204925678 0.14336985447962405 -0.9046621876824679 0.7812420368518932
P 4.334249423233103 6.453598796457209 3.6466810073105616 -0.3242479903173512 -0.4452327922335558 0.8172467370812764
P 7.035743390978199 4.129057899278981 10.524087703536386 -0.002850067854285414 -0.7698561636124547 0.14541490993411085
P 6.616829683639332 7.789303201921377 10.177442170224428 -0.7403069892004283 -0.24451036797639178 -0.6976981533909662
P 2.4477250775888133 8.776617663587452 5.604981373553069 0.6378274451772628 0.07953013431584367 0.8015190419333745
P 6.945515262385065 3.882953843076922 1.4483956924960382 0.39388940476457324 0.6564656291037404 0.973562095977975
Ni 5.440674128594496 3.1195965333218636 0.24511428097324922 -1.0324552707697572 -0.39586426910275696 -0.854628005943212
Ni 1.5710813397112653 1.4958638906931712 6.986387693242517 -0.12736293752840647 -0.40397532824566557 -1.4532353292775875
Ni 7.050899893791369 0.5428971813734539 9.010329478734148 -0.2126186614741177 0.5568225260881056 0.43515329651036666
Ni 2.7530880521860794 1.9948618976227315 9.037248448493004 0.2364903258853927 -0.6371422461847801 0.8890113685190884
Ni 6.3170717897577 1.6782796476418143 2.0724034044985276 0.5991685951544842 1.0156523402798057 1.9972709880136699
Ni 4.193110756627722 7.137546239097927 10.396458648548542 0.20076793278311877 -0.5256008490696626 -0.15198227873898343
Ni 8.254561357128535 7.325940748809912 0.45372080288533534 0.7062558131529901 -1.1162338959493099 -0.21574538002855748
Ni 7.708380418711434 3.627398618253542 8.360044419220577 1.583855340290711 1.0987537368866753 -1.1282026382754118
Ni 3.321087792608429 8.93212903310105 12.377914833610905 -0.22955246111497882 -1.4211687877603458 -0.6932835692630382
Ni 8.981462857351014 5.245662889452348 10.275658678081387 0.2717108396505836 -1.1278403698399866 -0.13752265167022767
Ni 8.552633169819286 2.657664970734553 5.528440578648944 0.35238022977719313 0.08680481360038599 0.9108480047782056
Ni 3.4956564365551843 2.871286900643084 11.348543127277571 -0.22987616300298477 -0.42920684911894463 -0.22704897796683476
Ni 1.313502817458827 3.598079033436965 12.79273728772498 -0.48786168264767593 -0.18933835078993844 -1.5358294472307354
Ni 3.022496484631839 8.352709510342622 7.765476596206121 0.26227489104866447 0.23746040310814587 0.9262072608430951
Ni 5.7754204856750215 8.230254446122688 3.421008609561037 -0.565074995904885 -0.35385758565366804 1.07079838932433
Ni 3.226111294823677 8.714733926905899 3.390835958801398 0.020156420343216897 -0.18701021687739405 -0.02354641986137235
Ni 3.6045225977718487 4.568751418051417 9.499050592956475 0.2193744921407125 -0.4197549596774255 -1.5677808033263514
Ni 7.185139298442709 6.148491012526671 11.729030588578622 0.42108396290149414 -0.12643039841180806 -1.4356623533908308
Ni 8.024096843215952 9.007373823976295 2.5537075842714505 0.32854661769270516 0.1277552878708187 -0.41094636024686
Ni 4.769531789052097 0.46103201548709416 1.025377972399041 -0.46181923583732726 -1.7264911448177878 -0.4363714851881839
Ni 6.257220464457588 5.76811109586374 0.44376563269722635 0.20165470626344625 -0.9105919229033415 0.6591550030104455
Ni 8.264431767559481 9.023122733694368 11.035806053807102 -0.11611770363189035 0.6116641565183337 0.5008254418971956
Ni 0.26382066823965394 5.044891632404052 5.406560604824386 -0.3808569970606473 0.35320015457532716 0.24568279101793816
Ni 7.433968426407327 6.177400469486005 2.6532984761477887 -0.4517888481845187 0.8265728995782088 -0.4861966362404272
P 8.603926493831624 1.9565377278516078 3.447033500591107 0.5734207967664189 -0.5288604936575408 -0.6262155719699474
P 2.064492493829958 3.3164761327025576 1.3945322339116526 -0.27759635189708326 0.5329901995551981 1.738800044092128
P 4.621512088397443 1.193900420334818 8.045078984392429 0.6664484513480652 -0.30400543801823127 0.4515924159029965
P 9.039573417745945 1.5650752450907726 12.46868797655655 -0.03988552334102809 1.867435420575055 -1.5935980214997714
P 6.379338312439345 7.914064096094245 1.3847812162569257 1.2126507787181633 0.40543725750317267 -1.1077358857806279
P 1.8827876251672 3.6285287483490523 5.865068966896588 0.3642643828092888 -0.9754582845594234 -0.24276356048861417
P 6.933056489477307 4.16890409909809 6.181060632763076 0.7406528025756212 -0.4899134229703821 0.07253056306955896
P 2.3747040910950568 8.449864242746946 10.146882176488504 0.1505900263771471 0.783411019478754 0.34580926142789475
