# total energy = -340891.9410964615 ev
CRYSTAL
PRIMVEC
9.08567927000045 0.00000000000000 0.00000000000000

0.00000000000000 9.08567927000045 0.00000000000000

0.00000000000000 0.00000000000000 13.29781000618190

PRIMCOORD
 96 1
Ni 6.384506615085782 1.899879073232877 11.565370645290312 0.5580394292143421 0.44638233245696674 0.24021945391052177
Ni 4.719174344568772 0.2009207048327978 6.0016869829203205 -0.5394493249169806 0.5118277065449701 -0.37036921015544605
Ni 2.670889790973278 1.7679368431712923 4.96343373810793 1.58500102385938 -1.6604454181416242 -0.7180610333180343
Ni 3.5218544836855794 4.130068005568421 4.976173677165384 0.027211013197153137 0.7549753898458804 -0.025141275152317993
Ni 5.318638357599575 4.584497325135989 2.5611447832132668 0.014964334619316165 0.04519228026592217 -0.9716404534752299
Ni 7.559212221002491 6.227578767845479 2.66114449170568 -1.2207685227292913 -0.8017810373455095 -1.467674130410737
Ni 4.984530684685743 4.816018596753487 11.361967732961794 -0.45800166186345 -1.3846370113828992 1.0484007383554204
Ni 5.597505102351001 8.00865350281329 12.368970784942837 -0.26651361172036037 -0.8592536776406815 1.804372430676299
Ni 1.6196767336722604 6.684742876784245 0.3785448202081579 1.883051272735441 0.05864043535102803 -0.47457987793710527
Ni 2.691795938292635 1.5066690585926574 0.37013965858923675 0.4550793460103324 -0.2011767381857632 0.6162463765723775
Ni 0.7023974872639458 9.273207388104673 4.523648715910783 0.22889374448505742 -0.03258179059076324 1.0210462576018673
Ni 8.759366813725597 2.294706338730483 1.0684912930060249 -0.10444206706617497 0.06589840246502199 1.3158072942036954
Ni 7.051658936473478 0.783075590850081 4.8806023286049385 -1.1742122722363069 -0.9194781696493777 -0.33521143130739045
Ni 0.8476638655410186 7.6501689532120025 2.675678852360515 -0.2634426861045205 -1.4975531773583564 0.5828081515185899
Ni 7.634659699203249 3.7764806369341626 3.643147389421646 1.1694888986187084 0.24198528756169294 0.2879409283562009
Ni 7.752791697224232 3.806109036068636 12.385579406107455 -0.03848041546338534 0.12323348874106518 0.4635020228563888
Ni 8.095194595041399 9.103486904868864 6.970140407582241 0.19712673648610568 -0.5882113248120322 0.3247128457689117
Ni 6.9811358962766725 0.6045710731821327 13.830653012663237 -0.6273180610055067 0.09629501247900836 -0.4448360710157694
Ni 1.9062299628357589 6.447197800006933 9.177868632925962 0.20736409794339772 -0.22743541477197607 -0.4130364100066693
Ni 0.4659263377413691 4.885960153495954 1.3651532485960847 -1.854273172161484 -1.5094887524536778 0.005206741011920066
Ni 6.546558785267467 1.9427816493484813 6.994129325777504 -0.40494386280652195 0.08751058141815897 0.8850423565690113
Ni 3.4464887765955887 4.57703798269827 0.5560435532136757 0.13642710461320376 -1.0113894512383939 0.28796458250528467
Ni 6.0772471235403565 5.418308255945229 4.588954759240672 -0.06236287850793776 0.45525289547371917 1.6682533442218173
Ni 5.41637300632375 2.9400984589752586 9.176712025992563 -0.8300073791810544 -0.5370844242292299 0.20196580974596184
P 0.2390024196847553 5.3937950940731625 12.455619088182841 -0.27125369750850703 0.4214696283756871 -0.8168474447603288
P 3.905678991945575 6.228596363890576 12.603677495608649 0.15697278997503936 0.8815065755016109 0.9446353856412957
P 2.3050276700450376 8.420334702807814 1.4946741452110774 1.8529585671151185 1.5420499742191507 -0.8276036548355683
P 6.528414684356231 7.870587525123176 6.0515010350315075 -0.2620792300980906 -0.37682087931806074 -1.1187744029829765
P 4.748012289632501 0.9775282008212316 12.981534529918468 0.5706846287821784 1.2693759993243492 -1.424866034106275
P 3.984551771119561 6.315673511178155 8.185905105350713 -1.1603414277914854 -1.3193394757266697 -0.25898824987759267
P 4.708071644862447 1.0386566489588396 3.7743436852394585 -0.2622900605573161 -1.124154179237651 -0.12943498956608676
P 0.1961661690256619 5.548587806754557 3.5677753223563733 1.25196988803276 0.18866857841642345 0.6647476666068745
Ni 1.7200916576937886 1.2391775839167778 2.6219161641671938 -0.4276089085042056 0.04354163203637662 -0.13760132742696302
Ni 1.8095855955884736 6.441837249412226 4.877556809012827 0.9984786567139965 0.8935053997346998 -0.7270814916490898
Ni 5.653618255694918 5.68257431458531 9.44839926721867 0.5797490529772918 0.6548268079487367 -2.309130117748365
Ni 8.67730496123171 2.649147761188305 10.215057944730487 -0.011978769628430983 -1.32944545381242 1.0654798053248942
Ni 2.2049398304665764 5.236894503869779 6.908531327026904 0.9185476874153083 -0.14794898920987426 1.0630776236413044
Ni 0.5323653652393266 0.15784186654509644 9.07794887840852 -0.44397038058136445 -0.06453828889270176 0.10001334187086001
Ni 1.5648446610636895 0.9759472926797416 11.645051141325093 -0.8389463335418971 0.06787532368573472 -0.9230270633429006
Ni 4.2009817299611125 6.776490063064502 1.5771339504440296 -0.14435098744597075 -0.029451729602213796 0.023498340232256307
Ni 5.463246024151027 8.049239230790503 8.051637850039661 0.686226919526573 0.043640876618402255 0.6383689195030297
Ni 5.428029932447494 2.66612889519086 4.943487038488236 -1.482907916641356 0.4041200813536459 -0.34243057476364896
Ni 0.8644778230504504 7.450138644918665 7.066628501151173 -0.232474005637148 0.6574056244195066 -0.39520606669346775
Ni 5.143557323769059 4.370684041838972 7.106761762315478 -0.26213785125016786 0.18533668582971308 -0.14794976054082262
Ni 7.91353552963365 7.299152831727409 9.159664566533497 0.7853329190918152 0.7695735993750294 -0.6420337699491265
Ni 4.764920738203263 0.4255214147757394 10.655774249022478 -0.8637806189767576 -0.17476071008607968 -0.4906302465317486
Ni 8.240311059615399 7.485690906744238 4.643967636860828 -0.19076839836824566 -1.4870376225390132 2.2079404961812172
Ni 6.989576492043592 5.9865993044159636 7.185670884205359 0.08113398846785382 0.5415964531669705 -1.119485313007072
Ni 2.262397664298656 5.399137473309921 2.6648941514182827 0.9165124021528344 -0.22208880574808204 0.07466277892121335
Ni 2.2736366491895925 5.051437624650865 11.664479957243264 0.7568864908256643 0.6767089527338087 -1.6158303505354106
Ni 1.2618554386360807 3.433269113688303 3.9236786305611244 -0.8996572782687086 0.4923701120409908 -1.1776066426298364
Ni 3.94749128658429 2.71381053844683 2.4892834225035787 -0.8594477959293585 -0.4829423909691876 0.38191577734246485
Ni 1.129504353020662 3.5854814935410593 8.476714975113568 -0.126674138991498 -0.7768768179046621 -0.6431190325935053
Ni 3.3133654082673734 2.782125758652935 7.310258257137427 0.4237735939185153 -0.23054542115586749 -0.12205078128687367
Ni 4.340437816534261 6.778997710461348 6.034027457228557 -0.1404259413599517 -0.1794383180674071 -0.3996718157743052
Ni 0.6883128677183276 7.203144462008309 11.14038619414194 -0.9182764360317928 0.2767954532623426 1.0428047323248815
P -0.02781762331493972 5.793346912637289 8.067328817627896 0.49889351498180534 -0.9967398196460188 -0.49989675943533907
P 8.410004285814287 1.8676067415169462 8.1577276891484 0.8111624785604095 -0.5474020041051539 -0.31524115883305065
P 1.813065410635546 2.905763678132211 10.64502952506773 0.779185925653813 1.6158540046844945 -1.181938180125655
P 4.008892305091121 5.9359012157406 3.804410014100483 0.6132546409339051 0.8868889228594469 0.42347791705496746
P 6.841434496371223 3.935798017744649 10.38021650855341 0.14319244836149533 0.8337300794482803 1.073405487929874
P 6.099852292827867 7.766311187537664 10.24517787909746 -0.8722991979707299 -0.06374124691270312 -0.5604812058866154
P 2.498389089971401 8.343569801155816 5.783828755344044 -0.6468211640354409 1.0522766763710587 1.1794503807067946
P 7.251180446744269 3.9916113436824205 1.4618148786334209 -0.7468023671167848 0.416270857783567 -0.6269992442135073
Ni 5.478273737174154 3.074984449024445 0.3784367006283664 -0.0962513037252665 -0.8650319748853554 -0.07329778025288668
Ni 1.2506800534979627 1.0814229398898325 6.8464034542021475 0.36173210330573835 0.0014945822676554904 0.8006345824458921
Ni 6.92494097182199 0.6965817441526374 9.489715483785401 -0.057480353604655844 0.5566710881119058 -1.8835613796026398
Ni 2.93090375185349 1.4605138094043326 9.394849183913342 -0.8304259547757119 0.3711567390537479 0.32332599272371415
Ni 6.311803011935198 2.0748147361998073 2.639096274539281 0.7824023757085815 -0.9195164790864808 -0.7839825757115079
Ni 3.8039739015097274 7.048942318460229 10.627609552770728 0.47292922970755974 0.05965113600372953 -0.9740791448237096
Ni 8.3661840561223 7.000688277428892 0.18114299884202115 -2.4162685006997804 -0.30970634505775047 0.4079988475827619
Ni 7.652867399867305 3.993728306883381 8.339854667023314 0.00017920589034162686 -0.3868276128217854 -0.8234466952444011
Ni 3.165505068643201 8.453997143406779 12.577746059248728 -0.19950732090314027 -0.7820385646112596 0.30073268080423043
Ni 9.189528284753399 5.047694324913545 10.10162778557859 -0.43656688902844165 -0.0449523963409742 1.0531680778370767
Ni 8.708296212212295 2.4558045126198897 5.6485902409506625 -0.4908205081656837 0.07764371592640822 0.14469911481400885
Ni 3.7747452722501134 2.6647660433447484 11.654426653458446 0.08276946718874777 -0.03760804016076104 0.04050901585763991
Ni 1.1360460418819995 3.3796181793463624 12.698277585086766 -0.14665829542290873 -1.2041000609346748 0.6665667220934843
Ni 3.028084174160246 8.486641987960647 8.117660753440607 0.004509200724263202 -0.15314364603693625 -0.5193417555338282
Ni 5.636491750828778 7.7219639884651805 3.7911785398105313 0.40189916244292717 0.4252733183924934 -0.09768983594400596
Ni 3.2775678331094995 8.338790734015449 3.794250407871667 -0.28586733365662376 0.11809591040418373 -0.8045963953071176
Ni 3.361673963372555 4.306938918156829 9.244756492965239 0.18266916629987895 0.5071611543072363 0.5450787552886162
Ni 7.257513164989202 6.245686526040819 11.247460012283572 0.2983099302953508 -1.760561861249252 1.3558599392502069
Ni 0.38006576286841887 -0.1469672173810205 0.3542133719155725 0.8360386729767989 1.3869021532679922 0.03332509651469099
Ni 4.6387569999691936 0.05374360826747605 1.6578774709187782 -0.20589394115577442 0.6639483106340307 0.38292776354674696
Ni 5.945613806563891 5.457267647386082 0.2296387189340688 0.7364346507292155 1.225204704123774 0.39244187368476935
Ni 7.652840142830382 -0.4465665729834002 11.414906350072167 2.31998557240563 0.9563493316441142 1.3110286418681292
Ni 0.10966687092083383 5.099400923955033 5.725903917612696 -1.664938163805655 -1.121004577865076 0.7406574305613115
Ni 7.919423049608854 8.664694038815687 2.7802795486854026 -1.4361932861936362 1.7241933499225466 -1.7491448776615617
P 8.419317106762717 1.6092191171730945 3.447497286961711 1.2260194867155854 0.5422590264516339 -0.509510114155387
P 2.036300543028683 3.205627426992737 1.5702588171643435 -1.025550059009492 0.3642314726888243 0.4557799716217828
P 4.678897529676677 1.1614041718986559 8.127661360287375 0.42497866997021 -0.5712970655551968 -0.2633827794008625
P 8.593898428249657 1.5080500817967173 12.29144450339281 -0.9448701273599212 -0.1944155082025297 0.4753365535974718
P 6.417823799883733 7.685748472074499 1.3367087134319333 -0.007690169555406111 -0.5046342741203245 0.31847097862425794
P 1.6097097438376948 3.2449320742346055 6.0794794748642875 0.22352708085650536 0.8330723912596233 0.541521376954661
P 6.914001814337198 3.8149948301052863 5.867126260178406 1.1153252680921113 1.6971219476270514 0.979242948412836
P 2.139041400867576 8.462719395221896 10.271932477972431 1.397217419151071 0.4256132182304154 -0.24976595994837633
