# total energy = -340858.63497445796 ev
CRYSTAL
PRIMVEC
9.35567854971703 0.00000000000000 0.00000000000000

0.00000000000000 9.35567854971703 0.00000000000000

0.00000000000000 0.00000000000000 13.69298124399157

PRIMCOORD
 96 1
Ni 3.311751112451938 7.097685429700475 9.471859100907638 -0.06886185596872013 1.9131025835948663 -0.12017541864103173
Ni 4.1983513331479045 2.637814817812152 11.845209472414265 0.6485656575303734 0.18341092956190994 -0.4165030283990311
Ni 4.746135660036974 5.467346197708826 1.8218097397338495 -0.9576677933452216 1.6815094379007751 -0.9580460026202469
Ni 0.772486204362103 7.0183773437747226 13.048151376228109 -1.4987489974386703 0.32970592810812893 -1.3926976769038466
Ni 4.962186341679462 0.3816705143556168 2.5293263709093554 -2.1585881710003343 0.9007926774247326 2.167447421163177
Ni 8.901114068051957 3.1396627636825314 6.030388700525264 -0.5972891187435843 -0.7622102170314228 -0.23413725227218388
Ni 6.2913475741286105 9.08964034379689 7.915145315772342 0.41200359786678076 -1.8363667241947084 0.41623100568456706
Ni 3.987811146091977 2.6566197314267277 4.5441802434948455 0.977697458302587 1.3096492450220996 -0.4596237708479052
Ni 0.9979982835858943 1.516471270000105 13.057818598734547 0.7362988964822996 -1.0940532460872123 -1.074891585557097
Ni 2.4298006639283316 7.130084144052353 3.1612987055855504 0.21718262669571625 0.9846867451362267 -1.3226605696801026
Ni 1.4147750456267518 1.9747404658124272 1.5540708059829997 1.6957338090302732 -2.0513119769194734 1.601886486760809
Ni 8.965069485698345 4.897014685839095 7.630399629798321 -2.5746320003747596 -0.5937132284668679 0.31036171925356226
Ni 8.89262846772936 8.009555337795929 6.159239781498769 -0.22747063888528565 -0.2987004808655501 4.172213689112627
Ni 6.949893777775372 1.9063972349893046 2.4088692046099784 0.3816568672541234 -0.9192560263362427 -0.784388810010991
Ni 5.460488485430476 6.629096920596173 11.529161557598629 0.2540756430673237 -1.3739409651216339 1.9773433958518076
Ni 4.319320255056594 8.734012295877859 13.072497658168013 -0.7824841367891104 0.5137336653184313 -0.30656882787003326
Ni 6.743254908618589 3.8207000182394633 11.60422590779524 -1.2435436116422776 0.3840657338059321 -0.9641798834321267
Ni 0.33029754860984695 5.705944064331973 3.2491251367083516 -0.4749480599098014 0.45459495017474616 0.12437325877246323
Ni 8.982527181621132 7.431739283194028 10.622056496520042 0.7147854478905561 -1.6089624197709838 1.775634439311658
Ni 1.2712215160237412 2.185121606335296 10.528094611492543 3.139998559378134 -0.5851262581288051 0.8559531525125388
Ni 1.3787089053361103 5.3489220203290735 1.146116448687687 0.5238874659229816 -0.8014565641265552 0.2080852923801384
Ni 2.19920190235019 0.2531880471116708 3.8876567375214512 -0.022562972902180494 -0.4002685688180397 0.5096474110641998
Ni 7.274610664210545 8.83596112356842 10.13809192994034 -3.046951364412462 -0.894633342691556 0.6127103383946608
Ni 2.1678229569455696 1.8307565750023167 5.61807927492767 -0.6076432082843988 2.602947559490001 0.33650161087372366
P 6.928057624354269 1.7135579914949577 10.132833103103149 0.1442298884870742 0.5140535105516953 0.3719113578315853
P 6.776869861164444 2.4936438134337373 13.433923420000953 1.0755716423432573 -0.3511514995764146 0.11150951543591765
P 4.223040968485649 9.16531842649754 8.01776120333391 -0.43594416784277823 -0.8876108886271359 -1.3625836311272854
P 1.3457394946009036 4.022024862056407 5.400292179371319 0.21266674110323375 0.27700268417714236 0.5510725109782058
P 4.2592474439525185 0.601891021867764 4.918149163379059 -0.003820916407986968 -0.5609293491676276 -0.549931198284911
P 8.964582990420753 9.036443956327997 11.971527035672931 1.4064075702907715 2.746633916768779 -1.3021318535991315
P 4.274946272333245 3.9410795324079944 7.130633322375326 1.3355358829808741 0.29238328039827066 -1.3343032961253536
P 2.2020086058747537 7.252213170084529 0.7776355697618358 1.9422231551099067 2.0630855725156336 2.120220626965729
Ni 8.448430212253516 5.648612467003556 5.274591155320215 -0.6286599197453818 -0.9280183459099051 0.2121232098949379
Ni 6.584751004908069 8.402549965305317 2.0325314269510324 2.4995958972745274 -1.066850974640808 -1.0077040319670063
Ni 6.658810555242886 7.394877910238094 5.382203910723349 -0.2215110788677411 -1.144510888517132 1.358929065093834
Ni 3.454902347883095 5.82547221176472 13.49335068929438 0.08341378564096602 -0.20963078249038736 -1.1099773735166367
Ni 6.998852042922176 4.776962620415097 9.215636071718075 -0.11432230229436441 0.5469929415921935 1.0248095812990414
Ni 5.249480514453787 2.8463622453656394 8.877118624052622 0.21248727810257595 0.46059513362223903 1.6096460761015698
Ni 0.13905438385313534 0.7700359521851591 5.343041976445114 -1.475340388706743 -0.7766454186201464 0.44529475581974287
Ni 1.2951533414098533 6.085625561456516 6.786227410715339 -0.5532137256909246 0.9676105063802303 -1.3324253623763502
Ni 2.214498436559061 -0.003909738009717035 6.812969681897381 0.9142608871144965 -2.9898952428294185 0.6038382327160117
Ni 3.057819288906258 2.6765473264511295 8.283226707229863 -2.199204916080432 0.6220976931468318 -1.3505518967737322
Ni 8.124957631047566 4.919842541172213 13.363760509726072 -0.5230839961850797 -0.23161834250507207 -2.72956384866037
Ni 0.176599656901222 2.20736940960667 3.5298862392453345 -1.6513025753000918 -0.02994178186475489 0.09647087593524031
Ni 1.7441136371990398 3.9001765063766882 3.327394742330014 0.0878373686299584 -2.2513741418848197 -2.6748170919367933
Ni 3.1284546609411072 4.934035105328089 9.48799016163115 0.12589766583678963 -1.3270751538080305 -2.4596908335494736
Ni 7.392117985105606 2.549216543220096 8.040600285481126 1.2675232623863266 -1.63404867331565 0.41424045761709943
Ni 6.908934617673575 4.116573348120538 1.5141426416425585 3.028632511498616 1.4453839515539688 -0.6326214754962911
Ni 8.106845037635715 7.082454385240509 8.587635222529137 0.737051201267292 0.7058842887461844 -0.9883256274403946
Ni 6.547824142203227 6.132188772929026 3.299105041938096 1.786207586841814 0.004364704726598934 -0.9581614451521886
Ni 9.227954693487384 3.492025679834655 1.2616674972261268 -1.691088854059094 -0.11765805153581672 2.0090841785985143
Ni 4.489799427138585 7.574581781237483 1.3821284057968701 0.2734386209749678 0.4710091298667114 -0.1758472582820391
Ni 2.77482872820293 3.135415285682025 0.09474121303948436 0.38006869683139705 0.7480663214308729 -0.38435729690442194
Ni 5.204199030924162 3.9187101053172224 0.19197010096957356 -1.9595901856334446 0.001745521936196994 -1.9780296232855548
Ni 2.8727826812101975 5.297063494873555 4.445960589220585 1.8983927881885176 1.1560823954048154 2.0074512709807815
Ni 0.7695120341939072 1.4049796503260252 7.822457674144997 -0.5762353833970786 1.2694539037501362 -0.26645653323017976
P 8.459170531074179 0.25035701882322775 2.957765921662616 -0.276256292929421 2.294299480493436 -1.118931497386131
P 2.862519501988711 0.9329089577155822 11.762311612680596 -0.4454274247428651 -0.07100358490207126 0.22430561089374274
P 4.8085754577800985 8.602546302787301 10.954042745083834 0.4151843095876075 0.007778101283522089 -0.45268333497433005
P 8.008011650857418 4.203384688135289 3.416632009757829 -0.03820350765291485 -0.5676712958771514 0.6660884969054852
P 0.6203535176523431 8.43917744630087 8.41662371234532 -0.17424726078477087 0.29056756734577055 -0.3017168990943707
P 6.472361240106128 6.487480016425112 0.23668743709076168 -1.0076238135483744 0.11532554674789816 0.5957176604914063
P 1.3573031131221056 4.103484754017657 8.346460802070439 0.6380421322912302 -1.9885217810661302 0.27395207027627655
P 1.2329474356271095 7.656153941339715 4.926214693740813 1.042735569649843 -0.09641276900379525 0.09379924264034813
Ni 0.9935169136250077 5.888445283177512 9.407351698234754 -0.750821515578507 0.8655986460221027 0.4437919460219712
Ni 6.482390527367236 0.07355621483607865 4.2128507635558 0.6943171527338752 0.47504190517518835 1.1141425606379198
Ni 5.348603927262957 3.8119805259564856 2.8828521978884907 -1.4394822413575532 -3.1729534170375997 3.1658427741347475
Ni 8.594930780557318 7.89085049006372 4.0391962742196865 -0.4925380050774227 -1.4129497422846633 -2.4344030055169625
Ni 7.848628313375869 8.305690626672629 13.408317863746358 -1.6421214230214558 -2.2875410787236796 1.5947408768549631
Ni 1.677922212411416 8.568716169637895 10.429026397186023 -0.5836409318325303 2.2394213403983176 0.03608568997896366
Ni 8.35875603464371 0.8891197048931833 0.7075737008138387 -0.2047361734022474 1.5021186852418518 -0.00875332071259783
Ni 5.097282337995121 1.4765786572376414 0.6502561370030432 -0.4654429486328436 0.8362919266381855 -1.3499852256369846
Ni 3.048950105768637 0.8032860332728221 9.360959695677243 0.01583208193625015 -0.9754320593071782 2.011980526309703
Ni 6.57951182499555 4.210813096796967 6.864359487864299 -0.247935848718173 0.5425241071875625 -0.4288821187896742
Ni 8.601255219166001 2.401293911797181 11.890081177229305 -1.0733347825929385 -0.5606850943673053 0.5706689450528946
Ni 2.3117881363988495 4.455174061323886 11.550864860386238 -0.566459020736605 -0.12233128864176997 1.5159864443628794
Ni 6.7966571210126165 2.525817991503651 4.54778124411686 0.3224608165099414 1.326432120907393 1.5763559465898722
Ni 8.921425245891381 3.109387788330906 9.631888915767679 -0.8504003410151095 3.207382288139431 -0.501262272324298
Ni 8.952448675516225 0.7732365297710031 9.716169544771114 1.0758074125031472 -0.557615454303046 0.6784717010611864
Ni 5.630556007662196 7.119989367042339 9.339845800629792 0.3930013457326651 0.17783806345982275 -1.2339156016342105
Ni 0.5597081390292569 8.623531089472621 1.580841144200287 -0.2012991226962404 -0.22748015196698246 0.1352541673510251
Ni 4.453396482424995 7.951147837449761 5.85473490271182 -0.9402382850148646 0.9283960409642978 0.3595510364940195
Ni 6.345311127227552 0.38186417689881164 12.185041392897055 0.06548085531162917 1.3635603932182583 -0.11106625725091193
Ni 3.4779453838197614 5.94008862802948 6.813942672452563 2.045246487451684 -0.12174944799637095 0.5967319606885336
Ni 8.500457139920508 6.454463827297829 1.1842651629935546 -0.28937637525114673 1.1675808829627181 2.0974108281600654
Ni 5.508408270273191 1.615875353161731 6.639274963144082 -0.9743951334022314 0.5472587936590704 -0.7496336659179929
Ni 2.8794065015281682 9.25103515213771 1.6652031676059353 -0.5168459856951679 0.28334970944109267 -1.079905750942237
Ni 5.435864339841637 5.0127537835136815 5.0893936299554134 -1.0357542532360033 -0.9676012504088497 0.3166670926462998
P 4.639490281781974 6.680693487056066 4.0391148798174745 -1.2157679841909061 0.5548054956580768 -0.21087802463392716
P 3.50194269895478 2.7119959919663668 2.203912486432249 0.11817407194028678 -0.5998481377200121 -0.214348756791347
P 1.940199301103465 6.698188605692512 11.249961917789143 0.7441968111731376 -1.9100154600291104 0.20560803448423942
P 4.7456772317946285 4.5401797554045 10.618454560330186 2.2891827280921606 -0.3451767700502184 1.4653061443991926
P 8.68975058129549 5.194394279945019 11.048812025158563 -1.0405791854284723 -0.5306468961340022 -0.8124462303688396
P 0.6942736683787736 4.009235649662813 13.16447333266796 2.101201919771381 -0.5987690457232203 -1.969872798506375
P 6.5115521769874505 6.2779221756027805 7.537493065296059 -0.5529116210694736 -0.2343506538345706 -1.6423988450525584
P 7.574787606162618 0.8349980408290241 6.767441208457593 2.246358948058415 0.7994999546208167 -2.491014840473736
