# total energy = -340890.1106533367 ev
CRYSTAL
PRIMVEC
9.07053374821063 0.00000000000000 0.00000000000000

0.00000000000000 9.07053374821063 0.00000000000000

0.00000000000000 0.00000000000000 13.27564300410960

PRIMCOORD
 96 1
Ni 6.584073810905108 1.8348510955557933 11.068367999663216 -0.7271424267940122 0.1472455353849464 1.6082057441106175
Ni 4.501134542038392 0.6676892584532788 5.980677403947026 0.771618140608884 -1.3650513759414877 -0.7229607846124968
Ni 2.5170368813238144 1.5763590198359052 4.606542309696938 1.3814624703096596 0.5369769521170882 0.5039207929930676
Ni 3.5287098118221647 4.593182320282669 4.7425114273001485 0.44930233431723915 0.1236842031252386 0.6682189129849266
Ni 3.685321650525919 3.0511008481394253 2.9771959518466855 -0.2783211458782497 -0.7354190649805077 -1.0344288495563603
Ni 4.989546511622682 4.872899445380919 2.2422296362377474 0.8773030789432246 -0.788579451053571 0.3829128511484115
Ni 5.238233340172481 4.629246763158038 11.35958293356147 0.22045666946129772 0.31269730936527435 -0.39909923110028683
Ni 5.895729132603793 8.169594070002614 12.33044390372948 0.05450918679147387 -0.9277378385550086 0.05822854462459004
Ni 1.700398571224405 6.7474794795167226 0.10528259429041732 0.3991552811492029 0.12534333599521638 0.9425625622726671
Ni 2.7768441844624467 1.4797578335625947 0.19885966455400766 0.3290469543678914 0.6326924379435426 0.8581992682342382
Ni 8.270739593771035 0.149386251381189 6.467561895618788 -0.9150535582191208 -1.01817639225324 -1.2109854752005984
Ni 8.533848571257412 2.5135447257636994 1.3705114159480987 0.7091842996536948 -0.7627408927239122 0.3343943347227338
Ni 6.606387324354154 0.9226184284484573 4.568586660498754 0.8292890129577911 0.14645003606684454 0.16186971305602443
Ni 0.7731051895923551 7.731342153009066 2.4381250503059224 -0.6186022783990636 -0.006183503102892576 -0.5249213065041346
Ni 7.668673834139366 3.5479393437376032 3.7616538216962874 0.266432879081096 1.037355279174536 0.5634158630349071
Ni 7.908979489344889 4.004604444593575 12.657250705685746 -1.412157328290355 -0.4618156362929014 -1.1573548343593358
Ni 8.654949269655063 7.27778824528847 8.798592058956602 -0.9858838507681215 1.1057725914066696 1.225710954336231
Ni 6.6573455839300655 1.0158907287722558 0.25840862680780224 0.5411071722353777 0.39082799223043013 0.060606815048779496
Ni 2.05559160909075 6.360158610497319 9.120791936733694 0.9940406755473009 0.7965688970169507 -0.8537276056161297
Ni 0.035446739515255475 5.044559299861896 1.2410948520504141 0.5787517220610291 -0.47424023520949943 -0.2670905672697529
Ni 6.400096171357543 2.3233174883436174 7.300236002639567 0.285425875243831 -0.33199395281135724 -2.107571313632835
Ni 3.3571588037482565 4.600012432326219 0.3791972988385223 0.8739143649766498 1.2653277973969048 -1.0761280290673596
Ni 5.965472467932947 5.731262211523261 4.428104045215769 -0.07161884988856698 -0.21716000098789695 0.42745438520421225
Ni 5.5895986127235835 3.021612542357779 9.323297955924497 -0.4412020738076079 0.5686645130283561 0.09344751572788422
P 0.30784122257797014 5.623758243475253 12.263959611238635 -0.18856547717965588 -0.2741713853759343 -0.43198338342281734
P 4.584420184513654 6.213315736827965 12.697807784012868 -0.2206009083486459 0.32081402493513783 -1.462296153928275
P 2.312714034188359 8.613678340308248 1.2032934019289094 0.5448481273350487 0.05985682425663239 -0.9814512689180646
P 6.346679797088667 8.11531599501111 5.609290741869062 -0.08986545480358071 -0.317421454313821 0.5523076689368875
P 4.73229709905016 1.3472373329566725 12.38213959771328 0.755790429548008 -0.7239920540904886 0.8610290243735494
P 4.1101945299839615 6.126329316512373 7.940241991561752 -0.035444713960855086 0.674809935938883 1.4353846742494119
P 4.607967290576144 1.1083466810430402 3.560541036515961 0.10770376853658226 0.38335842332626235 0.09059873342517945
P 0.3785469415562879 5.7852681704970905 3.274238703790066 -1.3711618597146 -0.336522179699014 1.320793948785009
Ni 0.7899065395767731 9.075069189337778 4.43429014935083 -0.887125207239969 -0.9879828993889954 0.6169516301695182
Ni 1.933447799292027 6.628782472608502 4.608719237838309 0.7791609859531484 0.007368267439613116 -0.4418399645019229
Ni 6.0706725203646705 5.772306377522014 9.108352606512549 0.5908652174951114 -0.2988215798244466 -0.4517248277158027
Ni 8.494065209473868 2.321911555585649 9.938119607411204 1.593722720003094 0.5149228005305261 -0.38087628033435694
Ni 2.361413730817599 5.383851691762315 6.749575679906183 -0.3344843233333788 -0.36506656699561 0.538210310303557
Ni 1.2292841098300875 0.04447827014176585 9.156994251724685 -0.3932085766474648 -0.14698585396565653 -0.718012439468286
Ni 1.6157342075929422 0.9704020011515371 11.37040226642408 -0.12870659604049445 0.4781570537654023 -0.12730637325885816
Ni 4.092570482572783 6.831436341502239 1.409754173909869 -0.46104173424135436 1.4857320163537122 -0.7014385942700049
Ni 5.7132390606194985 7.8619034182877545 7.741771452913015 0.38490854142220166 -0.07494611448958705 0.455070604259584
Ni 5.286706273453662 2.8946794906480413 5.013427413333515 -0.06905211760265527 0.42321206498809044 -0.01707186788062221
Ni 0.9687058113080528 7.55793168548107 6.681086799418494 -0.19469781532963887 -0.10943772050855347 0.2619445042924392
Ni 5.296983188387713 4.575086605107528 7.043047362644324 -0.40591779668401706 -0.5470495058617417 -0.1959849095721786
Ni 1.0047521131155772 7.4075422330480665 10.993108872655865 -0.3933800692283225 -0.3758124926582044 0.8732355937420703
Ni 4.870359695882653 0.2558335022272395 10.38732782232959 0.04687532439529992 0.355577139447936 -0.21471179655772052
Ni 7.933179673849789 7.405909536942039 4.356442291962033 1.0766782451438748 0.4208582200439332 0.9958085660810012
Ni 7.550330578054118 6.40420512322438 6.759957813033735 -1.4335172820233697 0.4536359286955865 0.12922467332749357
Ni 2.246081891994581 5.624084782696459 2.31556399594677 0.4719784357585162 -0.9241701758084083 0.2054036317829172
Ni 2.4281456488845237 5.232945218895735 11.487121896937222 -0.00824989871361805 0.7462788905131471 -0.7729214328013398
Ni 1.4070665747086688 3.715281624071529 3.913699553623517 -0.9984987113186545 -0.09163591644044218 -0.6753313556599918
Ni 1.5583540099999877 1.3058122045331788 2.3775747011070973 -0.7053374151037789 1.4471220172909982 0.036604024376278896
Ni 1.1985803525028427 3.3155794762480824 8.054412802042705 0.27583488912128623 -0.6315264426598995 -0.016933285420228903
Ni 3.7141205957294647 2.4936530448719276 7.083578136423072 0.2769564043202391 1.5360179090924577 0.5388132339948785
Ni 4.412334014938326 6.860942788351731 5.906943940745419 -0.195725742373521 0.2735280953649805 -1.237938092530042
Ni 0.44160892159821896 0.3596249007408181 0.3369812198569972 -0.2675903897243069 0.2857328649612885 -0.020436156367164802
P 0.32862272284752714 5.608429041146437 7.771150005234199 1.202459182897142 0.21310537130254914 -0.9022929161193428
P 8.926811312376532 1.3968712945799173 7.95311942857135 0.6240784710222865 1.5134469657704774 0.4110052385092534
P 1.956042499292667 3.3929964832755664 10.348921367595464 -0.6194350587130042 -1.270097450871406 -0.36636008899605293
P 3.971506066310823 6.3779096453834105 3.5998500093753645 0.0891548018898013 -0.021312131214214908 -0.07793682168679482
P 7.2351295242515326 4.157506434923078 10.387433947576483 -0.8934470356929387 -0.5783120634204492 -1.0333158189978398
P 6.664783421746415 7.976981282160946 10.068672709209363 0.1708379779929058 -1.4454533713393236 0.18207164192519612
P 2.697313743031049 8.479343732917851 5.429140867636741 -0.6076462936081922 0.5534381829969048 1.3595677271190973
P 7.042816064029303 4.0033889930479765 1.684917890979085 -0.8507736651941284 1.3747943142608645 -0.7052304572122693
Ni 5.400641250052633 3.4297502867290364 13.4852652794306 0.660269833341179 -1.0217052313421047 0.043589197444860416
Ni 1.7447625526387491 0.919625152254073 6.872242859512228 -0.322769863109928 0.730996767543096 0.055317541625382154
Ni 7.1139744026503475 0.5193642595410077 8.721035365706713 0.20022388735419067 -0.023835668967017012 1.2818450783256377
Ni 3.3029260814263672 1.7542866132572443 9.448103060376047 -0.9217528246161674 0.23285041513996027 -0.23074416743023488
Ni 6.153658835220494 2.1466234875357215 2.4298672362229907 -0.4233151662248581 -0.07018211744204042 -0.1979176078185172
Ni 4.4921275018534725 7.007041878239451 10.398254187492485 0.43863328463916723 -1.9687867645310477 0.578349601526604
Ni 8.360419962661572 7.506438264403739 12.969068450335287 0.16767886353863382 -0.8594393112889263 0.8151268625247962
Ni 7.894765962688525 4.064968847846991 8.027383518007417 -0.9513359375899229 -0.043498694613583154 -0.4451147785984528
Ni 3.2830162594667502 8.314894952905163 12.551695995377658 1.4404014107377128 -0.24518502544591322 -0.9496755191683645
Ni 0.3326101295598039 4.8003805266715185 9.801115541887452 -0.5763258862283558 0.3254222131311105 2.0113814592731227
Ni -0.13194724286202777 2.505589867513775 5.7002827099647755 -0.02597996900352945 0.4056822836344432 1.231587467721666
Ni 3.5062693108982055 3.000931725014761 11.794281015364229 0.2928432507538247 -0.1099856225922235 -0.624039647364551
Ni 1.1137617897946992 3.3638437872490483 12.634336722891039 0.4112633772666465 -0.49383795483576887 -0.13713390087224123
Ni 3.309556641723624 8.251691472534043 7.5869501376055375 -0.6657341988898599 -0.044345101774278466 1.3716249153939475
Ni 5.625626773463263 7.897813662086444 3.3869881616053843 -0.17718577458780452 0.2154023948668419 -0.02656849451714779
Ni 3.0513457525553296 8.647166751549662 3.1878799644219034 1.0542582255774617 -1.0636959739515939 0.9172827046599556
Ni 3.4494786980102052 4.34269952601624 9.090682299378365 0.9588512721303617 -0.18190374888876415 -0.16568805836085013
Ni 7.365210051232334 6.16753675212173 11.176458831256001 0.6637796462666504 0.06407163366892836 0.16268732386131338
Ni 7.796749773123324 0.08666169520117042 2.4792925755660207 0.35097897855429233 0.5110610035822747 0.04282686535753915
Ni 4.832245312340827 0.06825395365909936 1.457771766388146 -0.3915216758633451 0.7022790878934293 -0.4221666544427117
Ni 6.612990673049644 5.828307853958767 13.634483725934224 -1.1156101463223818 -0.6491937780326755 -1.2912483739174083
Ni 8.341217642347901 -0.0885737637520074 11.246009871265999 -0.6154961286699142 1.1650894839994321 -0.9999254164628522
Ni 9.124140777857837 5.340068224519003 5.483371775851846 0.17541994093663335 -1.3139666414505307 -0.5663492346316181
Ni 7.353527203540314 6.138882935460942 2.5372678001842828 0.22049600733966546 -0.48800077932870156 0.21545561670228053
P 8.737509269416533 1.668216316867813 3.7402927143090903 -0.09137186414577812 0.055939491480097206 -1.2323001775179745
P 2.0868849511229492 3.4485444330162003 1.4118512813527222 -1.9381942364561713 -1.9204423117893894 1.6680790234274823
P 4.957418680469624 0.8859226764120905 8.220410829249335 -0.12561073072399015 0.7988911173922241 -0.3085940858301782
P 8.33487733913616 1.8302432643232258 12.404946548207704 1.4553300070230872 -0.13795999631796238 -0.23572079470921983
P 6.817993810229278 7.783016984764846 1.1691074666288643 -1.1905516328262786 1.464763384521845 0.33529164972602254
P 2.0193638966047778 3.248974545656071 6.028402925233003 0.007272365291697153 0.15623642602964705 -0.9588265895400132
P 6.968510250137195 4.455319275196468 5.746481660391616 1.2398142265068326 -1.8543626465514966 0.6013146949632096
P 2.8671685612614732 8.24186808429611 10.280498702005408 -1.5541557563437491 1.5600831775717778 -0.00525867729577804
