# total energy = -340870.9383038442 ev
CRYSTAL
PRIMVEC
9.27936412699907 0.00000000000000 0.00000000000000
0.00000000000000 9.27936412699907 0.00000000000000
0.00000000000000 0.00000000000000 13.58128737236452
PRIMCOORD
 96 1
Ni 6.807731297550935 4.098899305406171 7.868169612831526 -0.32182909646321345 0.006394590672434149 0.655243326660865
Ni 0.018689567399899867 0.5930599398203567 7.416551309498788 -0.1641474533466076 0.4621809900521201 -0.05063761965120957
Ni 2.2090454372772763 5.745002835190113 11.608971758881498 -0.4582230338456367 0.819925312354704 -0.24209275967383465
Ni 3.136341579395043 5.215772857771668 9.028187568963386 0.35648088220912794 1.1816820982507907 1.6043578311194369
Ni 1.9367703334354303 1.4616112111082011 11.530459058533676 3.1824515863360228 0.7879855262233139 0.8797947350168266
Ni 4.963810282125235 1.0206929426142624 10.688758555444206 0.8336984548793965 -0.7328721301889378 -0.03670352606862066
Ni 6.565697641579738 1.7458474153812427 6.716734140632025 0.49735342418819506 -0.47757392756842276 -0.009435434381286977
Ni 4.07237888257269 6.14173277144716 1.978386425920943 -0.4779783620956929 -0.9421478433327515 -0.027020237342585723
Ni 0.10735482009975748 4.971642065495234 3.3702103228220905 -0.19250029345768782 0.5984047204052663 0.7961564920698805
Ni 0.5452155380955745 3.505975772239297 5.920328069989997 -0.5082412747452925 -0.19541952398701185 -0.24575555323740256
Ni 8.96080361007959 2.5690476501001327 3.8585118086409427 -0.3723890687989522 -0.475531186106781 -1.1086000335531359
Ni 1.2279104241728562 0.9323533955972092 4.87132285931862 0.1188505291820211 -0.17500753598956312 0.25153179359954747
Ni 9.260601308086624 2.1181726238384107 11.273133938326197 -2.9093361530284283 0.862577856917908 0.6275445751940161
Ni 4.1602915788373505 2.345414973302761 12.656265854797631 -0.9742655498029027 0.6072554859276768 0.1564138321477758
Ni 2.0458028625793774 5.323348526738968 0.6342436139349665 0.014932967160748475 -0.10140148046763826 -0.11113284882278925
Ni 8.848755287576344 5.657776811874956 13.453514491707423 0.2330843855276373 0.24042617060468915 -0.26752662636590696
Ni 7.375155137944399 8.443840952110364 12.981049168802365 0.4469340911953787 1.5599649068263586 -0.7157835501377673
Ni 2.2077092088350017 5.177718185259385 5.27838072791075 -0.9079493430741719 0.8093228542485095 -0.1957393692202758
Ni 7.376621277485229 5.640192416749186 9.631916921720741 0.11580788570095538 0.2692369241887944 0.20113200099075682
Ni 4.032848791155395 1.8527364113990403 3.2323189710706814 0.8674691235719383 -0.4605323987051037 0.1385220394690195
Ni 2.435675348705584 4.037571987524269 7.324849848838428 -0.7667736680323891 -1.403965536508182 0.15990024803447944
Ni 5.311999864343815 6.16986780364839 8.483714380002409 0.777800615270512 0.04434947264965265 -1.137574566408615
Ni 1.339281353090784 4.021555804945337 10.013917723210964 0.373550436096905 0.1552871747425003 1.0946811094791986
Ni 7.42924455176398 5.420772571290653 1.9194977249461929 -0.316619527237816 -1.4157956963738907 0.4741011385284738
P 8.609078590107492 0.35228178182304676 9.887054895790412 -0.10289169185991959 -0.6576933308632544 -0.0848129799813378
P 8.4607015568299 4.469257288656657 11.574000619087048 0.6024215548741431 0.28319955701647354 -0.6767452052883828
P 2.616892051824915 1.6395986954920347 1.6673477061432738 -0.18328443128637467 0.48947376432980216 -0.5492089754069058
P 2.9804853785863847 8.843410373807243 4.572425259637287 -0.11630128039760616 -0.5695661989070191 -0.31332645830884104
P 3.5223538500213447 6.208247253907059 6.952234196282349 -1.4127839061307603 1.1947129632928197 0.7479395660450215
P 5.555007853554171 0.3687526532469196 1.757920796119046 -0.19258179742790058 0.7825018774009233 -0.7265330753447874
P 2.4959912158915976 1.7774343710583485 6.850577833727042 -0.6547327055730336 0.6819802284350771 0.29740258798973296
P 2.9877232826487066 0.727233050343852 9.831086410723884 0.7672027851500077 -0.920054610978138 -0.887093325560769
Ni 0.21700999458034767 4.961239898246693 8.008477311016048 -0.432330739459907 0.47563583000544535 -0.24702130732370364
Ni 1.1391347470392272 3.084219390782145 0.6129354099627754 -0.22170545426673433 -1.2314527419160148 -0.24492894357104913
Ni 5.025583009487895 4.999016189833502 6.13095942963132 -1.1951217686954643 0.2186340144302622 0.404256092710878
Ni 6.990349184661818 1.6382253495930301 9.095782169414125 -0.7409461654463239 -0.9182293848439411 -0.13964278333702404
Ni 4.826243708120213 0.3686385170674753 7.973791047701998 0.40063315124631 -0.14537814315890446 0.73892682102345
Ni 4.52565726415767 4.339717364669466 3.8284151188515407 -0.19547120316055366 0.5090470584760395 -1.8292555670712236
Ni 2.8800733787679467 8.300892346879511 11.485096886727701 0.014136439401382105 0.17648077810097992 0.177326671041043
Ni 6.621206798119235 5.520284472783392 11.963185504327335 -0.6435329802024724 1.026883947329567 1.1486233680236089
Ni 8.3852974434832 3.412783117754815 9.600489571107572 0.8474435723796309 0.6911603522724484 -1.5601389705103776
Ni 7.7208207331053496 7.104039954625361 3.982291103343661 0.033967615194696335 0.05219082307094237 -0.8259337233323131
Ni 4.436120679161079 6.554627360110059 10.698279183095414 0.18771392781263802 -0.7052319998741662 -0.3722067775848171
Ni 8.669682117583163 8.193771366757153 5.995078916098251 -0.5491441836072414 0.5925549464927085 -1.2599649904230945
Ni 2.397481485730564 8.868845111031378 6.858074632050054 0.9004622906685071 1.6534710437063203 -0.7175370424937642
Ni 6.563229330707202 3.0563812982347542 3.329873854657339 0.8501784548122907 0.08410464106040354 -1.5016450880395427
Ni 6.6820887065203785 3.1010057605882215 11.069727491637341 -1.6179952193972136 0.12849062337494646 0.3100943245247885
Ni 7.981134736516001 3.0443923597110114 13.207680008167092 -0.6708257544801544 1.445844436130155 0.5313966298158331
Ni 6.943785335194216 6.462882286438041 6.428634937049823 0.7090680857908046 0.30070105623534665 0.5820615031605524
Ni 2.3631200001629016 0.3249429190686727 13.524775368946653 -1.2318538340091751 0.10428831509713006 -0.10968300375014013
Ni 1.454846554619185 8.595818378690751 9.281873322538504 -1.5450586791384875 0.9421601846279258 -0.3004146353431794
Ni 3.5274760590500644 7.745875016398001 8.768473012478925 0.30473717397793326 -0.2537665964673372 -0.3773415277082211
Ni 5.817205567893862 2.7437316808350096 0.9499294392952135 1.1512978295319785 -0.5988484928109041 0.020091885653868623
Ni 7.024627155951839 4.233134587669689 5.616350946355182 2.2144549002609666 -1.4619421130229662 -1.9987468012282479
Ni 9.007636561108486 1.1432640641004235 13.50968712278597 0.2471981992212001 -1.1041103732128985 0.6150320445493022
Ni 6.209936098188267 0.4429504492498983 3.7947746398808557 0.7197895859733668 1.1735221881478177 1.875269057686861
P 8.647922008575284 3.4964458652239068 1.7409441993472288 -0.996481937998942 0.060211893603205974 1.3201015507036749
P 2.1868120806960936 5.667213925248521 3.0757000065262257 0.7797942486617732 -1.1688386666292192 0.17995562402345783
P 8.246209053752255 7.474509290246037 1.417397824588017 2.6364636889695756 0.33920358318591903 0.21393069541732188
P 8.47659710767446 0.3627646795399759 3.8687924162186946 0.86315352691572 -0.37070679600052286 0.5435399500465865
P 5.479056257720707 5.0922366824105305 0.5249837403685492 -0.3433965382213441 -0.8643987121767306 -0.4186018199095888
P 2.2551453185357553 7.336729290864818 13.545554649160445 -0.6104439109579874 0.8518126479816039 -0.35461169021087313
P 6.728661835352163 8.799184924113623 6.849233253857004 -0.3469803989178605 -0.5408410630581848 1.1983400185224458
P 0.8933522279383148 6.64785713205127 9.681000118563881 -0.5334391141671587 -2.3869635810880765 0.07618358644111396
Ni 0.7153833022828461 0.5492873230988395 2.0071236888576145 0.44563542698861314 -0.5404530835911465 0.8490808508727378
Ni 3.7521294659075073 3.7006197153306526 1.3072397085687373 -0.26285955990754084 -0.16355867072267313 -0.38610204750967053
Ni 4.303917577653521 0.8581453922936298 5.68080819377583 0.2473601787203611 0.30668709861545246 -0.1316062861857927
Ni 6.398047368895169 8.412356069439264 9.559325383657745 -0.2668110883561211 -0.259842627458088 0.8588232749714823
Ni 4.391820994553998 4.494079587844746 11.856137831182018 -0.08139701232125336 0.2847733292614966 -0.043896444272634075
Ni 3.5600280686021466 8.88787708696961 1.7914666255750697 -0.7242175398377334 -0.6108414035067221 0.43902100699588903
Ni 8.424094465130082 7.369838062267847 11.048201222606862 -0.5027182880445342 -1.2221754303791468 -1.2254803263826637
Ni 3.6975760838788045 6.776933087829339 4.376787496641989 -1.779863132681025 -0.724924593207087 -0.8391214256671806
Ni 7.63543202389832 0.9769592992223116 1.8880026349744932 -0.22871428148439965 0.7509778386507131 -0.1315774898303863
Ni 3.4537607899845737 3.1540094887984536 5.372865997825849 -0.9432030240701433 -1.4693857137852049 0.42471307501364913
Ni 1.0048809060473445 7.468691128903632 4.369548664643249 0.7737724679477255 0.24127849130265544 0.2587252260241931
Ni 4.539928926270299 2.928687967719873 7.8548602207846185 1.0539265532696558 -0.29308750555414687 -2.512891843052485
Ni 3.647866529953347 2.81172158219992 9.80130243550743 -1.6139287626373235 0.6567425369142108 2.186274838282325
Ni 1.0228735931971413 1.7508861101323203 9.192209610252613 0.8740902284328816 0.6271864205236488 -0.58325243814486
Ni 1.215652384087822 7.046944026810664 7.006518476749761 -0.010378000800214384 -2.0401464472209576 0.8927883190630174
Ni 5.309800655032571 7.794313297430461 2.9150872036376367 0.9217829065231544 0.2294555305257984 1.251983771989831
Ni 4.398780517690846 7.1252061843255605 13.436537894935608 -1.6597190814985607 -0.9840023174746925 -1.4775291688279457
Ni 1.1396822295259925 7.14889640108339 2.0025062772404207 -1.1081338925499946 1.062154340496087 -1.3428666123143325
Ni 0.2867072989548315 9.061735254292248 11.880678965635378 1.0748766731587616 -0.3406341449848585 -0.7226527664537747
Ni 6.320787382711978 7.183786810409453 0.9349729601059186 -1.3941310669162637 -0.43793317324834896 0.19810529834929108
Ni 8.334103191288548 7.733264360474033 8.340376969412313 0.3525152126931606 -0.3067786298879942 0.621648264314239
Ni 1.9395541426901697 3.3686782997955658 2.8910350916766907 -0.09113737953746885 0.24022742433032176 1.4504788495783727
Ni 4.838770849766538 0.23359407424724657 13.024617639511867 -0.02097171715566066 -1.4781544611167703 1.6019430510303572
Ni 5.182868232380652 7.867221261812078 5.564524769459706 0.8893091022651652 0.9823902357925661 0.9177707000399679
P 5.510281318194697 7.911567343240071 11.764151494041256 1.8197358005062467 0.8925502349102822 -1.1602673800204404
P 6.410138380424919 1.55298511021292 12.598056403281035 0.6163584766702095 0.9537152364553769 0.17067059917710606
P 5.307694239363152 4.246738135561181 9.51164151493332 0.038062354089360255 0.3950998801329067 1.0057559071017002
P 9.025156000684976 5.904515105486662 5.707454815962192 0.2672422623562688 -0.5375413092609904 -0.13166773555134742
P 8.44295941251303 2.654510594220622 7.424889746153149 0.8750729040611253 0.6920859494105113 0.24422703240801805
P 5.576480302272392 2.578030074628758 5.064842143471062 -1.1604206177688532 0.6061753654896206 -0.4407960966184409
P 5.799444864848626 6.010272019074199 4.1149266232221215 0.9041510523740041 0.06489490090117211 0.6684318003266811
P 2.249030217539512 3.747220682254984 12.52454064054547 1.5537382091903564 0.038074695384534424 -1.2871873164741574
