# total energy = -340858.27270971274 ev
CRYSTAL
PRIMVEC
9.42568133202042 0.00000000000000 0.00000000000000

0.00000000000000 9.42568133202042 0.00000000000000

0.00000000000000 0.00000000000000 13.79543739188352

PRIMCOORD
 96 1
Ni 9.41306959001554 4.48805693159956 3.217330899469748 0.3690705459486805 0.2530646853043061 -0.4953901298142372
Ni 9.279017552680385 1.9752080393619629 6.411829028918355 -1.02509060287457 0.2649629794037888 1.9386308097729579
Ni 5.721105688462896 3.796749198912715 1.0931198073302852 -0.16178666642391493 0.14487266427739565 -0.1417755134093107
Ni 4.654184561892917 6.183303389402756 7.07755546296031 -0.6255951647771291 0.10570962092468891 0.6666366560994712
Ni 0.32820975823653364 4.455396946409973 5.5210993324070765 0.5276024528807236 -0.18069533040295976 -0.04916206354694759
Ni 5.073712204260406 5.418569600546535 9.701889426720392 -1.4478128727104356 -0.8590937550240495 -1.8833644331004855
Ni 5.8245148363748624 8.566417206272536 5.884540401651298 1.528587935176974 -0.5276042526529365 0.5720177457713052
Ni 6.625490369258201 5.0257166358374965 7.672373440268429 0.22366000688994386 -0.25545992500936004 1.3271504871306563
Ni 5.328460088739188 5.900655488715841 2.101762889909298 0.0258886948413038 1.359695253835897 0.29997497670259954
Ni 1.1242198422893168 7.736570812022472 6.161028619705776 -0.28902182012520544 -0.7137618917220482 0.8019113922757867
Ni 2.0554111602791925 2.9822666649394263 6.729842085285308 -1.4076715246048594 -0.26225560777495477 -0.5356476917827033
Ni 6.24753940644952 0.587081378219052 1.343507371708432 -0.34344693184330527 -0.4171478610718816 0.12526080358373912
Ni 1.2047999904526019 2.380681991132721 2.3410168397114157 -0.9669654165970637 -2.323373000820624 -0.24906353456471297
Ni 8.52780961627642 0.7327948682747147 2.7654750558892003 0.1615426687339089 -0.9222323353557471 1.4387127101813804
Ni 8.48453631411036 8.134900097480472 12.033125237101002 -0.285377795614715 -0.3291343718753751 0.29829604633827983
Ni 0.5300531795487602 8.9354703260743 8.400966339885851 1.1037794722360408 -0.5513663880695407 -1.4805959806787274
Ni 0.7611972732882167 2.1288372164485683 8.794687409828933 0.7057655037801329 -2.482608104467279 0.9966873691415287
Ni 0.5959971300201576 3.9464949953649455 0.8534379316038941 -0.33287095609967193 1.0595071326812269 -0.9199247702684931
Ni 4.143312643487247 3.62529605876882 6.712086929700423 2.95799787990019 1.9327422122026652 1.8729301251410388
Ni 5.392865768046678 4.5695230937910765 12.118491746152966 -0.846212271075691 -1.3980743678347276 -1.0022106129526032
Ni 5.06658638930995 0.5913446138038285 7.8942322955056445 -1.1586583836621078 -0.6626139080933233 -0.1346844108904842
Ni 3.6737063571623905 4.380745551690915 13.619310908573853 -1.0504108268069134 -0.7751750047222069 0.7309641145329476
Ni 3.027623042639944 3.253594322563514 9.267057305867379 0.33443984324868853 -1.0120337696906119 -0.6414259611617986
Ni 4.127552904602113 0.31007569026936266 10.984299533205473 0.8789408716569637 2.0813530033662544 -0.37290534631373845
P 0.533346512543058 1.9974243698358036 4.489476439180961 0.3312964125237004 -0.3922094459589891 -2.23761411198625
P 2.3327806795213255 9.125426078318386 12.84911116721794 0.2747714808537784 1.150542953643825 0.007622035321632035
P 8.321622841089628 7.207224558560067 6.142859676718346 -0.6291237467556778 0.29615791694935445 -0.07430719535400751
P 3.0047657658478086 3.0032199541389795 1.3709521275169523 -0.0019933762809449538 0.33955839542217653 -0.6585777903507367
P 6.7187292072078115 5.632730501987406 13.191486781656907 1.1901448843061633 0.6170663013705115 2.391921439313984
P 2.5337644787125453 1.2078539111456545 7.782212787861877 -0.02439642656649347 -0.3716020541212826 -0.4545065042259979
P 6.92476517149618 4.781977946943544 10.61512010927628 1.1838950467417095 -0.45729949359010275 -0.8421476140880142
P 7.355518800114981 0.09467248405273766 13.347044453107086 0.8947300161704203 0.96409066615243 -1.1476543192421202
Ni 6.934181426966425 8.215131495441156 2.827292443152517 -1.6534075374582364 -0.8435123556460248 1.1636504375600605
Ni 9.026899433242843 0.3517475692078 10.161360278103151 -0.3442789408262974 -1.5050690261194273 -0.3561024158237867
Ni 3.5664138286160485 2.4607625781949825 11.505256930443135 0.12314247168915565 1.1869610872615428 0.36810818203541124
Ni 6.004036359584353 6.8806529837076456 11.187989445455258 1.844357455709669 -1.7369820170467827 1.850082531118904
Ni 6.388632427604769 9.007020671694548 11.348126112808787 1.3065847471641625 3.025479053471299 -1.2010260499950414
Ni 5.715384300003999 2.952038505486899 8.690739112955105 -2.130729239806537 0.46888102778011503 0.13750979615442124
Ni 4.313238823284617 4.256486797072061 3.435712620930214 1.0465284610333718 -1.5889127002089602 0.38413978157697715
Ni 1.5591490476581875 4.420795270903198 12.415010479222277 0.7898948274308848 -2.5120212675220737 -1.984325483596595
Ni 1.5828829127974027 2.119383258253718 13.2718868993102 0.0801356291103265 -0.4661764843647584 0.09866814069687524
Ni 8.368798375252366 1.8381303583772093 11.452503278175003 -0.2672000962644237 2.3131698350353775 1.776200082007141
Ni 1.2070433025666343 9.310084597755386 2.7804562335112295 1.5017237637962784 -0.48270250704423967 0.718532316527498
Ni 4.228304010429386 1.5501946505643611 -0.014158315657512095 -0.6954780058111958 1.2141021664527092 -0.5924032514061927
Ni 0.7381213206933687 4.290956513042716 8.463266322024118 -0.1827442425121885 2.100420561520667 -0.24171583595039015
Ni 7.885260932185745 2.8788669427086107 9.10053285439755 1.9251811120259557 1.5129718259062719 -0.04323875608397715
Ni 0.3057511877571021 9.450659206447309 0.17695962307254084 -2.0861877057507363 2.3798737641208305 -0.3392645183308415
Ni 3.8197667122844243 0.10747067392010329 3.5391783229290894 -2.298939807478925 -1.0731398929733131 1.688099689523783
Ni 1.5461039049446552 7.760596873277381 0.5656916799821888 0.9725843054457378 -2.5253645215981995 0.6411765641551538
Ni 9.125152733564995 5.499809546390418 10.708046014611666 -0.5693299145264968 0.2655556186824652 -0.9961410097197555
Ni 6.4828138336695185 2.377392428410883 12.915536769996173 -0.41483643932988556 -0.7861394741535106 0.02220301845960047
Ni 3.729732605926289 7.6844656466175545 11.426498766446414 -1.6000041821364317 -0.34547193269313403 0.8084170546047883
Ni 8.92088879733309 7.848915505665962 2.0044908029950053 1.5325160665867865 -0.2594410211442951 -0.2891377768777795
Ni 3.014219724042659 6.0107380188829955 2.865615377577863 -1.6174755994483174 1.425079692778978 0.34148672279314096
Ni 8.83405942256643 6.416240247697208 8.108888987775078 -0.0030254170898851122 0.37092174022480634 0.22465810913715503
Ni 2.1092129482913613 3.628500790360295 3.9673191527327245 0.4354949961205016 0.7151546583045167 1.228002064363253
P 5.660319470717543 1.963190295893933 10.649415450145636 -1.3682048339688047 0.7777751613492153 1.9199355473563
P 2.798908889501318 6.094579452724664 12.197331913575704 -1.2778665532938636 -1.6388471231455584 1.1082418788827688
P 5.193267543984714 7.970487941156669 1.3159042644565684 -0.11358388146644309 -0.5135639725097865 1.7216716119419573
P 2.7496502798041216 7.805246324891544 4.491091058362194 -0.2810017780342064 -0.8832320428331499 0.3366880158529169
P 0.5297911456127513 3.471195597624645 10.632336115899307 0.021362267725859984 -0.7215099110985832 -0.23279025132598619
P 8.633396096534357 2.309800868874222 0.020461268643450672 1.290055896271204 -0.16647044505282943 -0.9529467337204687
P 5.816060000382061 0.2788173038669877 3.8991563969182885 1.9595562470717158 0.22329850978546703 -0.1742907124281966
P 7.857860477078637 8.019077327492116 9.809273384373899 1.1944350270410846 -0.403874283891427 0.42806630775659826
Ni 0.944095075486137 7.512286729025002 10.980312470078433 1.6696096011393957 0.4028412146412223 -0.29265581733336693
Ni 1.7194139042753753 0.5849332654846489 10.937547212126432 0.6890651603063165 0.24288131701340104 0.5089349583782073
Ni 4.465048843909002 1.8098438892418696 2.3238272249956147 0.6137994576937815 1.2940400777299326 0.37894383919833446
Ni 3.3241549716628658 8.288519848885926 6.689890393157 1.387575525185933 -0.1583035929713209 -0.43996331630450036
Ni 6.555146510825332 7.478137486213493 8.204546455508138 -0.9615329327275828 0.5017343268647102 -0.2286965408725868
Ni 3.002824075530621 9.022912370115803 8.958122123017334 -0.06496072114210102 -1.335973227628609 1.3206669362888417
Ni 3.3175758462191913 9.060728202895204 1.2939000118086343 0.3182629763785099 0.29187445908265214 -0.3955922463882929
Ni 2.2658394919841105 5.515248812116406 10.035021275654183 -0.21438629489750174 0.42098806075357814 1.6440806036303557
Ni 7.129660628365228 6.013414912329993 4.371911803315827 0.6481098009398774 -0.6486006245333669 -0.29902701096703344
Ni 7.559697905216524 2.400174299753808 1.853251036080279 -0.11648845670774777 1.3562741439694899 -0.81871355143479
Ni 4.564018495998662 6.593433627662303 13.544028935785768 0.09889979709170708 -0.5600279203992807 -0.03808189447338603
Ni 5.218801714223846 8.884647053305972 13.209144852725931 -1.2574993024914214 0.12841117628726273 -0.08090953116187356
Ni 7.280056796816905 7.52631214257828 0.366465770325705 -0.7792478892399999 -0.34572827167831427 -0.3907305474206174
Ni 1.9011881652800493 0.3905323620095647 5.547779665474218 -0.1353133027237347 1.7403046536621125 -0.39090126867052677
Ni 8.802106363463196 9.202933454426317 5.270035946690375 -0.4513887845326226 0.16039569961365924 0.17105806442351187
Ni 5.024887175896174 6.798281956125595 4.766599005576928 -2.077657042571906 -0.9882171268869884 -0.8265695571440991
Ni 0.03442635783735915 6.7702122776567375 4.379030077721361 0.39701200955395494 -0.3358806894602731 -1.5459701352091633
Ni 7.658865496610362 5.52224266753074 1.665122923411449 0.9241490927624858 0.08453607217086732 -0.7153886286921938
Ni 5.353796319674141 1.3305385770122262 5.727934594457083 0.288355133075484 2.0420678326133865 -0.5472225411044963
Ni 7.743517539031051 2.810728693665168 4.607317247503829 0.6016394252924799 -1.883365718652066 2.1112914427968996
Ni 0.3383385952018239 5.981075400299552 13.168282639798399 -1.2000929966578104 2.980370848278751 1.3149462317549805
Ni 2.546781344382623 5.572962257806404 5.7284586623291 0.3389724410117194 0.4646927007303803 0.014376837546962336
Ni 6.764311801255964 0.8666517940100363 9.345456351412231 1.9600756099102952 -1.773130441942882 -1.291683147461982
Ni 8.317550946832226 4.267618526511859 12.5575588255473 -0.5935741317858423 -1.3675885405410446 -0.015343058114973574
P 3.687260486658098 2.6046361752898926 5.038989880034893 -0.5499219423135304 -0.8881009408896768 -2.09119030117165
P 7.343934637979915 4.011645303483395 3.127356174902866 -2.5147646345951657 2.5881547174515425 -1.4803105882278247
P 2.903731889585994 5.099086137919964 8.119125277505495 0.7145679325631114 0.14764559903684252 -2.2562852060331915
P 7.33795875612993 0.9661511693804039 6.913362925007335 -1.1052470579205032 -0.4360670665738877 -0.02674770040748942
P 4.813959283090232 7.710178904798562 9.687997857839463 0.035342384055035904 1.0676336184431032 -3.312520352831366
P 5.901616908193284 4.68749491908195 5.747786021530039 -0.8529655306391246 0.9843213913770081 -0.9296448257697343
P 8.415578030806746 4.153435825043847 7.046033157485697 0.31911041198046974 -0.7726519811900371 1.6102438575865685
P 0.6144092555812948 6.080855660968231 1.819853020056537 0.6555562299155936 -0.6083296928284619 -0.3703082750105235
