# total energy = -381169.7442024681 ev
CRYSTAL
PRIMVEC
9.26706532236886 0.00000000000000 0.00000000000000
0.00000000000000 9.26706532236886 0.00000000000000
0.00000000000000 0.00000000000000 13.56328682860167
PRIMCOORD
 96 1
Ni 8.418285291178334 4.101417647964416 9.039672583813005 -0.2849869879341995 -0.9118360797230877 0.3463785036678035
Ni 1.2947016575469035 9.282263032462103 10.112298294602667 1.0780599559827497 -0.19289598623420973 -0.4930457979517767
Ni 1.6753556213676508 6.749407348277688 8.911105956900279 -0.5079653953760865 0.6244008873587118 -0.3341796476087664
Ni 8.191520209507926 1.4175829400540392 2.144925220889715 1.3690982923173518 -0.004421526106463353 1.9276180036022221
Ni 2.028050849945259 3.644505005881887 1.1423853963348345 1.118649704479654 2.6302966409269155 -0.3073465865763223
Ni 3.3874088203166184 0.48089673312752995 4.115888170033412 0.6214232927876265 0.41949913491287755 0.6286190392051174
Ni 6.191659771431951 7.204410974960785 1.3528256162205843 0.054273673741900084 -0.001307148847197749 0.6251485641580137
Ni 0.08925203016247929 7.997653208750061 4.256226749673802 0.795655641174062 -0.31897979993987646 0.3998389374797888
Ni 6.688439327341456 3.280800504029884 2.485566777962268 -0.09702494866649741 -0.2937387659849006 1.5285534823946128
Ni 1.0438144055623118 8.555030102993967 12.602694140160294 -0.7026621822644609 1.1838567373046065 -0.799940384592345
Ni 1.0070890267858579 0.8632632505687388 3.7563927691252057 -0.6267850713201721 1.0717759227462509 0.3051158974735907
Ni 7.178259317401574 5.5916173097172415 7.384192036849052 0.0414855208382963 -1.1507399001459793 0.6053945214595381
Ni 6.211973178012316 3.303199000245552 8.15687899366027 -1.2726582696200468 1.2484752446159402 -0.3222852101640256
Ni 8.778134693971289 1.4814886206097866 10.169494620065265 -1.6550751549686464 0.1507949432991016 -1.0125351348070628
Ni 6.951957588983455 1.21835957569971 5.584751341224819 -0.49871842285652174 0.8713550888899058 -0.5477113078154567
Ni 1.4379890172848622 8.672017532131981 2.04217015024902 1.3619259429386286 -1.011582026865174 0.26716487215111406
Ni 3.998247412809669 5.65818263794113 0.9642751862743217 0.13591416953252722 -0.10177300487444409 1.2175019361628774
Ni 5.380847182315862 3.9770721691800457 12.068761067069223 -0.9390625195392086 1.1404374897787068 0.3494651130129272
Ni 7.201501116536408 7.4175812722090235 10.934368514336377 1.10306162023341 0.17412770448777107 1.4272990690278
Ni 0.9836433522200166 5.973865208725865 2.0935745600580002 1.9458625516347068 1.6909253318980362 -1.3248467786981442
Ni 7.071391523293558 8.655837236562038 7.326968836897823 -1.3639504295678253 0.6041081985479466 0.7419594372021866
Ni 8.356112551786149 7.3164219901692125 6.302018468942714 1.234054698315236 0.9765060090976473 0.24524030416388087
Ni 2.8047513726278055 2.5460056494843863 9.931608133633409 0.3411352529909931 -0.07658107898984876 0.45111933292131984
Ni 7.280845727458436 2.3690047071098546 0.039740881742353025 0.6336414321203733 1.28260998151612 1.00947037983881
P 6.678736710238517 4.524468434369639 0.5654911363979968 0.8778437819380431 -0.2920716626951228 0.6061432267001045
Ni 8.303327349285347 5.35008052636385 5.272808957892563 -0.3883648754019183 -1.3307387187025468 -0.41926670718709724
P 4.910033942664653 3.3074525831015675 10.045227911333782 -0.9267039979738556 -1.7507914121260493 -0.4492588826738133
Ni 3.4624535130574015 0.7566493740429774 11.426038210579636 -0.5852720396780501 -0.683179648059817 1.1157731542628073
P 6.074181187846509 1.321650282700052 3.4291245136202284 -0.4415126630694913 0.8841190734237936 0.5301085071320291
P 0.22548251986807125 5.417081406644889 7.640402290995945 -0.7451465766809168 0.7970152405257499 -0.5816341858151467
P 2.1357063445821662 5.268020665383405 13.230361722776497 -0.03018449400318027 0.489649370675718 0.12347748643107123
Ni 2.36023806357654 0.6056416224153736 0.33779471469048694 1.5877320496372977 1.2473858682065033 -0.5267079660909122
Ni 1.1420174938525167 1.828234393427999 11.621755844227144 0.8118944716304276 0.8117108948647117 1.1808158935957533
Ni 1.276871824398809 6.546959045287425 6.085372095595801 -0.030588414309818287 1.0317489887313522 1.80980157211167
Ni 6.33624452027632 3.877599492978568 5.417651331145206 -0.2794382902018284 -0.04968245482679186 0.084961332633744
Ni 1.8665815085874657 3.3365233661502014 4.047841038108703 0.3802229630210742 -0.8999943498931532 -0.5687550158596334
Ni 4.735776051543674 7.529277207205895 3.907826805744916 -0.43485659120555437 0.6441572440500325 0.08885218304771794
Ni 5.175136872429483 0.972050253847737 7.846524058570357 0.5981537807367246 0.4167313423597533 -0.03923503424122275
Ni 3.4573566272822185 7.172272793381995 6.037792203531217 0.7130445539400494 0.8428978619904774 -0.31793053273975563
Ni 6.292374234349565 0.5333900230793905 1.3822207465458207 -1.480584924935134 -0.8815495129244044 -0.7674719796509943
Ni 5.3146618037588516 1.8035932674712514 12.691017610405186 -0.4436878163439391 -0.9510662288683038 -0.299472068924252
Ni 6.18605319707925 6.069964673250676 12.742259846575866 1.6220043405566065 0.5089832951176395 0.5982085452340601
Ni 0.18000532486237608 1.4511575167149258 0.22281638525439834 0.11463469132846063 -0.404520145005542 -0.44297253544446935
Ni 8.645161577629292 4.5001053203642645 2.1324878928917648 -1.002371049789867 -0.37541500010946954 -0.549681287057634
Ni 4.087229771379316 5.996550983957952 12.114320738953824 -1.404203363550601 -0.8758979710655819 -1.1981836954502396
Ni 0.1528278032025965 3.9578893445352668 13.264229138692828 -0.5371471591463652 -0.14965260216454226 -0.8732399646174446
Ni 5.9157792450188715 7.350163374000923 9.019558419131124 -1.293572908285527 0.3276318191879196 -0.5191684631807574
Ni 6.308165313187585 6.605804908328173 5.434320927749567 -0.6349485809675709 0.5145685025149009 -0.6216156113040908
Ni 8.464361138585987 3.1713379317090484 6.628839125205982 -1.9981611039281069 0.09345754303021324 0.17041246041971297
Ni 7.472655439776135 0.3939466419224242 11.968420066872953 0.40605329382061683 0.1519149158361577 0.8310209080472333
Ni 0.08237772131151448 8.950344563717149 8.098407520047372 -1.5103117625756055 -0.1187101469494149 0.47811257368071214
Ni 9.323594142566312 0.9561757714243039 5.9161425139686665 -1.8405475950452754 -0.4216789161730157 0.7636220097772849
Ni 2.2463921694890465 8.63236376080106 7.619040779358901 0.8428474683685162 0.6268999996314817 -0.668617691085242
Ni 2.14940306671984 1.6912023025959464 6.106978257750054 1.47900986713853 0.8363235512070694 0.4626008511983582
Ni 3.7716120700499016 3.2959892236399293 7.867004272321547 -0.4242397349216564 0.14695577205866947 -0.3320929402830668
Ni 2.7994413443565693 7.419267878047357 13.420302268074458 0.2740271464885861 0.5508737647038383 0.7913475007170113
P 1.834378457553356 8.924693327670411 5.457975111278938 0.1398225034479979 -1.2912568585578408 0.24244011571092444
Ni 7.217931622862588 2.963329389691313 11.315510852485039 1.1011669743138583 -0.35124457351085314 -0.9359589409132203
P 2.7508077869962793 6.962762986826843 2.929683456629574 -0.11799280916741615 2.2313480764718796 -2.645776224619753
Ni 3.821302072825412 9.201268883961925 9.260631849232228 -0.19183514906986318 -1.0338709201703613 0.5492760811994153
P 7.430101077085881 9.002861021331624 9.59848031289998 0.7666330286894668 0.9597794403715857 -1.2894987382161534
P 4.496908182923468 0.06648841158400808 -0.040717630398178974 -0.5138977017001214 -1.2694132803201879 -0.027599506884823436
P 8.377695546277787 8.42506878279185 13.487047377360236 -0.6711304302047667 0.24113425241530734 0.025805905319510394
Ni 8.350904461230417 6.65787654682045 9.085191480611405 0.622086123182606 0.49682660515044763 -0.6584806026512402
Ni 4.501356374145446 1.9652664842600518 5.915980340330365 0.4087542376915477 0.2748848665031911 -0.7229497288689033
Ni 1.8330718013819 5.284701382465822 11.040786855789673 -0.2752535626965195 -0.9086067741525126 0.813912530501721
Ni 6.985522898579296 8.646681376296801 3.8618612364113076 -0.25736254134871156 -0.2829974683079965 -0.20458910630142188
Ni 3.1134836446282 3.086497951214868 12.63474428462115 0.05918705188311743 0.2945764313948475 -0.2859511516196817
Ni 3.779479808273775 5.542038511722281 9.661033928665546 -1.014259573697337 -0.6703876385014712 0.1901726737657757
Ni 0.7755569668558967 2.0510702395189937 8.284387321744767 0.7342322437612581 0.17262926556537364 -0.6768488207457828
Ni 5.430435247375868 5.438479059835611 3.440110619232009 1.7898243576587949 -1.167200616805164 -1.1248892576314626
Ni 4.327450631496207 3.1356041288924934 3.710983223694345 1.3923670330373052 0.39048654973061137 0.8890972433646753
Ni 1.6884129160171646 4.440647831030495 8.786771598593964 0.2757515853788606 -1.7663787250413452 0.39472629884357185
Ni 3.952227167792291 8.69753902926808 2.062351964505735 0.25573683281983056 -0.2521596569915335 -1.544921639339991
Ni 1.1986577954123667 3.9199963155630435 6.3551725006323405 2.1085365057595813 0.74980387294727 -0.7026997203706157
Ni 9.210183800535972 6.358846891922995 0.023597654432592045 -0.1386724490039547 0.26632026476263165 -0.8682563953599242
Ni 8.64472602557214 7.915185596907603 1.9901550408535218 -1.7802683385392435 0.6580658837113248 -0.9415487762961721
Ni 1.0130106813501156 5.472748666374931 4.231867342494446 -0.8997881474196181 -0.90670621469569 -1.212855952750434
Ni 0.3530473770493478 7.1042525359459185 11.045140522948184 -0.12412154777297334 0.3602295506182828 -0.44250176645563793
Ni 5.7993200385884665 1.0048927323700063 10.436609429651535 -0.5991493118807746 0.6727887917437961 -1.2022411533490651
Ni 4.889600064238692 3.399548675526599 1.1218013914551321 -0.281037002147516 0.9770590533876399 -1.4708083051643444
Ni 5.944275470034667 5.058214312746787 9.733990751651513 2.9126063391392676 0.9671155690216827 0.6390322641186413
Ni 5.246187460135531 8.013101406181388 11.616018604257297 -2.3556568005549945 1.4034196913070411 0.8699942039866372
Ni 5.170178992629986 8.823978864752798 5.87516818586872 0.22189031658403074 0.21612153242105359 -0.1892283075746354
Ni 8.035638908372743 5.394997990640779 11.295627437722798 -0.14024802102119072 -1.2495551079436802 0.5219653091996043
Ni 8.680459828388694 3.28734305195221 4.223282333436028 -0.1802613281893347 -0.951006579274962 -0.04829663022285876
Ni 7.476417868184725 1.6048888587594863 7.929219640212943 1.7692902422611851 -1.8077464893548545 0.9621417699561752
Ni 2.702878526579469 7.549535011395985 10.839235604695842 1.1479919050871972 0.4787751469653755 0.7390006116841789
P 1.2819965113691294 2.117533630027378 2.105225114233564 -1.805284400967607 -2.2456320971947195 0.6811124811181432
Ni 3.4801906755550376 1.9933827596089693 1.9894627910946017 -0.6983062192886103 -2.3983052313531408 0.28898659601189586
P 3.520289266008158 4.044276924892094 5.720261779976353 0.1612937859478964 -1.346219073726333 0.9175467569546197
Ni 4.9166876953675285 5.5409264639167874 7.006834368065092 -0.6159270455597458 -1.2903590293339198 0.18159341673719692
P 3.8909162654493636 7.022822835388588 8.222308179709545 -0.938479650452545 1.7927176200461898 -0.6263451555692761
P 0.1352935894294629 3.792277625102007 11.003392394916913 0.4751869153934849 -1.556010550164301 -0.26460970982942816
P 7.932941293535331 6.491162046646742 3.372131136882134 -0.9885158890743297 -1.11782977968152 0.5188851276123838
Ni 3.264648009655078 5.554252503452629 4.224095981747049 1.0841123328244169 -1.4845858185644107 1.2672147300069725
