# total energy = -381176.6225449224 ev
CRYSTAL
PRIMVEC
9.12046375654582 0.00000000000000 0.00000000000000

0.00000000000000 9.12046375654582 0.00000000000000

0.00000000000000 0.00000000000000 13.34872061831379

PRIMCOORD
 96 1
Ni 7.474457305236014 1.1554168498089374 9.108486003442293 -0.523010462634667 0.5425464757850655 0.30763866389544436
Ni 3.4078522190194476 7.09010271519585 8.158791249604239 1.3676641309739865 -0.7463832773014952 0.7531000272000384
Ni 6.790832932959887 5.1666242382441 8.704834335864113 0.8729699987855094 1.5224645958880554 1.8564601525104736
Ni 5.61795951522971 6.1569424503778665 13.0176727946412 -0.5795191963546729 0.038286811395340514 -1.3238036821456105
Ni 4.0856212534661935 8.042963182056612 6.136607464047043 -1.6782621346080708 -0.12425087426198603 -0.4144967966022797
Ni 8.768286315323286 8.759968452238558 10.797753703357964 -0.2605928753605512 1.1979471539594013 0.6846755158790531
Ni 5.789269188826702 8.068956504196388 1.3187452054394313 -0.06859934633595283 0.5853717984807081 0.7772362581266098
Ni 3.003870390647774 5.995263986668455 5.212848573426141 1.036935675138614 -0.49864154687199924 -0.8899526493864351
Ni 0.9586337205149648 7.446986467943029 4.340710596482054 0.9609264094918354 -0.36889391116150017 -1.967161827333115
Ni 2.009821908775352 -0.04320546162826322 0.2703624718773581 1.0565151399324386 1.1127780761902255 0.548863419142029
Ni 1.8007170327407342 3.3118593363804476 1.8705433044256923 -0.0669029324701364 1.6587623740122464 -0.6335915527190443
Ni 1.6471466614461518 7.50960757314012 12.014569516200227 0.956150585369747 0.11841421297555088 -0.8652901136427484
Ni 0.0974193231943196 5.885252951001793 7.955557216187646 -0.3731506295553251 -0.37884125218219916 0.39675849878225217
Ni 0.6261745701152663 0.022649760070849637 5.87769573460705 -0.6344253614742493 0.8912322874298071 0.24123838209333934
Ni 2.355460129523113 1.7470248617102553 6.302999383504467 -0.3426511754148873 0.002219890469454241 -1.8861211699100162
Ni 5.167262670717708 0.1329882203918337 8.19467297871382 0.053996251710797326 0.4592609881918477 0.23601415757992256
Ni 0.06238214904268235 1.4611895228117984 7.69980937567758 1.475343988251169 0.039411926138719224 -0.38366412749213924
Ni 3.1694980152296495 1.5337792950610907 2.4031036088893463 -1.5721809892765761 -1.2664472557133286 -0.3868204137329338
Ni 3.6361191897262306 3.753189464458221 5.870420340547085 0.6700803916736976 0.1293059201873902 -0.2457478399279187
Ni 2.29551132025127 2.8948352446193426 11.170115795404588 -0.24026727642932172 0.10966166359390145 -1.6389774780758353
Ni 5.031878504457061 4.597908590753603 3.2325532545087934 -0.7232405206364448 -0.31731732463578904 1.9122505200072164
Ni 5.497843005552216 4.7632808423460355 10.933550114587284 1.546537320566543 1.8632098125294814 -1.3489328731130705
Ni 7.358882786585049 0.8019450626099999 2.4139697295901636 -0.1746236702875831 -0.6203321166059768 -1.1274865860449939
Ni 6.267537195734684 3.3337119679056775 5.887653457102561 -1.1252283861384365 -0.9212429748592844 -0.5294593035838042
P 9.17701078492748 6.0837689684384175 2.832104693855348 0.3373153650242707 -0.49501397742174097 -0.4753812907924781
Ni 8.59798901322016 8.568821769640158 13.342273753337167 -0.11381039565495236 0.041675268251599194 -1.3889428378471045
P 3.535556954668975 1.7131970610729108 9.386206865601185 0.7064681862741123 0.7705755582769825 0.10875046463354175
Ni 4.499745037704334 7.603448026296668 3.4303679082708394 0.24363670712218685 -1.2623964826827228 0.2882515176180842
P 5.312086517123854 6.035366666474981 1.7656488490118074 -0.1689631295676961 1.285203196164593 0.4904420417803425
P 7.138349969272839 7.2643674190992575 11.720644325814758 -0.36600424831853096 0.8054356033789613 0.9222367062311213
P 7.664445688918011 3.9911514882999453 10.35193265885155 -0.2008869748594863 1.2072974848260498 -0.057388051001165674
Ni 5.772925317502323 2.7470381269789628 9.978249011584557 0.26022212228469377 -1.5022408126420128 -0.8268238392467502
Ni 7.241675704894429 6.9676422462938215 3.3876513035080817 -0.3728022450769709 0.5350038875511174 -0.7093465362631719
Ni 7.122097302587547 4.57572762252766 12.418181965783598 2.3903486955102253 -0.4996080245503267 0.9537358052806673
Ni 4.839701209436978 2.6836417823496337 7.68957074289368 -0.3997890580784599 -0.523786164458427 0.6778538649715293
Ni 7.531378120490172 4.704380886423691 4.166162246151084 0.48445857050339786 0.41987117354031556 -1.1863651055487567
Ni 0.6328069714696685 0.9482546325868716 3.515305876606112 1.201975301282188 0.880689221806638 1.1848265574170433
Ni 4.381744475653657 1.47590995156043 11.61573618970501 -0.12845308526879168 0.099099571807339 -0.3241171211664418
Ni 2.9406199734409837 0.3529437123386242 4.68265138116123 -0.3667274996378007 -0.45703518418512257 -0.6107089916939159
Ni 1.3578455462623915 4.81008706312545 9.806184163575924 -0.09726714658429055 0.29413600142331925 0.5293492603685013
Ni 2.4186193420908153 8.333167223167333 2.7239934508208665 -0.2562698225051651 -0.6018800805483764 -1.3231133409468052
Ni 5.06826003498884 1.1070145478455007 5.965863259212391 -2.2799522106328283 0.7055893832135848 0.00946011697163532
Ni 8.856590646887257 2.8208226800002936 5.202997560358361 -0.8427194274310841 -1.8931479948498107 0.04600706285773368
Ni 5.717108078381118 5.730022655275829 5.270903062344147 -0.7710033898430206 0.7641660552062131 -0.44122469951542725
Ni 6.483692190370723 0.6473531993576438 -0.0630625356502709 -0.004352363431424763 1.4235593994797096 0.3239947366559646
Ni 1.656549859736015 7.462254124526183 9.799122188371422 -1.9515439182902001 -0.035528274813596876 -1.7444173902789053
Ni 6.2775149832507955 0.19736045465939298 10.636046966210436 -0.3284080352323118 -0.7916544904344689 0.6634898829403735
Ni 5.220781552933922 3.2581854062777857 12.83615640988399 0.7801907127692435 0.03835391718785007 -0.20050645159161598
Ni 2.0762280064945497 2.921284589954553 8.070703073034903 -0.2841529220686784 -0.8866482676035505 2.810050690462528
Ni 7.181124945004611 1.0585028003151595 6.284764840011816 1.8114756173799835 -0.19826830628971662 0.5230392589900734
Ni 2.4188564741524416 5.0278928617289615 7.669533995732671 0.07987877590451405 1.5167582895318974 -1.2370124953919794
Ni 0.20403116196221147 5.607954366321874 11.959452728707209 -0.10352264057569914 0.6839270677488029 -0.06036358868972184
Ni 0.6423752501562788 4.952202131750714 5.0507688093047465 0.9318575171503372 1.566444086792799 -0.39920927431558995
Ni -0.009852837160561675 2.504205775409996 10.125418641308016 0.7915835279872174 0.13224983330706258 -0.6745366276728383
Ni -0.13828720992278468 4.690508660818569 1.0439766374477832 2.372947983535275 -0.7930156324480536 0.4889749703165127
Ni 3.7848830765409316 8.74877764302259 10.135816882210317 0.1329453167121904 -0.17184533621149758 0.30295359971494923
P 4.054848808238261 2.793725781727565 3.9423579184348254 0.47892195695588485 -0.6448542701170572 0.18492376666201057
Ni 1.5314718176921913 7.0566670945065795 6.508929426052468 1.0063084371710604 0.5232994546299955 1.283481842598112
P 0.8137806886243115 1.3607093719297212 12.072743483195438 0.16605006968595917 -1.7529251706396007 0.2345522283224154
Ni 4.9340159267167785 8.342077916406126 12.229737676641344 -0.9262627966713789 -1.0789315599544258 0.5150829802574742
P 4.215596984628985 0.7069235093772759 0.4934225697386679 -0.1684818190559034 -0.3756769955216046 -0.0254282102651175
P 7.506242121957812 2.6145725091690974 0.6541178474387218 0.1621805594282239 -0.7840154858319723 -0.3680423617944823
P 7.922153517122056 0.16021736539123838 4.416677676516734 -0.06858417682730125 -0.4421520964257031 0.34329215143299585
Ni 7.402715736130231 8.277094611056684 8.235920276740886 0.21081708948900468 -1.5044491331472412 -0.46530076662802444
Ni 5.1446074383685145 2.4137763757552992 1.670498697237971 0.9608040249813581 -0.09538484195991315 0.0438355091277116
Ni 3.585755988022424 7.0319506373140195 0.5637139850829693 -0.8483892241223518 0.6325669681092718 0.6257131784122321
Ni 8.368043877154177 6.890711133223991 5.723464129679087 -1.0020422056955387 1.5124516917367437 0.09211157052528007
Ni 5.6664712627600515 7.077698884280027 9.73225824336401 -0.5313593488199945 -0.1203109157776315 0.33492578174617155
Ni 0.47004408460151365 1.5114523994126088 1.118551022643607 -0.5908191947485244 -0.288363103495284 -1.092860768441008
Ni 7.526480431371203 3.172398322752614 8.154826583943128 0.620380453345409 -0.5035947771122166 -1.3429751128677387
Ni 3.813986476873573 4.602988689150746 0.9435274961429956 -0.035629062057519284 0.26307887500719856 0.5811832143206571
Ni 6.766782269632662 4.286025206931917 1.7471470759266317 0.009876892794079764 0.3942539871928436 -0.37170566957868245
Ni 2.927960769535717 2.6622451740198385 13.297301657849792 0.2463451071922854 -1.7335038286901954 0.8214294077040564
Ni 5.094517850581968 0.8737714520301345 3.7155100919122357 0.5611118974920789 -0.9095704236173624 -0.7604610955508
Ni 7.709601105729952 6.393700572983643 0.7668668463707736 -0.9545917255230593 2.3882002817086545 0.09448701273599212
Ni 1.6154712902912591 0.8247799680981961 10.100509742326985 0.3242824430997125 -0.2541373495431946 0.23159134592187858
Ni 6.718325244885773 2.5992136479468573 3.6335618116462327 -1.0152381355605224 0.5773777245316379 0.8541736920146128
Ni 1.145429941828918 6.883277955138405 0.7312660275495791 -0.11466117369102188 -1.6001144824620506 1.5679690080777575
Ni 3.6106730954209754 4.848356529686329 11.900958633428804 -2.2225333063937276 0.9587152607731296 0.23437790752808024
Ni 8.804713448174608 2.985246403346222 2.6934116232886263 -0.6640221012947597 0.5871540871921114 0.8915899278795419
Ni 7.280674808568002 2.1773830717058704 11.696109365853982 0.04065891117194288 -0.3213549850402724 0.06968949407633805
Ni 6.14776726368572 8.06860080610395 5.198992764656054 1.2941058979708615 1.1205960295727473 -0.3731197763173897
Ni 3.9395661444323746 4.049695746129849 9.475496207267295 -1.8808208407430251 0.41303332468287574 -0.5781205162349334
Ni 1.9430236311080804 3.1887513145409017 4.143149491616669 -0.12073206247545014 -0.4164806598015279 0.24820915698421772
Ni 7.568571372309824 4.998543208870786 6.456135620716996 0.8907854297003756 -0.7875073010353146 1.5337679367160164
Ni 0.11993957267766579 3.3108560853504914 12.476982508649336 0.42214454295552456 -0.549711368964621 0.5206393912993291
Ni 2.4861563773346917 0.20228185698452406 8.014799189506565 -0.39402541612180525 -0.5308137607291697 -0.7233845024134767
Ni 9.132685330331228 8.363930547931355 2.2197859325101685 -0.2803615733470462 -1.557818292797001 -0.21182367637664812
P 0.4524963120411872 3.8352189168530115 6.908670238706599 -0.05130764913504067 -0.024809859954828237 1.22694097008859
Ni 2.4678880881255782 5.636692948098167 2.8002013111027377 -0.7689192536204822 0.43755290709079486 0.2694235862783037
P 3.4363627891980237 6.618529128796848 10.485580288783982 1.2614480027265242 -1.2204314511048464 0.3612132546877908
Ni 5.0794599646687155 5.091553699811643 7.407632578223407 -1.9272613915937518 0.5859574957808489 -0.5344403017381635
P 1.797926170784674 4.624832200212066 13.130722768882238 0.08212360607463276 0.5758381479586598 0.9695264924560206
P 0.38695027406857907 8.113044826731013 8.07524232792226 0.942028801256384 0.8754613977487956 -0.31080677721078087
P 5.75960944019563 7.294519672781399 7.208456239199794 -0.2285934396358192 -1.2335533331987854 0.8177429599914047
Ni 8.29479743150346 6.684688973990511 10.030575849167903 -0.008878019215920192 -1.201561867893853 -0.5300910236305322
