# total energy = -340862.7599343964 ev
CRYSTAL
PRIMVEC
9.32820674292770 0.00000000000000 0.00000000000000

0.00000000000000 9.32820674292770 0.00000000000000

0.00000000000000 0.00000000000000 13.65277347786226

PRIMCOORD
 96 1
Ni 5.155149484209664 1.6635737281797458 5.3751375158632415 0.5406590289543657 1.0030747607251111 -1.3482114215660135
Ni 8.203877954907204 5.629376856913192 9.229383687735702 1.0245108191117 0.8093110271739675 1.0850572132361893
Ni 5.534770184464253 7.413191169579907 3.267627900628107 -1.528969743996425 -1.8781314668363203 -0.24517885479832613
Ni 7.9941425552481675 7.8465236840684724 7.640965455374001 -0.29398764877091305 1.4239453220642186 -0.08796360979517755
Ni 9.005124270229791 3.6969455549488535 11.373634310738007 0.016086621149217457 -0.21041882560932149 -0.2587115991774383
Ni 4.2220023260130874 7.230171753937213 0.7905039524757902 -1.176839939667141 -0.8763386581474262 -0.13726914089852488
Ni 6.711243614681198 -0.07672450018660301 3.1215836307409957 -0.06698906442603947 1.2759605945204027 0.8886020488958116
Ni 0.9545833772152762 2.2688997179802373 5.742152077570453 0.4188057083902787 -0.6175532683092589 -0.5275872833720721
Ni 6.124228894651685 1.2706416769505327 9.399320293468158 0.3083467457060625 -0.09970069572644766 1.0465922243917716
Ni 0.17904000266037037 6.534642005254721 0.40615198577808304 -4.903777642013103 -1.500657527315293 3.1524532402017194
Ni 9.299391879091381 0.28633396905506053 6.508235717701137 1.6020674924233633 -0.9199219420550158 2.3277634165788363
Ni 7.1865903721898805 5.517055919922689 3.7498840608466035 -0.8964354288973013 3.575660677204119 0.835658921039877
Ni 3.024745651247115 9.067287439742682 5.750110903535099 -0.9931544162876057 0.3439338987820528 1.556918663800867
Ni 5.108349871147513 0.31023656592778415 11.733234813752414 1.220288240658763 0.4207880289276302 0.7045550284117995
Ni 2.5348282348580096 1.7345333966198053 7.754993454192364 0.3338124940773348 -0.8847572212284246 0.6897997244794959
Ni 2.6024484052960264 5.683601722516197 4.934931045850358 0.34886861707950884 0.2786343062432943 0.5053660100800264
Ni 6.085955262522125 4.15393440165301 9.959179670945304 -2.7531547486064327 1.1450834731911503 0.45114864349735845
Ni 2.873059681942027 7.859695111942452 3.4335766979922004 0.07709529962210594 -0.671338689560831 -0.9485113236569341
Ni 4.305909545366096 5.303859755574384 8.492529983329606 -0.5704581145936691 0.3196151195310302 -0.5603210261596673
Ni 0.11661471053893986 7.457817310478715 10.840247451082085 -0.34450056991880024 -0.9298348302933535 -0.06079373424860497
Ni 5.42314886297697 7.262764508180616 12.196636802569433 1.7705793933862537 -0.41015188937002267 0.41782097587950623
Ni 4.593013091474701 1.7999614384810616 2.8172909981285796 2.104730244639614 -1.3434584802620606 -0.7639146013170393
Ni 0.6832258440325064 8.186089064711965 8.666739840555735 0.6242317087706992 1.51234036296986 1.1559983203314415
Ni 6.707820162818768 6.0821493541846 7.517053288726128 -2.4950270469569222 -1.7350616600956184 -0.46278005708869974
P 2.576124205961486 6.593801492207115 7.216719547041273 3.849484706542964 0.05836969818814463 0.4897018211802083
P 0.7356214482997563 5.378186906636615 10.504334996186078 0.010822030316168458 0.31514062869944437 -0.009151070371648756
P 7.105304378922274 2.0866825281145713 3.970731220338137 0.8674693806822545 -0.9550025878082327 0.41299527235608874
P 7.480111724514701 7.310021203371537 2.029840167708847 0.5190877305414932 0.18712823051249708 1.7304352170672004
P 8.52531862991391 4.480300369802393 13.376945991385371 0.17025202358244873 1.385916135205639 0.40173306917870816
P 3.1373557626456163 2.3421821098909916 5.799616629363709 0.17479362020654413 0.2981710907246413 -0.7908772459488121
P 6.9790004600740545 0.43059655146063536 7.6859787168512606 1.261541333771279 -0.4654452626256888 -0.9157405569838164
P 0.560821115588907 1.3387655705508685 0.7439534025327865 -1.5307985696750477 -0.14319141992023082 0.10172158281121836
Ni 4.127106479156151 2.430109786335845 0.44680990754262134 0.20836785661756374 -0.7693126324041589 1.3952132442368488
Ni 2.4262758933781927 3.6770578182439495 10.7035696335521 -2.088378028533836 -0.4697310344852362 -0.48194891670766676
Ni 4.689429436025306 8.12303971556166 9.950496043319319 -0.5520533868342363 -0.18717065371465827 -0.2052488513726078
Ni 3.9081827958881394 1.2578060645180988 10.005203177209212 -1.5332339185894175 0.7843983230926878 -1.9559744432577282
Ni 4.871338795069554 4.840919512989492 13.07377274357811 0.5467070349206585 1.8864430720258092 0.5461357357982208
Ni 2.3385534374809507 0.22158875192494817 0.2480995153936808 -0.39521043756884194 -0.6601425637346954 -0.3492411699275792
Ni 0.3373881771974675 2.115851830495545 3.3596058844262764 0.8895034776641583 -2.387004975848973 0.5577378388135233
Ni 3.028803421165799 8.516484818159903 8.404893346934092 -0.9803166410929892 0.7987013699789213 -0.3849162547316855
Ni 5.425947324989856 5.8871711775401785 5.323898609227983 0.033120950923684896 1.52188584056645 -0.01970801995188864
Ni 2.1917647766984114 4.295853738533129 7.236611947849532 -1.1291796574767006 0.25289396405439674 -0.027001725399824466
Ni 7.73075131059541 3.211300457232753 9.252594131670572 3.8865535863708036 -2.0738024447125056 -0.5862925105227644
Ni 0.9960565842462351 4.610988545804133 2.2739649342235597 0.7273383448549022 1.1176451744745397 -0.2845992655774776
Ni 5.5079422619673934 4.020960815007414 1.6537194106117061 -0.19157006833393458 1.1151038961099247 0.4653629873245276
Ni 4.679448254846015 3.0953135350053707 11.501369176495482 1.186605503694337 -1.8543533905801162 -0.8742871749350362
Ni 6.085973918935544 3.0131320338936414 7.642549384873295 0.1273922481044451 0.15634826901716298 -1.137746316099789
Ni 4.905172200805336 0.7318715092024901 7.360346878569923 -1.2874912208678213 -0.45762730924316675 1.2483459181269274
Ni 7.709482999297483 4.786069657536941 1.7558147674071263 1.5065016448008957 -0.22005840558161455 -2.137551404934693
Ni 4.398436027718791 4.266507200224672 6.363858398353033 -0.4589324012078354 -1.903788248172476 -0.4140836203242611
Ni 2.2405419695830004 9.040198327457952 10.743353502347945 -0.6519505148422062 -0.08452681619948668 0.5721948947791178
Ni 0.24915919967589334 2.213191667510402 7.91109912783647 -1.4173789817006104 0.6233207669206554 0.7996228533519262
Ni 3.228473685785159 3.5197655967063812 3.3056506039971785 0.23776122217801632 2.1202694779257936 2.286556089102591
Ni 0.1488082175351714 8.943949890628119 12.621838852089898 1.216411531312176 -0.11210832536218111 1.5889109004367474
Ni 2.6195749928148837 0.9394063848987287 3.6882012939792586 -0.6086981319114743 0.4515263385517514 0.10432122521759453
Ni 5.875128462678062 8.884585183128115 0.9027036227790681 0.783208930770277 0.7486337638985687 -0.7721591007140185
P 4.830602516368655 5.185876597111142 3.2813618193666767 -1.6254974413115295 2.4970967850017574 -0.0039006206059868306
P 4.696220370509907 9.092884038953871 4.539738770135404 0.9333240743935345 -1.2821862637151402 -1.164031989269195
P 1.1937492690431564 8.74038043560414 4.56779521745592 1.1007160028193688 0.10534992359242501 -0.29372411069688126
P 1.2648581887905697 2.023633178964267 9.776573494859845 1.1910640536863228 -0.035510277091467875 0.16711116396062187
P 1.2930666858804527 4.013684813773912 4.686409895513402 0.007270565519484253 0.9775074537789682 -1.9083763817637909
P 9.029405592294925 4.397764396835698 7.733340820778 -0.019151890338102502 -0.7975358889159103 -1.159040706702191
P 7.125854418303562 2.023446614830075 11.11801346227436 0.1598935631662601 0.02779413939413278 0.5559902599947973
P 5.885837243980703 6.292864215548148 9.696554272063404 0.8753729518000474 0.642766534350093 -0.40746920033153694
Ni 8.526857784020997 8.923129333252254 4.647321910938093 -0.8544724542019543 0.35003101281872623 -2.6590374605050333
Ni 4.581436786948065 7.681087938073408 6.9450429891890355 0.6189084967855728 -1.4175311910077586 -0.6466545565505896
Ni 1.000543451673561 1.8957621213888323 12.309668548911207 -0.42239111174869187 0.42005655007824433 0.4302738569308784
Ni 7.646844091242403 1.8990736347707464 6.071948027326964 -0.04942585873129552 -0.6259314650706252 0.10168250204316683
Ni 8.636380258998615 3.9619225947422456 3.624101588753452 -0.3544124297158735 -0.48388058651274085 2.0310966783138635
Ni 6.597756651851992 8.128039634358016 5.424342873435802 -1.257702419641163 -0.3658618092033957 1.5504032312798526
Ni 9.242965556704904 6.826363013684586 3.380099021746635 0.7430822379527202 0.09176575715008711 -0.010019331909215001
Ni 5.869727430993194 3.718782886856068 4.248879688005508 -0.9031056418286252 -1.4540853359827088 0.8952730331580838
Ni 3.2057501742405314 1.580216873022605 12.252162953008432 -0.5177479286841471 -1.085956070901375 -0.8411662240113513
Ni 1.6819876082245306 7.073933619757831 12.90843774221551 4.5549113389264395 1.700634331655684 -2.973633786665234
Ni 2.421052097620807 6.627606913322768 9.85510393586543 -0.5240764420053361 -0.05318969664910194 -0.25940888235477905
Ni 7.540260001378313 4.2357147898762255 5.882802778338064 0.3983212152836817 1.145250594896634 0.9657189457844723
Ni 3.2972039128216197 4.802160814111032 1.0892948087708738 -1.2531086296228933 -0.10205762599439842 0.6771306136522596
Ni 8.993100211781094 9.061074854074075 2.001483352132281 0.9091523622433375 -1.4742782659908158 -0.4169997655297915
Ni 6.863918373897506 6.467590855425991 0.25856296485985863 -0.06484476438952702 -0.2244112832336716 -1.3902903530139346
Ni 1.9279164499168835 2.5493709091183034 1.850565094239394 0.5180760014475271 -1.1667979820501067 -2.259368987164838
Ni 4.056846426219312 5.174841328573666 10.859047518884646 0.7605731956486321 2.6409330375948388 0.6375191699082245
Ni 0.6158659305616883 6.680852317221264 7.050360308581957 -2.173763336078876 -1.8802626542467102 -1.340298080256208
Ni 9.128433834724223 0.8014366107394618 10.575479363118989 -1.471373176528879 -0.4908338779021224 -0.5415810265480028
Ni 7.237158580762716 5.6929579138459445 11.495457891903596 0.7397243772240808 1.863516545136623 -0.28493890830508345
Ni 7.8092388418501315 1.153143585236192 13.162365521161359 -0.8658061340472186 0.907494000704308 -0.15552628733649987
Ni 6.691402519009841 3.7651534024095765 12.418985803341213 1.2851733713679223 -2.363270094125878 1.2211390186948325
Ni 7.097655249420389 8.29518244218094 10.136460373820238 0.5338962563092353 -0.39169162578230604 -0.3528389145811665
Ni 7.790218628369222 1.605347061898314 2.0439294911230528 -0.03187807965551929 1.690694961054785 -1.7174891984294938
P 4.140697676332063 3.0154920701911747 8.445578320498088 0.04739520145451192 0.5482885204751653 0.8981950919008853
P 3.0593812827599245 3.7324020686521093 12.797781890122673 -1.2853356079773992 0.5309520860792468 -0.07101952574167124
P 3.494710033484349 7.441492948736886 11.709861126200128 -1.87425964258574 0.10145007431738658 -0.19434891663065237
P 7.634176386530743 8.010382963129612 12.247083744455043 -0.8389908136265875 -0.5277358931347944 0.33170881747077063
P 6.24211877104783 2.360381441181455 0.74862216999095 1.0353462191643075 -1.739457732280785 -1.2809521341977228
P 2.0218235068626016 6.5509383823764225 1.5267074808742267 0.11924287952443334 -0.13925660364219888 0.8090644583808001
P 8.08160382135754 6.4930568597432465 5.7552311561980085 -0.2385387237739892 0.05439220159763536 -0.8461017136397557
P 3.855338504878157 9.213842895357478 1.6768197817074026 0.34991891272089415 0.6960935279080076 1.1349579547213744
