# total energy = -340866.63329243736 ev
CRYSTAL
PRIMVEC
9.24153950044332 0.00000000000000 0.00000000000000
0.00000000000000 9.24153950044332 0.00000000000000
0.00000000000000 0.00000000000000 13.52592720802445
PRIMCOORD
 96 1
Ni 4.431309022536501 3.8584721870854883 11.600200522300469 -0.15005883646402543 -1.08920928773135 2.087283509918076
Ni 4.060751007031472 7.730492471303689 4.647603561521687 -0.02371071335337852 0.04691877603872565 -0.5962920449376375
Ni 4.624928519826718 7.672862230021565 8.83260614504675 -2.301617354311088 0.07806383418296234 0.22180444173844382
Ni 0.19120653128656775 7.462857482924867 10.087528676968121 -1.2042872372448161 -0.4184056447383826 0.8898814298288673
Ni 4.9016017339871185 3.6482179184181334 4.603793118638102 0.047751813462982275 -3.803739896207681 -2.633082945422801
Ni 8.297257615202048 0.14569934172251395 4.236252465830091 0.059123288524717536 0.4516919175953382 -0.2508255115611422
Ni 2.537569682804636 6.667891000351155 13.144739968821582 0.4653874128045598 0.6343770247348172 -0.6826970519964436
Ni 5.112650775064714 9.144891632263706 10.992142330920265 -0.3799419414455456 -0.09380104241256103 -1.520739642777149
Ni 7.509564224336005 7.792327613128368 12.284179810245924 2.117867039131888 1.9533431762824682 -1.6614921142385837
Ni 9.309280139628433 5.090766809164126 2.7544871015624994 -0.9836919853231252 0.004545710389153462 -0.6447370278129025
Ni 4.91043664589631 8.817380708466844 6.780182176224586 -1.0324807246910543 0.08562879101441383 -0.8676650416328282
Ni 1.539169187828195 8.479454569479964 0.6925868579791584 -0.6366570790182454 0.19710153967512506 -0.3098382426499245
Ni 3.0946959008439077 5.176897958739079 4.2779124024362 0.8126298071345552 1.6901061784308504 -0.7655786192830234
Ni 1.8919742056579578 7.5126324155011215 5.614787983854965 -0.1016382790687927 -1.2882908339509813 -0.10044580142258829
Ni 2.330392846842051 6.095811971151767 10.716104934688058 1.078978354031961 0.22734311216848588 0.044331989148155906
Ni 5.443812107024892 3.279332621590472 7.433024868767903 0.30864653633466843 -1.2136457956415807 -0.9614372876899828
Ni 3.6085717133026245 1.6678391444303478 10.37891719471953 0.8107562442609264 -0.18627745247642757 1.3173859515447246
Ni 5.490685196149801 8.659498245018508 13.219781270811776 -0.17988209047304501 0.30059872632952744 0.352235990889845
Ni 8.072069018453885 0.6822594374158526 6.639850320733094 0.23513021231307246 0.1834358692625744 0.4476470581020033
Ni 7.503390875847156 5.50739389984417 10.831900502398272 -0.4868129296681874 0.3727634214192354 -0.7673544802365236
Ni 0.916867935533301 7.467598392767351 3.128911777258747 -1.379450067865321 0.0465127988495586 0.41019508390313225
Ni 4.376663798562607 0.05969664954875147 1.8804823510982527 -1.872695897643046 0.25877741941836724 -0.2531762711815059
Ni 2.3385438848168483 3.4814635769019917 10.542933268036201 1.1001159073415248 1.311518437020354 -0.14303098308296658
Ni 0.12417949248429135 5.672928358125989 12.12104353150431 0.14442683498922868 1.5832868693817506 2.063939178765181
P 7.2024308954761365 5.295217390928792 1.4119982089579153 -0.48533171713697065 0.07776610043688542 0.8456785100594081
P -0.056152519091455945 1.8606546277706708 1.1397295125965947 0.1230843647577106 0.7948837960050439 -0.1650033735889997
P 6.513307766559285 1.8941921751749096 3.8492352682013506 -0.2060204394313097 -0.23260770300153485 -1.0007638532037475
P 0.8942973232364226 1.1942749279422262 4.214448901324492 0.6990641805005574 0.3808287149258731 1.8586193649453218
P 0.9974024086938125 5.532013361482333 4.6222152037843145 1.4773191096996687 2.007912012667284 -0.42730963209623185
P 0.5479687763961584 2.7111997298233277 10.424270050571364 -3.343718375700725 -1.640586217323852 -1.015305498463348
P 1.0491827553749777 5.661459607415418 0.8114404511608697 0.36372573669699937 -0.345151830349554 -0.09478140404795934
P 6.882313203402448 1.2718484117976072 10.592302497021647 0.5335681835458553 -0.5928593651070048 -0.9326329618637808
Ni 6.58154729536416 3.8006940811689 -0.04615317318586595 -2.1016549481483997 -0.7322977457427066 2.383476136760108
Ni 4.596954379294167 6.927106946105215 1.7351600641936202 0.039265116148209794 -0.8320534630768057 -0.6385609809091776
Ni 4.231636316772936 5.148554156620368 0.1937673619246814 0.38958692073447737 -1.2436035183459357 -0.2185183147880043
Ni 3.835266681014383 2.6158362821340644 2.3316265923858555 0.7008456978810124 -0.8413960806339703 -0.8189714330818669
Ni 3.2491774776995848 0.36291711051913117 12.634907329961475 0.6340970316005531 -0.7938388996802974 -0.8117435478748599
Ni 7.47398429666824 5.2455256322094215 6.989022489324884 -0.2942930958264738 -0.3483826785820258 0.023476485855385372
Ni 5.988000169548613 8.920433117148205 3.6423698721251045 -1.282016313796179 1.6374440721504442 0.2892974423840953
Ni 6.562038405154641 7.71133475960102 9.862186670661703 2.0843241701794364 -0.6561002753445216 1.2744361874560761
Ni 5.576770138026485 1.822228305889485 12.19298799355646 -1.2070213483465277 -0.3946856754136235 1.0532182143487216
Ni 7.953241301583204 3.595162239264721 9.06511681366275 -0.23170087491654937 -0.6771637808830402 -0.5177355873889729
Ni 0.22035896812499994 1.9038773087322647 12.382959855145259 1.0483246337018461 0.3610944697217394 -0.609803449160511
Ni 0.6056156524496604 6.237068904762621 7.197443236524892 -0.4433633431249848 0.09217713365589286 1.1419377284733172
Ni 4.075703818191587 1.0533968974571857 4.221185059578267 -0.7133266039568424 0.09776619770789614 0.4264195161817946
Ni 1.5771057081077209 3.407189322703076 4.057304836894508 1.4048847058883418 -0.5150171600165453 0.2806824470215747
Ni 8.55797069038005 9.1666739412281 1.7343347947025214 -0.5316812509357876 0.14375757683634596 0.6378667830556305
Ni 7.987277892128757 0.21533341886117385 9.004696551559093 1.0538180527162495 0.027900840175326146 0.7090066364252499
Ni 0.9248470808705342 1.2883630431592425 8.348094400684543 -1.5148186493070233 0.05658432415294771 1.9666182961248198
Ni 5.798631780499219 0.8670042841763681 8.487519661135979 -0.4305469080866069 0.12081382355597903 0.34865033042111565
Ni 1.663643485427448 3.382551377985606 1.751256053808931 -0.7779458825991247 2.1564760097533378 0.4477478453459256
Ni 5.399286368972089 5.495305965976784 8.194682994120795 -0.30755253193954124 0.4820419906421053 0.8259373228767389
Ni 5.203291795990802 5.715023571249799 10.6277946300627 0.11395849119704246 2.1577852154830643 0.6286241814114399
Ni 1.3104688060115266 0.3339568977055015 10.618177883898785 0.7557888868861112 0.7847269100767 -0.3601447042139604
Ni 2.799391742741115 2.3903889222755916 8.142594904169153 2.0851384385506155 1.3704499212492396 -0.28167977793783744
Ni 1.106960861291566 2.2417387569415665 6.265047666064999 0.5263300139262033 -0.8947737249241622 -0.995496177046905
P 1.106193813500287 4.092163000315298 7.655377236996263 0.16072762903178128 -0.009541106721215825 1.2352713443311565
P 6.361460028504988 8.297950730676094 1.5233439753247455 1.6265068564126504 0.33900098025680975 0.9690899191392341
P 7.726038049190478 2.8938402780046357 6.978743124767778 -0.9945811214318032 -0.9300824275277852 0.34754809849587237
P 7.20766160692028 4.604865137237962 4.746329081337063 -0.7589888818806477 0.9588597567707938 -0.5362372457375861
P 6.902663073720479 8.091781222535792 5.410695973828874 -1.0829404240035025 0.8243658646245609 0.36350822136955463
P 4.040567484427212 4.700866251163348 2.3330063542561925 -0.07855260089392278 0.8445896478706034 0.516110393080724
P 3.5015177179510952 0.3516341147556055 8.83973506873582 -0.305500534506519 -1.0935169139677683 -0.811459698085854
P 3.828538840146296 2.262310424211292 6.1025194806326155 0.08631013335215458 -0.23442521582624787 -0.16255131250408134
Ni 6.5551534581124375 6.074815193057959 13.041997151718627 -2.2601886548526555 -0.9766039681280922 0.12828622067362422
Ni 2.6161967021805688 0.2953974976532985 6.340562134885477 0.05805242405804195 1.3227359030027284 0.6507896617648856
Ni 5.966615246789339 1.2886125647298996 5.815810878561975 0.2349551201877889 1.7158658038934578 -0.1844933639928113
Ni 9.220653774346909 4.148139005999363 5.786540150015972 -1.1618645493042312 0.7952941440695852 0.7954489244798946
Ni 6.218197680789225 1.4532783182842455 1.6588332640375592 0.08335130783414678 0.09148704956740372 -0.14305772255584395
Ni 8.67286151135814 6.951791098520956 5.2540380143846885 0.36337143868137417 -0.6164438372951642 0.18360067697521282
Ni 8.65707696162917 2.761141010113354 4.094568573087225 -1.6732608247387377 -1.1032783642299064 0.04548461469536037
Ni 2.940195840908923 4.275043828527609 6.434662264104043 0.4225379217392013 -0.9443332810198446 -0.8663764047283917
Ni 7.571676612350303 1.0294890343723784 13.200398989695517 -0.2513322759942317 -0.8034519972900291 -0.0430243260803259
Ni 2.0861204707084515 1.7826283084722456 0.37507712839581814 0.32764313204182927 -0.755192648063009 -0.6382740457963781
Ni 2.061149830563439 4.382929562447995 12.596452359307364 0.22470336055279366 -0.963400839174257 1.251488320410651
Ni 2.7021615040417504 5.592693310850265 8.303485488774854 0.4900548336442528 1.0432014535426677 0.49135581184386345
Ni 8.439817605904109 6.908171031354241 0.9722709657588204 1.2071190502666567 0.5909150968964404 -0.5130433241196262
Ni 1.9973000330941955 0.6900537519600067 2.570615580299283 0.5953343090100586 -0.05415077501079061 -0.2862586555577715
Ni 1.9788631614845358 7.914491525814131 8.712645415414494 0.7533784776724057 0.6061450264723174 -0.4255756801242606
Ni 0.36772918021695067 4.886611956668387 10.046396432276254 0.9347901174160997 0.26732710876059124 -1.5990762710055233
Ni 5.515258450089695 5.885520736325796 3.662387971169558 0.4001505551829367 -1.113386656308502 -0.4171689441178041
Ni 5.289801848691567 5.170641436393344 5.914942101968159 -0.22097166142450334 3.1948507313313237 1.809182707580749
Ni 6.734587192033819 7.7211862408721466 7.560006396075276 1.2301090834039266 -0.6115996218289854 -0.8750168540122092
Ni 7.312368251199703 3.1809749150533237 11.641697807808667 2.84311739110951 -0.12484197087876564 -2.9031130549368522
Ni 8.980669472612748 3.9558133242607005 0.35925099173840336 -0.5487441199553453 -0.5579113882769101 -0.12268173000265324
Ni 5.670072722372914 2.9756741116404943 9.738627285488192 0.3592167930830523 0.38225721984228367 0.578309749427604
Ni 7.3934350370442825 7.260680319915078 3.290777344297942 1.3710006515463873 -1.648178170738497 -1.797006477229531
Ni 7.263517472588845 3.457869926165419 2.456741328683128 -0.3138198530054918 0.5369239873919656 -0.35449290524482174
P 4.138306007807545 2.484892906777036 0.018009912477646738 -0.9036679420899985 0.6241972559883379 0.8361667139142309
P 2.8664853206288994 7.792087333097365 2.634512509620762 0.8016884776317031 1.1540473672526579 0.21177174009279012
P 3.9747769636306365 4.352977732429495 9.524471238778935 0.24615793088214383 -0.10930428025448272 -1.2566441535799777
P 4.054106340020271 6.909039736081715 6.7318812692231385 -1.1535987097510132 -1.979173764192327 0.23322990996656606
P 4.394490728555105 7.341765588838965 11.89786589378485 -0.9104104030201547 -1.3225775230479933 0.04890546745145126
P 7.9721032840169475 6.290096859297071 8.761270700457796 0.5486932121127518 -0.17966611780749703 1.3810444089356344
P 0.5162721436909896 8.801716298753373 7.307030337895573 0.6883979590359628 -2.274856541277476 -0.985131288872813
P 0.31731103648077996 8.627993836338142 12.211207688984253 -0.04896537415510922 -0.2286821426948836 0.9145365093733863
