# total energy = -340855.7000675215 ev
CRYSTAL
PRIMVEC
9.39557912779905 0.00000000000000 0.00000000000000
0.00000000000000 9.39557912779905 0.00000000000000
0.00000000000000 0.00000000000000 13.75137977322092
PRIMCOORD
 96 1
Ni 2.836393733586201 2.8211447090219273 12.094971005668755 0.4192222271024071 -0.46622739220735193 -1.297045697325476
Ni 7.74823326516985 4.987060536304276 8.548998724603912 0.18962425746147343 0.1031043220913579 0.2804626177012847
Ni 7.4346652147643795 1.5208153796033286 5.7890831241959475 -0.08978703615716149 -0.03149961327017801 0.3974226147288123
Ni 5.130136411883304 3.2372748987641904 2.3984742568032673 0.7323478822543517 -0.8224084837878739 0.348726949295322
Ni 3.626308238941841 2.370692469536415 4.235699849431101 -0.18983971590638918 -1.351218069602821 -0.949988679533409
Ni 3.9039100132955307 8.571051087853947 10.967714816602047 1.0384724234981149 0.6822049428513735 -0.9256493314570962
Ni 1.0037296945171814 1.8194162728117023 8.183955116046693 0.328834324136453 0.473769466220668 1.3138712535232469
Ni 7.106308523161023 0.36686729042285393 1.675866860055816 0.06051888332066352 0.11566081860012985 -1.0140371732738858
Ni 5.359031505188814 6.943182482196806 8.423737806188358 0.11678361935066339 0.4450358457314013 -1.1120897918739492
Ni 3.323892740697672 7.539059491987822 7.334669947584678 0.8688891438479164 -1.4711541185395374 -1.4399057020482169
Ni 3.266946136949019 7.0164116241893835 4.446205915701985 1.302606479242705 -2.110668207390604 1.0359283169200222
Ni 1.7128234301242788 4.981949341379467 6.175414295880262 0.4183637357568537 0.2629472345253407 0.38790850459079
Ni 8.561392432738684 4.3137545607497465 1.9722231494635702 0.7360921797881322 0.6726070147502932 0.07138436528025771
Ni 7.008415986540463 8.134917710621027 4.009902478490867 -0.5237511974554334 0.8781919093060813 1.193363391243461
Ni 3.638851336781216 6.413844962217367 10.653578333672773 0.1377990452600659 -1.6766749926266091 -0.02499626493402147
Ni 3.913174054096747 1.4290863427450373 10.052726364851083 -0.8682612804559304 1.829375894699172 2.2947247409563123
Ni 7.0075140109654965 -0.16556231457451662 7.988684920529615 -2.3421302268234694 0.7837177520858954 1.2248054118028262
Ni 9.088738089990072 3.0245683879135443 4.597911630506083 -0.5430663528442776 0.4733123240785913 -0.8893936915591714
Ni 8.399046224823655 5.673276037275509 13.176118391254763 -0.059741638835006786 1.51272422867184 0.4883725608458234
Ni 8.167849214686202 -0.00014657103093202313 11.348889694582807 -1.5137629543489994 2.8179789441706693 0.4273278869286769
Ni 7.9729285347044225 2.9908946331148027 0.0736444265802169 -1.1338840049309054 0.3427131390010743 -0.9369626995873863
Ni 1.3937401749010456 7.328344843865226 3.2921215906273753 -0.2318183743310201 -1.9472470906870596 -2.3740705271754923
Ni 7.3717336272526675 7.481483384452473 1.7842279506933296 1.8710457636341327 -0.979050887006688 -1.8939643201035188
Ni 1.4008150458171875 5.843373597787903 12.204033006492649 0.5911976611338656 -0.1890359890581712 -0.3102501333763625
P 5.989503036511349 7.221789583493427 10.334574001312347 -0.38431358815068006 0.08457952381429304 1.3176150368363952
P 1.8666478479716557 3.1949760025298333 4.9702302358101385 -0.5446398679789847 -0.9273467737641771 0.6853877114547293
P 5.176700900940939 1.3296247444471914 6.4710283345544495 -0.3549641884542854 0.08479369670762815 -0.7454936756076903
P 7.131028291262444 4.09695157749613 6.691434522318479 -0.6036315160218443 -0.1690194367269283 -1.0153314666052773
P 2.8601833393759373 7.461113769384484 12.678359411978048 0.13063569474240727 2.242648589086363 -1.8402277498120114
P 2.7658799138974297 5.345276377670578 2.0285073648993577 0.36199872670356364 0.5908441344491888 0.21307837471935562
P 2.3787444806587703 0.0356928647056194 9.37227974932807 0.5713325467788225 2.1415142462371826 -1.2472064052058456
P 4.904586144668294 0.8451905751748243 11.752575440064206 1.2218735828680118 1.874927358076726 1.5111417146760686
Ni 6.916029259158759 2.5897597873063543 11.460510111542776 -0.10754744546437606 0.7574994418193147 0.2913334989775176
Ni 1.6400076936035624 4.923170599744163 3.7490248345896773 -0.48982986211764035 0.9183401993901926 0.9011642018315382
Ni 1.8151694711462358 3.3527183767809703 2.2036174667580486 -1.4408580386591572 -0.9459731306161127 -0.5051428383256269
Ni 5.742474475917454 5.4816156231740765 1.7241065808323728 0.1608476995494133 0.354701421711202 1.4401882662856424
Ni 1.7281758060565175 8.457674637196465 11.11222821575368 -2.912739265172706 -0.931281332931893 2.177830564169714
Ni 4.245965458943687 4.792412328110768 3.8073027918692963 -0.6354527742974991 1.1125569613183548 0.21954058540493157
Ni 5.690563902462363 8.349249656622392 12.404459495713283 0.8591228084897721 -2.934798044744958 -1.058793137333338
Ni 2.503987547474403 4.284731617509426 10.238355756852817 -0.3751540331385991 -0.5714991542636738 0.2818196459498114
Ni 9.139154766399125 0.903071099466724 -0.3240262692856266 -3.3382748360876504 -3.5780641444392893 2.6323522379043633
Ni 1.6243076812518051 7.644693985626844 8.997637617360587 -1.0830828631186378 -3.353577784993308 -1.4659910862813592
Ni 4.410688748321906 0.0200586214062036 8.564001585000852 1.3556851042352394 -1.9805745011945952 -3.232889688381916
Ni 4.8113632107639654 8.398153644827596 0.7909188927406804 -0.1418459616359299 -0.9936182432979016 0.5940191897430608
Ni 9.168328038901942 5.129328392097397 10.674631946885109 -0.3200007850052231 0.3832427236840045 -0.5637444500189194
Ni 6.574152329509815 0.8439860619590881 13.042716203717248 1.3447561160275614 1.6655248895470607 1.4473369615152816
Ni 3.330272338774778 5.975926424992325 13.837188504400139 2.3354864962547066 -1.0372884304923427 1.0365188993161698
Ni 5.555352126427572 3.2032253208092123 5.163464409378309 1.6636564688797542 0.4435361212574232 0.7899187386902847
Ni 8.628899667177567 7.430568742361407 8.956781882046174 -0.9442229806942255 -0.9732995863452076 -0.22542738320301176
Ni 1.032959340493433 6.538655832403329 0.763450917809285 -0.19703417677229937 0.04296596203856471 0.9867477414303134
Ni 6.105839094524189 2.4721741172990295 8.17614363174433 -0.08730206495177867 0.651674378362684 -0.8493243343421114
Ni 5.096161998559573 4.708885631637326 7.646619139744662 1.367669016069993 -1.3183855964538327 -0.18187932340873192
Ni 6.0845956906179515 1.1036986540759461 3.613848761754728 0.020453639868661548 1.3331298446425428 0.3600544584929992
Ni 6.294417758744487 0.9141653990388096 9.920039180868306 0.1623762203787978 -0.6234572924985199 1.15849486150105
Ni 9.029423800357133 1.8114018440049702 2.0348193148083404 -0.05316578538970199 2.2335191159812697 -2.8197545480138535
Ni 0.8636406734723381 1.4681061819412355 5.934187505260759 -0.43695255450263454 -0.037128529421181215 -1.079299741927122
P 0.5351101636592235 4.29936053386591 -0.11277795228117649 0.6330079123014324 -0.013744346169286008 1.1770232593225405
P 5.406422805190168 3.8056792358343574 0.29786146114847933 0.3393223681519704 -0.5590023073482437 -0.28012014676020147
P 4.267838366636619 5.539107170499272 5.910507827744222 -0.7763643970446178 0.9383580372730161 -0.3609682285565203
P 5.479999583602263 7.437878502750197 2.6594759223460147 -1.5242085751623555 0.38442645957946053 0.8752497959586215
P 9.681580327794482 6.088861283441229 4.845394937119021 -0.21668923199906553 0.7270215849454317 -1.612621613790126
P 8.108816792420438 2.071790917803053 8.919736053978106 0.675096099720734 -0.8406669157774297 -0.4958755540910879
P 7.1344858642998155 4.7130572686715455 11.815501390228574 -0.30834751703701085 -0.92752058033788 -0.8952370377138259
P 7.316139986866465 3.125373553994934 3.2660761063423327 -0.9076269267377464 -0.933302991347612 -0.012000366894985784
Ni 4.358486911920732 8.992921976307715 4.313064925258054 -0.3579626089609771 0.7380397904328064 -1.3632369484405684
Ni 4.744748556321142 4.245307768420274 11.989126051062241 -0.2930391688147147 -0.1567251927406075 0.4645939703689869
Ni 2.5952468053873994 8.917738553902712 2.1030669208650092 0.8866050730704408 0.8134985828927538 -0.6870201048518297
Ni 2.153964650914045 1.7762717744758143 0.3578400182100662 -1.2048595648085185 -2.2917088369481244 -0.3956912338600024
Ni 3.170679035479179 3.7252061025053327 0.3024634156965886 1.422126523687925 1.33986227827037 1.0728025642385524
Ni 0.17511198097447228 8.42620884344061 4.6583486918182775 -0.9923386052545297 -0.118672351732944 2.79116748040478
Ni 4.9809158276998176 1.3274731568777405 1.0302233479160354 -0.39045492516172753 0.42882375474791307 -0.419691967649974
Ni -0.024012281009805868 0.25689203932930704 9.55687844632383 -0.1642785796078332 -0.6042884328795528 -1.0244593970484743
Ni 3.2009891730296087 2.739750808960125 6.746151555192763 0.7033247555491242 -0.020475751355848608 0.5578900481206714
Ni -0.1806506747394997 2.849397214791965 10.542605272099417 -0.11094567251264763 -0.395698432948854 0.14628779945736742
Ni 2.1923831730602656 0.08452732562691961 7.181809516133046 -0.0715741126935606 0.2562191717728877 -0.05546872249126576
Ni 1.6369823171958626 1.4010875176054587 10.826474837141234 -0.3193397543824565 0.4469037521780755 -0.255130052473767
Ni 5.880317014045898 4.970824975954882 10.028317590411447 -0.2804677599076073 0.5745114587274364 -0.07332271995355114
Ni 9.132822146216549 6.325958717131589 6.761896666323269 0.275612488697835 -0.6900828029375534 1.991522258455351
Ni 6.551358655084105 5.958958009488271 4.745146928866752 -0.6802671023987124 -0.8181224548180104 0.6167860511259313
Ni 9.173937199508764 3.5188134206794515 7.156176497761973 -0.004811048235398165 0.06796479807574747 -0.20674317652994717
Ni 1.2103572658157105 1.0792889400784207 3.4551987745812816 2.9514557079062977 -0.08519813123489842 1.1196123255032395
Ni 5.92816869741364 5.973427201003355 13.26871933783552 0.043009670792306574 0.47855197521097587 -0.8902856072458216
Ni 8.975286474701342 7.4270735870084135 11.290309199662415 0.9348338261698417 -1.9811923372842526 0.47420552531682203
Ni 5.44893779973936 8.633719599156294 6.233252540067085 0.7453262967918906 -0.8530472917196535 0.6190931019925531
Ni 8.937863883919148 9.12925182623231 7.157620598239809 3.324465955229017 0.3067935422863297 -1.6048350278661716
Ni 2.9352258280973516 5.264389838869694 8.136746090276114 -0.2383718591788217 0.3788517937051605 0.4989685911941149
Ni 1.502465814000108 8.86397705140316 -0.18712234948988288 0.24277333068062704 -0.6728394424760735 0.5745199433678686
Ni 8.470612349349889 0.5708951050381207 3.6245202602760487 -2.607146428062697 -0.2235072833621635 1.6179538246363168
P 0.3418055232492591 8.637881840611605 1.8436333774416565 -0.264555459552725 0.5505006976351358 -0.37990517467033924
P 0.7936934071915923 5.449539116789339 8.668443779676714 -0.6348094842865454 -0.2515402782399797 -0.080090634805004
P 7.497972625432325 7.575730436457546 6.691599884507223 -1.944911243465031 0.4483456268309246 -0.649580471948133
P 2.2542812468923277 8.711994167021336 5.154773498890352 0.3518395267823747 1.123957489845813 0.38520936049207205
P 0.6584365323780527 2.2928876806166665 12.57299645056941 1.6310551379049654 3.693763272476523 -2.184801081950276
P 4.086794956698853 3.1272056918815845 9.023793029918828 -0.5000129732982291 3.6747504788194454 -1.3511046839534084
P 7.828039312396554 8.152816288436762 13.055944239258862 -0.3831180251806821 -0.7572994099933668 1.27323188273533
P 3.1470961324253723 1.702601040274661 2.1583204412948196 1.5960107447063223 -1.0653545926009393 1.5120909659632151
