# total energy = -381174.67014472897 ev
CRYSTAL
PRIMVEC
9.12508136504381 0.00000000000000 0.00000000000000
0.00000000000000 9.12508136504381 0.00000000000000
0.00000000000000 0.00000000000000 13.35547895510102
PRIMCOORD
 96 1
Ni 3.380222193546953 1.6607100841514344 7.871572712153069 0.2109523295152883 -0.23320265627305647 2.290158975962501
Ni 4.6362987883441935 8.9242567151633 1.451192737655575 -1.3850990386209825 0.9493857558420875 0.23043717771277733
Ni 3.1748713592681095 4.777217422087893 2.2610957345451403 0.7868164456158772 -0.8842903088943352 0.27822318684780467
Ni 2.967056752981832 3.5293899009747993 11.673316183402948 0.38344249839963634 0.5795575057917761 0.9521244949294894
Ni 4.605766265615035 5.091457854013797 8.808833559155786 0.024757409450338004 1.0309989979392051 0.1505028659799795
Ni 8.608976023945369 2.5455966133250176 2.6222819733104665 -4.818695210420462 -1.8619276033829482 0.3446841466845161
Ni 8.269869744907403 5.774643581512141 11.033081302059378 -0.7485157502634657 -1.1431777715280054 -0.45110776295709404
Ni 5.1725342032213835 2.403911472734562 12.40334004177891 -1.249468718877461 -0.287243388068544 -1.448371059206751
Ni 2.466719408761103 1.339415964219063 5.765894453361299 -0.10197586491386955 1.3675792845696642 1.1715817765919951
Ni 2.3873311996326843 8.96969049599668 9.738201210653207 -0.3083349186315206 0.18470676555519802 -0.2824775912487845
Ni 6.327550520306298 8.126441713748727 3.441439627866473 0.6871795132478294 0.46999997187590664 -0.7904188182551548
Ni 1.3027696368788642 3.2952129342089815 3.0601143342107533 4.144579986555758 2.033864727977304 2.9090006240658806
Ni 6.778867926660604 0.7959288470666614 1.2853744939982314 0.5195595279715891 -0.3684401114535332 -0.133212454330648
Ni 6.440619405284486 3.364298926313724 5.082320909898821 0.05805165272709357 0.6778844610991487 -0.3511594699962146
Ni 4.364444360027659 2.5769595184714973 4.01422920676062 -1.2811213127857355 -0.5285972126938251 -0.7011141210510506
Ni 6.310258490846716 6.960858552276374 11.936206131645028 -0.10383554383042763 0.9632568573972251 -0.7125182491229342
Ni 2.0642029383170013 5.763428856337564 4.837394597115385 0.16960230581359179 0.8189634626620671 -0.6088948213033127
Ni 4.453404779659033 2.989066449581573 9.716872245134038 -1.2118033431162034 -0.3476355160033562 -0.3906701264963272
Ni 4.2671892413045915 0.19915399142607254 3.7871862287185487 -0.9490132029940171 -0.39716704707458056 0.4851108593754161
Ni 6.626223563177824 5.132201342951543 -0.06910880480851506 -0.473109721149482 0.050001014508475175 0.8272655547698591
Ni 3.7691970430316792 6.974984178452327 2.8958555669833 -0.315347859614244 0.32585595823441943 -0.16367179926176975
Ni 6.517908845665832 7.603236915266409 0.9875446086581378 -1.2412077644202493 -1.0863095975860517 -0.3086110551110427
Ni 4.422251751387261 7.504667784806044 9.65265904655511 -1.2296725100871404 1.544451641682108 -0.39413803044026957
Ni 8.927048990105058 0.6117901772636709 10.37850270509179 0.652691763883605 -0.08668834262717974 0.6812006699565752
P 2.5132755746200908 3.5643480882358314 5.276335655419017 -1.7647689573520637 0.5372618303473586 -1.0417711488540444
Ni 0.652024486653214 4.357053044005358 12.274460128070052 -0.47360234451518435 -0.5928287689793855 0.5025707067230764
P 0.6483069284464418 0.22656756129545141 8.421430961215064 0.5418137113840991 0.41578106263134207 -1.2902147904465717
Ni 1.1150393349939258 0.9222811131975209 1.779791485335912 -0.2613688342946273 -1.2459540208559832 -0.361925450263467
P 5.9578113426425725 2.605256396230949 7.720041608614388 0.00994502702785384 0.025577334248472076 0.9714753886522752
P 5.61358589287805 5.98170080603317 2.561661319321636 0.3465597664406741 0.5936312102760228 0.16258473684517807
P 4.298260143842783 0.6963103322327591 10.698339549507173 -0.4227009296796268 0.6380141072667722 -1.4805810682803922
Ni 6.16099953260378 3.900552591353931 2.831228089703862 0.28116092931988995 0.7241118674978045 -0.8336519179121772
Ni 2.188331422084114 2.2757770781849924 9.85418008412462 0.630753826159933 -0.08633147350839325 -1.4827220258827947
Ni 1.1275224464982565 1.0358975030662503 4.135283450567346 -1.1164105307364902 -0.7022541481927648 -2.079558887580309
Ni 6.733160393381955 2.9440432974160995 0.47957413375511904 0.44884056418947216 0.5948303727904466 1.0760182429623726
Ni 9.088645058548181 2.9868490547748823 9.904436470535513 -1.8495929930769952 0.26471743905188605 -0.0020031464729578408
Ni 0.9504958652233914 5.947910629205293 2.4366805529415814 2.19250333569054 -1.2241124995008597 0.2207541460970585
Ni 0.985645679196112 7.199598059796698 6.800115678954343 -0.3856906710038648 0.27941412183211234 -0.3847265073183826
Ni 7.508071440208906 1.0369103871137508 12.308877197997598 -1.1391375400203607 -0.4316594244244953 -1.0084833333351924
Ni 4.629527977864506 0.8837705317050306 6.087267048994648 1.3403854977636915 -0.9517575985083737 -1.4549001185745203
Ni 6.662514012339171 8.266347463444923 5.824939205773523 0.8912245741203232 -0.2013585151792661 0.5147723909955909
Ni 0.10726898317105933 7.515298504764044 9.424093092409183 2.052657692314091 -2.2572851080526153 1.2578757119942336
Ni 1.1946465460785611 1.9863294927190784 11.736180694934845 -1.0313535530651465 -0.3363226620936982 1.9902760447530756
Ni 1.316055755555988 6.677205393568683 11.620348735275726 -0.13864648086202574 0.8344191350955049 0.44824252559415706
Ni 2.925008377388297 8.592897630326487 7.438480831096714 0.13812531825123306 -1.1302795754090986 -0.40234730572393934
Ni 4.214236393307785 6.985103893845824 0.0914187165899026 0.23663559321400537 -0.1929576927100806 -0.20595153386658724
Ni 4.32770678187237 2.7232071998164598 1.230126688001908 0.615597687244785 0.662881045711781 0.46829404492839344
Ni 6.935363074540189 5.946769994016666 4.631733510065235 0.38122080815796927 -1.4093548258445534 0.07724725181893793
Ni 2.1870356605098342 7.986681965356674 1.0789049247263827 0.3748010206745545 0.23472912021991188 -0.7217600794361763
Ni 8.820860416584667 2.0747515325414208 0.39208650227929953 0.9070165468472573 0.4521282338018085 -0.8046876694693431
Ni 8.761775513813802 4.359890944354661 1.1467124929117123 -0.4711875644261046 0.06259607756466638 0.16703531641736394
Ni 3.773157328406591 5.917487607454241 6.7646702123407305 -1.8604672167873375 1.0109914444690264 -0.011615729862057415
Ni 7.8564579271415385 5.9410485679105145 7.557385205699918 1.2587727698872062 -1.1468655047922378 -0.3634272316199741
Ni 9.225274903982644 5.059173315634905 5.782441876169744 -0.6647499805997197 0.33199986634862827 -0.14436075763798362
Ni 2.87076889289872 8.47943636684341 11.912619620960529 -0.010884765233303836 -0.632705293459349 0.6944212824119073
Ni 5.784206666933588 5.055733159906008 6.5680511685578615 1.7819729799351764 -1.357667938993223 0.11527849556004663
P 0.522363465967186 4.537556281335157 8.048759894862494 0.0022880247032283176 0.4602979140967944 -0.05363321194442377
Ni 0.5000079287782534 9.002486038940075 12.940831980379889 0.120865759839837 -0.7064992966223639 -0.7768441648945137
P 8.597241169124777 4.6922629132389755 3.479382629289103 0.043973834477788784 -1.748027733337983 1.4344765606128458
Ni 1.7531197845932158 3.0670037707500586 0.921096677617651 1.2246424038624006 0.7848120135913387 -1.692706592168175
P 8.287818780235632 7.920853627350648 11.337118980350054 -0.34885601867401855 -0.23654560460336035 1.4880043573276567
P 8.478478233284964 8.421875352684554 1.3794075464404665 0.8871951412459559 0.40474794474563197 0.17308615059713417
P 7.693830724487897 3.466983468534655 11.694405159278428 -0.6189678892685986 0.010792205519497543 0.04130734338921918
Ni 6.302748548764799 2.014735871456638 10.288192685905234 1.7935987370995627 0.11363221820587527 0.932749175726671
Ni 1.2721641134976325 4.8643710755804825 10.074933143482529 1.086457950238458 0.4967124481700864 -0.6543290423767117
Ni 6.4334105908923656 6.595280411780759 9.362163901731963 1.676752897052396 -0.7796980894035411 1.931841040544634
Ni 8.519376848608363 6.504969480086051 0.2337024625273492 1.6123027969981265 0.8606181620883758 -1.3039344540255093
Ni 5.185537444371728 -0.03671841548412012 12.388756336511202 1.0592862749196723 -0.5670796850397395 1.324590439712964
Ni 4.96486559823925 7.067950508866158 5.008451550067054 -2.4999954467057908 0.21898265601893255 0.4703982357555898
Ni 4.251557976679651 3.1955396688860254 6.435631635731659 1.1024967488688755 0.550615111725813 0.0850199537858213
Ni 6.80269351448064 4.246119428100279 9.30121018226805 0.49107350471675426 -0.793008433359202 -0.29336621313683026
Ni 6.506593744594655 8.847368778368352 10.15785732169569 0.30381723326682514 -0.4379416578887813 0.9893833792809477
Ni 8.934586307431504 7.447663400619235 4.882255322829998 -1.0063202642456024 0.18248276132068572 -0.7293695163523181
Ni 7.743206540533169 1.394075202458055 8.566871985354629 0.029840480400200223 0.4630870468061573 -1.6459382256643844
Ni 2.1825461204073995 6.430280687934774 8.447127190744446 1.1686512332087615 -0.7914053505381402 2.0507782159031906
Ni 7.7800536196665675 8.136734805690892 7.998810111190303 -1.359189517844072 2.2961427043497613 -1.638762790961868
Ni 5.398927475460012 4.707027295120559 11.287503174661095 1.574024213132902 -0.8484103071682743 0.09315466707781377
Ni 6.9697372565846445 1.3963747229983263 6.05485293445833 0.2687939231141049 0.09327268071291679 0.7052731375247466
Ni 9.227373672729716 0.43595715665018453 6.245676638974824 0.2678842668156418 -0.05592972128808432 1.1071859268144286
Ni 5.53216279057312 0.2654969840292056 8.099924226883532 -0.10527099072537353 -0.21910144098498396 0.02759256490628796
Ni 7.9274510612816655 3.5051171841608233 7.080741135617342 -0.5556696434305849 -0.06018952500570279 1.0512428357899057
Ni 2.0810660889456587 5.721234479439883 0.4898882133847572 -0.1603440204401174 -0.5551212271262828 -1.7312281452821412
Ni 3.5246904839976576 5.738563009225501 10.831253661751166 -1.949195986883314 1.003188146374524 0.17667695327218605
Ni 2.723553952913802 3.8955520466869915 8.077286724675972 -0.11502986988435028 2.0548169047489386 0.4964813059958868
Ni 4.197427993168182 4.799281869176688 4.604488754203772 1.398305252898611 0.8143033381822364 -0.9280288874328663
Ni 7.994118906786518 6.517306590286237 2.6558303354783557 -1.6218899264659292 1.4270077630396263 -1.1223927164618541
Ni 8.972783898628236 2.779445077156511 5.121451996933924 0.258444975779613 -0.047031133246873844 -0.36539001177329977
Ni 1.4967414945159678 7.897675920317753 3.2847537657833503 0.6634356326636703 1.4790448341415237 1.519304195882203
P 2.7693071115999968 8.397985889293954 5.274519764198724 -0.20703859628317892 -1.540435321433863 -1.052383634262568
Ni 6.354232258638653 1.5395563769562601 3.4084250829668616 0.6186974092160312 -0.6246608258883177 0.7931727268512081
P 8.1018131187559 0.4381471762123479 4.36401000614783 -0.4679446320087747 0.014074990035827373 -0.5426398068298203
Ni 1.1059325036479302 2.387614077159464 7.621331039390633 -1.6826273535553022 -1.176077864690136 -0.46993723695877127
P 5.78122276528014 6.9550276251921135 7.439229087780454 -0.9510988818784523 1.6594550292038968 -0.6631551253087741
P 3.0508980018866496 1.4452030341530584 2.4001263889246234 0.5767629737657745 -0.05484163043022813 -0.08046138788086143
P 4.011988086742006 4.884619631448984 13.084242673883697 0.20237975735492886 -1.0048015136082307 0.030257256222644666
Ni 2.999770170191646 1.3744380270506575 13.075534608599646 0.1576091380074576 -0.6764963225023705 0.6464416692088352
