# total energy = -340861.5478894261 ev
CRYSTAL
PRIMVEC
9.40700610836897 0.00000000000000 0.00000000000000

0.00000000000000 9.40700610836897 0.00000000000000

0.00000000000000 0.00000000000000 13.76810431434978

PRIMCOORD
 96 1
Ni 3.8989029456225426 7.086419879642709 0.8296029147827033 1.2839924636859434 1.069351115354842 -2.2131888890643494
Ni 5.5434075062759485 4.56452387323664 10.54943791576933 0.5591087510191209 -0.8944538796908983 0.8663686914189078
Ni 1.948012200899615 7.904359047737423 1.7359510062769319 2.5168600836716135 0.45413215160571463 1.527158658929615
Ni 6.455539025033485 9.245845132454464 11.990958101849445 -0.3552405820441237 -2.2225765009268366 -1.621191357737008
Ni 4.089187862151811 4.672318754515506 4.0593187368322665 0.10960664198624995 0.171470212260266 0.174711344905383
Ni 7.063118725883415 9.100883170633423 3.13803984548065 1.8505147335603163 0.18309828341749756 0.6189110678887341
Ni 8.898340925340182 6.482612388182153 3.194626749123628 -0.23540480613069784 1.0378098502134514 1.1814463280909007
Ni 1.0851263583350153 0.9640864126665313 10.246787253765945 -0.5518811229224301 0.06900583774575211 -0.2506987561752908
Ni 6.530682188630271 8.555860059407758 8.448012498895524 -0.5294693308861332 0.5163549049913623 -1.3976082268315866
Ni 6.862834162020223 5.137203581980402 2.4437557707108932 -0.0831499904566181 0.703276418809692 0.9918107577755176
Ni 3.110398299172088 9.209731636579646 10.10490702709692 -0.20603380916774838 -0.3305901304852952 0.14650300079196704
Ni 2.1417118605918324 6.431617008880928 4.148811347318205 -1.4633325656125895 -1.2317288783955367 1.1899790481522603
Ni 4.888124878210283 5.935152862413226 8.727945241509047 0.2993977640428908 0.6380999821123591 0.25975366728870747
Ni 3.1914490625108347 2.441193302287788 10.185808219040926 0.7491204737270001 0.2983988904647313 0.10335089088452523
Ni 8.82399735724987 3.52608448547384 5.2417238844851 0.18006720990065764 -0.4171506892853589 1.3402060347630338
Ni 1.279889009700547 3.1679597686323704 2.9957466512500455 0.9390725468415375 0.008248613162037406 0.17846926928591844
Ni 1.2257140623853375 2.714946582687147 11.712388434399315 -0.21623234696730503 1.0604360722533996 -1.066691052024176
Ni 6.908853235169381 1.9065178976165125 12.477633317916693 -0.8992849825309545 2.435143997448045 0.24796335952199874
Ni 7.487920300958988 7.499086417031771 10.177753940539228 0.37755724326345297 -1.9110847818338894 -0.2583159064009164
Ni 0.6482405434051064 7.982484232223066 10.319111137676959 -1.1496836909673231 0.6887854242823686 0.5856103968540753
Ni 4.976447257154978 8.820893045283555 2.3477648005087985 -1.5857353309222433 -0.3070179995923099 -0.2613166409004532
Ni 1.1201298275067282 9.373347691216464 7.152406263639456 0.25566946991700484 -0.6690344669076865 1.6338275584437796
Ni 7.002697526611738 4.100024733016045 0.45319191905843537 -1.0958105950979515 -0.19309473250857712 -3.7559808836558477
Ni 2.7892619297595824 2.2538433716175827 13.26761956780562 0.8155991741755244 -2.932161635563376 1.705452578979934
P 8.80974574322269 6.511717664617862 5.882753017122393 0.5165253691309556 0.6320553185801759 -1.6871530093397975
P 0.1352501688694487 8.81501366655947 2.9156572839202606 -0.08712440172333381 0.37791668348540075 0.3131637074787317
P 5.882323116950087 2.124835691902218 10.544591426299492 -0.8599977548955576 0.18386164394608334 -0.046700232270016344
P 2.1937231965365784 7.142871322399885 9.289780553783809 1.3638594125159156 -0.7916704312740688 -1.8714242300194739
P 1.1329421696222544 6.001839127653288 0.3639457721286117 2.242565542454254 -2.6140894350394337 -0.7203441729252562
P 2.4129440633943036 1.1929964956615489 8.486756193636353 1.0606564157943217 -1.4658057097434305 0.7994521321020167
P 3.890032139003643 7.213922438404707 3.4002676621796106 1.6177260248962269 -0.005322183543861801 -0.831228396072349
P 1.5842432804830242 0.12057053607115312 12.404139202464439 0.6245047599264276 0.5104187420125854 -0.4243171251268112
Ni 2.828056422332585 4.718817584968549 8.340290992263137 -0.9050172570290413 0.2397373720677807 -0.13005256854542765
Ni 6.171005315805643 0.9604176803427023 5.226551324574578 -0.7684328009023669 -0.5223700008371907 -0.08555140080925912
Ni 6.337490507259816 6.608835594133789 11.917877894659366 -1.1360558157712437 -0.19966055865155294 0.8291445169601269
Ni 4.9986760122349985 0.9692978939675604 8.769029399332357 -0.28332708373327337 -1.1009530585308394 3.6631496613557237
Ni 8.110156117092318 0.14643133615176473 10.371747098817352 -0.05442793993157723 3.2633282073774317 1.1215941318199587
Ni 4.464781389058282 1.6808438246712314 3.6162478154846207 -0.05834527270811241 0.5252840891601921 -0.9217461397479481
Ni 6.627800118146198 1.908578031921432 7.462711406391303 0.3536338996786361 0.4177458996671966 0.35139498304578837
Ni 3.467187221167445 3.285537936108113 1.6752203165092183 -0.02066498454851925 -0.6693532836996859 0.02165820169972399
Ni 8.786115344254847 1.6036405267695257 3.295478319304498 0.9960075694656846 -0.8942263370611244 0.4878573117723017
Ni 8.943259378792193 2.070425569438046 8.547831179822149 0.0804413332762034 -0.6041259391597595 -0.2532202370455639
Ni 7.740338491844388 4.146410679397586 8.054079073172293 0.3216406346014912 0.27873535059753285 0.2517477662650955
Ni 0.8053431871162345 1.2044636359250043 5.338430727840638 -0.9251525943263358 0.9864878029007076 -1.1320284397794054
Ni 3.0064979183600564 5.534141605406791 2.2061319780964834 -0.9935549941601342 -0.7438898214556802 -1.4916635513467988
Ni 8.096929866714616 1.1712474978854133 0.9660402478041192 -1.1305089178110854 -0.4021051078061462 -0.5695235185945418
Ni 9.32581409010798 7.1821737932946474 7.962370172082524 -0.05916674016814327 1.9427661720975704 -1.049901748380979
Ni 4.344051874586429 6.063163399496986 6.355508686472795 -0.17761514881573928 -0.057843907591661664 -1.1447618281856735
Ni 0.474721733595737 4.977453806792541 6.859118394666601 1.3535986540198561 -0.6060046442397111 0.5489274396107451
Ni 0.7035537384412988 8.132685896363013 5.023058971679523 -0.718092400776602 0.08103551521677657 -0.8437404124964308
Ni 3.226969917010267 8.319358522604203 5.1675552867056185 1.4836697345080447 1.9776596415406456 -0.1835518260151484
Ni 8.32895366868191 3.4348177136641223 11.024451266549784 0.0632797338952523 -0.542093190297731 -1.1197169694019038
Ni 1.587488697538719 7.327182790145482 12.434140025867402 0.4207977991196431 0.14848712110153137 0.5446388395377201
Ni 8.466041966515656 3.4389285752680023 1.7874995175285178 1.740817331632473 -1.594780471843647 -0.43748374441575627
Ni 1.0197100388993552 0.7707329307935885 1.1016008478701995 0.6628643335412325 0.08095786790130574 -1.018196189747582
Ni 4.03675321093893 0.8957172340604868 6.837832221583626 -0.8302251516188154 0.014126154988736962 -2.052184352222098
P 9.022560439022651 4.409242425879085 3.469011239622805 0.08133324896285347 1.8608968481255885 -0.46548640027626925
P 5.126366711116168 5.310725213891558 0.9848439120146371 -0.9893049606345286 -1.3917504824992288 0.30326624585936157
P 5.875446595594398 4.753726984080677 7.131671341105651 -0.6413935652619663 -1.8899132899625968 0.1648298241256129
P 8.718892879675147 3.1217807763819163 13.130297035523505 0.20109343444333752 0.47563248757133575 1.4721627623097098
P 2.91079103973791 1.3591242208892964 5.019740179977353 0.17840704858941533 -0.07910255986012184 0.9097959093646074
P 8.082565368615931 1.7251037877061437 5.978523863385058 0.5769354947878967 -1.2753363306728422 -0.07650034635058438
P 6.719452577200216 2.0253095688609064 3.3081589633366044 -0.37108809059934156 -1.0727141182898041 -0.1910782162991806
P 3.0334207694133863 3.891650144028511 11.981114610814432 0.44745962468154554 1.1469704058012182 -0.4785771720219564
Ni 7.884115170914654 8.885415699153153 6.016730418085651 0.30819093685448856 -0.5873520621355305 0.6739905253613812
Ni 5.570847742656999 0.4337156539218822 0.13668850008050887 0.3229796651278889 -0.17076213044964786 3.1595278876603134
Ni 3.837287056594131 8.085180516272406 7.845988575764706 -0.239870040990903 0.08959266075816828 1.4336041853102213
Ni 6.933800614971419 6.554782937896041 6.8326009855700836 -0.2361995341178513 0.6242589624642088 1.3291405209774916
Ni 4.823696294400269 3.6608962878656204 13.26739944386619 0.017120204620054386 0.01819903950652995 -0.3390058653528161
Ni 9.335945435525325 5.777510256560078 9.631146689510146 0.7016162574984497 -1.9952716981954541 0.6855304076801807
Ni 4.992401539260656 7.939936344272607 10.49245215507371 0.023249971666876087 -0.32339104163369464 -0.4106126310565251
Ni 2.0770575086388137 2.74988420281715 7.185849110522648 -0.40593553729583 0.8468445053430512 -1.6548414416912853
Ni 9.163289248162352 1.180560433784364 12.34373869860587 -1.1764974687260576 -1.769233935101953 0.6883336814569307
Ni 4.902602260380469 3.0977646901697735 5.890490279523289 -1.4474711731003007 0.21015605886623806 1.2700020629441224
Ni 5.719036307521818 2.5080206726172283 1.5313298126668542 -0.1328679265070357 -0.5570958343541502 -0.04651357018050699
Ni 9.419235066282203 7.441750715714493 1.049485094159314 -5.202570168371827 2.065476955565946 -0.85315244983895
Ni 4.930042496761519 3.245689858867754 8.594490870077083 0.3277575461325065 1.1889130687815912 -0.5999047019895604
Ni 8.384878319105407 8.211328466176374 12.48190127652008 0.6350992476128223 -0.7385843500823667 0.7809605010557324
Ni 6.274905696617675 3.8228002674179855 4.2855148986082465 1.2430149928323173 0.4716796735711748 0.1552115843095585
Ni 1.0111308494651703 5.026050399574339 11.884062530340216 1.559617807899585 0.19003897640138884 -0.660265719576121
Ni 1.3087685179932527 3.764429795445269 0.2630810321394 -1.3233948767429662 1.251828220248573 1.1251273417841976
Ni 2.0679703408828676 0.5637327053765974 3.1987432549310837 0.5207538053900064 -0.09249389356536328 0.2719887759023187
Ni 8.577712534249438 5.643864922907157 12.865742866250999 -0.7434810160530357 -0.09883886194678462 0.44202868347396135
Ni 3.1211881350065283 5.5736792514505185 10.609989872423833 0.5129013992251232 0.9680691911842038 0.1857514047696285
Ni 4.345651065599381 0.9223663412404237 12.191408229017508 -0.7812518070439062 -0.06796634073764425 -2.6608043225974694
Ni 6.407017688299356 6.507747908103361 4.538338531450459 -0.6587287141063042 0.508182396482899 -0.8717772640289889
Ni 6.8446880475262075 6.401279414664649 0.3709060158373325 0.0697512005522089 2.2607532691068744 1.2116413636170424
Ni 2.0935291760722103 6.997043916030658 6.596876467458703 -1.3634791463583615 -1.420130833414135 1.6465102961177707
P 3.767082571125576 7.54728791556331 12.268399869285147 0.9344355622901586 0.03406197468071553 -0.11870834717720202
P 7.15350123913303 8.48028417353688 1.0217861651144042 -0.273401082868813 0.14879951013562762 -0.6144517465657998
P 8.662582542007351 9.26592909017594 8.462565137113382 0.29923218499930404 -0.6711643687664958 -1.6425250862177778
P 0.7034135740525165 3.8140799728944224 8.95788633235712 0.41068565038630556 0.5115970785914027 -0.4254571522685254
P 3.52563294918783 0.718383883334931 1.1119297404126722 -0.30421858247030187 0.7229067914461098 0.9159575580906291
P 7.6390250376709545 5.40646031353158 10.793711520895831 -1.202683640203122 0.2328748406199925 -0.037104103941149005
P 5.415048909971724 8.21463032526782 6.4076347878902356 0.7003530745153099 0.4459323894037417 -0.664770806535326
P 2.503985067061016 4.393871378142837 5.477598914691818 -0.0383379763482501 0.8564092662133509 1.1414065385601955
