# total energy = -381158.6875431775 ev
CRYSTAL
PRIMVEC
9.35077394146087 0.00000000000000 0.00000000000000
0.00000000000000 9.35077394146087 0.00000000000000
0.00000000000000 0.00000000000000 13.68580285405342
PRIMCOORD
 96 1
Ni 8.299344919867838 3.235321050422308 2.5993721053926504 -0.05532422649360149 0.024583602876635084 1.3726631268504748
Ni 6.148526638063513 6.304581705363613 12.037238280203953 0.8757904989534402 -1.4232812061176585 1.8912829166166139
Ni 4.583702661344133 4.1835830418479825 4.707916473016556 -0.11545641589880762 0.5884794908717542 0.6856849309801739
Ni 6.506530371459858 1.874717977881379 1.8799366448512504 -0.645033990228031 -0.1574985805715223 0.7842576837497655
Ni 1.045669004192475 5.553555589937758 4.760154571972276 2.436532907375772 0.5985435599759756 3.1164601099365616
Ni 8.094273095255309 5.577615131441932 1.1352045354053646 -0.17728141962540434 -1.2425221123562988 -0.016523965796952186
Ni 4.1421684637982406 6.186313115800927 8.21171414131892 -0.21038411571664412 -0.05185400855681392 0.24122964034259098
Ni 3.0372155524404096 9.405289013269758 11.305801101232468 0.3792569995633791 -1.8566244460024801 -0.012802293970990856
Ni 0.4112171180803531 0.6443992394942208 6.537831152350287 0.751733228759499 -2.247740144676658 -2.0092027064542495
Ni 8.392749801362276 4.323966211922666 7.980848206625062 0.0191392919326122 -0.9574767603803381 1.3058229292974737
Ni 2.0923385412030404 2.545533153927986 10.270114048285894 0.9439365598020583 0.05685994641183756 -0.3985744689450684
Ni 8.394217872880409 6.769539591781621 12.762627378551691 -1.2286471541464195 0.7618651749871783 -0.37172829528650175
Ni 4.270058999807795 6.0506240342746676 10.6398492627437 -0.3962352792889305 0.046088052607314176 -0.4253478803841707
Ni 8.457690926798143 6.403381983456539 5.976398525333362 -0.11390989734729415 -1.0102555947442666 0.31851108783357407
Ni 5.794562439035533 0.48733896398903054 11.26697388234876 -1.5093100607839685 0.48492419728590686 -0.5403785215994693
Ni 6.113966177356391 7.610277032971581 10.304328530354987 -0.3613194412483519 0.19802379437907833 -0.9735793223691555
Ni 4.0276027807398895 2.0079197535234137 11.545384762527314 -0.9113941070896626 0.17569222076141355 0.7597635552631431
Ni 2.9649434201878795 2.4866232777226642 13.53464317637724 -0.31726641679319556 -2.425787753044126 -0.14581523069632304
Ni 2.94624187218619 9.05666410619626 6.936416309832898 -1.3740263257465886 0.2684689356745183 0.0874254779035204
Ni 4.651458369754255 3.101053286544177 7.493195991707003 2.1310706823063557 -0.08491196745304731 -2.3951358324862233
Ni 2.583768468817441 4.529795449229263 0.714828334191184 -0.4706720582422668 1.300783309991037 1.3288584709606985
Ni 4.689459915293688 7.987964145639705 1.6533683258881802 -2.381578405516763 1.1709531418690606 -0.895581051316806
Ni 8.88708781969094 3.166518055324092 10.019472161657648 1.1768473958663086 1.1275994574737742 0.16280688015831316
Ni 4.144001215502406 1.9950811408202536 5.406508123232673 0.7640606399766003 -0.7926423082690349 0.04865787021701942
P 8.323236147439996 8.419493015004694 3.5173338487459875 0.460469149567336 -0.09535630271482287 -0.1675449090639308
Ni 2.317280760567364 1.077022149417308 4.212188929671367 0.3079541382533342 -1.2027638586217544 0.397917809197676
P 2.768165732114101 6.972114759735923 0.7273808132099182 -0.18518447652256495 0.1370336278489511 0.21842704062577867
Ni 5.202405973884032 0.4657788843752827 6.9639664952715865 -0.00850855169164341 0.6960840148263109 -1.5284172139270646
P 0.5015175426065116 3.608482388474023 1.1242987276881793 -1.3069796686097361 0.23256990778506398 -3.361639221845204
P 1.1546429243983207 4.0302116466861255 7.409097000498205 0.4056606863678885 -0.38413103982622876 -0.4785427192395952
P 6.075469040794912 4.413939359358795 1.9395384783326353 1.4485497508764602 -0.6275060086465967 0.725854561220524
Ni 1.0166722540158553 5.60404976954232 13.116651422533277 -0.24761497504364455 0.017113005531202784 -0.4606218730951164
Ni 3.334205485481242 4.3594898023518756 12.191231501836866 -0.351192380116679 0.553262319540673 -1.2881710205436654
Ni 0.09402951319769548 7.7842855863533025 0.9266055988397179 0.37258498685984226 -1.0719515290921666 0.047113665658351116
Ni 2.9136076709232412 7.789194742703746 4.732249992198954 0.2840043123059561 -0.4485081205507178 0.102814558765081
Ni 8.661565852338564 3.8555952929943493 5.8831984257895416 0.7026171879591384 -0.3234344932771204 -2.3041540046900124
Ni 6.8127308168915235 7.51794749048724 2.066132061988273 1.9844134153247113 -0.6418519929556237 -1.9746126271842055
Ni 5.252479368658556 3.0320539251919434 13.110506093859922 1.886942894480363 1.6599445672458057 0.20749522420462332
Ni 3.677416294408251 4.119399329106184 9.072551071223696 -0.5888854680609213 0.1496909116016454 1.873717911149657
Ni 7.801500361288857 2.8798326752321897 0.24944311740133693 0.5526457690025967 0.4342652374784585 0.14025907676478425
Ni 5.284019529363405 3.6309803507200553 10.84450684806799 2.023204162939664 1.951307891019994 -0.8935251972290418
Ni 4.617795583351213 7.42287817122065 6.406611740796431 0.09777159702453483 1.6829891077700954 -0.9242642781841114
Ni 4.015596386922805 0.9205902459249744 2.4961947299899285 1.0667460736318273 -1.7537926608462182 1.8890126325251986
Ni 7.658676639199954 9.0515772851398 11.927984771855481 1.7374615277863623 -1.4908747368969162 1.725785119889699
Ni 6.9955665009300425 4.911802619485777 4.2275447707355545 0.7359708237189196 0.8705387636361974 -1.5370646051894172
Ni 1.0907303841025464 4.450585042668106 2.8825855430980387 -0.8897053092623194 0.7678944119003936 0.5702092318076567
Ni 1.7458456106017355 6.420054413500045 7.770046227704817 0.8530475488299697 -0.7468152226325913 -1.2662716493674127
Ni 0.514870447879718 0.9319467609490004 10.374386399324116 -0.4826410576786849 -1.4362318527410554 1.4024226175010943
Ni 4.7942259871991535 5.185415617524497 0.44778425488805684 0.18891668987148752 0.9037106224024759 -0.9219808814665734
Ni 1.7847074273492465 7.9732553781363755 2.8196726005429547 2.6436566071735887 -4.103047671639927 -0.6239298612595642
Ni 5.885582873159757 5.619085814135678 6.033030552992078 0.2816152432484892 -0.5347141242248403 0.43671061369515757
Ni 6.5866197507770945 7.05663640592956 7.767049304637545 0.3108312026908131 1.6075051184991669 0.5067572340005981
Ni 8.296679949277596 8.255732909927897 9.855844837571665 0.48861835830804234 0.3905515986405919 -0.17343042131043032
Ni 4.886031886339448 1.8149571812419796 9.391458283445107 -0.46465387707264494 -0.440312472113803 -0.660197842452663
Ni 2.0788640758678234 2.516499000655363 2.1134301470393466 -1.6200868118189193 -3.4112082910225827 -0.208334432276467
Ni 6.1535012498319634 4.8873690470215685 8.239236274435607 -1.0997027310635061 -1.2535444316087314 0.12631752698302762
P 6.134032938362204 8.33355940193693 -0.007449761646473078 4.131571747221549 0.26008893914093917 1.6212867456642919
Ni 2.665288516556806 2.0775549675077047 7.517119011910765 -0.3645955408964624 -0.5266339183198672 0.8408543491978874
P 2.1343515687888366 6.376984748452154 10.72606994457329 0.060153786671760925 0.825584053302378 0.9288279862953939
Ni 7.273247085659131 4.957696218281923 10.148049979556266 -0.02367446079880439 0.657706443489377 0.5808489709096899
P 2.9204711390398614 0.46407143304272835 9.311971093973527 -1.1717751235497238 2.367526298299071 -2.3762708772609202
P 4.47885243247266 -0.1137222432434747 4.81366624634691 0.45065087792533354 0.6751315809443599 -0.04846760858308427
P 0.4458252677348799 1.9093532447805082 4.067954175785736 -0.1428245234991153 0.9686996256793511 -0.733156494198576
Ni 9.298101090898074 6.2112890331571835 10.669369656264367 0.34668189384083525 0.04427722465082052 1.567214132189604
Ni 6.615270522315683 7.247766226506828 4.28039908569793 -0.8499100316422524 -1.7447593469993565 1.8002864335323834
Ni 0.8535938203637213 2.9404443923056665 12.581687096403142 -0.7737349298415707 0.1995615711798434 -0.10737312467004088
Ni 8.309060374054715 4.402017122507718 12.176026208234092 -0.069131564690339 0.5744235269993204 0.21706564150187777
Ni 6.366567986215213 -0.01532778874218485 3.5303622821613647 -1.2240873026898789 2.670194248452801 -0.1409887558419572
Ni 0.6224557781464383 8.22542705139116 4.929380204452565 -0.2290181858780636 -0.504333197940138 -0.01119175495076137
Ni 1.4379152719799142 4.690497851207781 9.533297369031724 -0.435195976822844 -0.10599758447875293 -0.4758101507997805
Ni 0.4746761458370865 1.858139055577881 8.191733407433915 1.9255109845615488 2.625157005707505 3.144952818059616
Ni 8.881757878510458 6.388542305117198 8.477287343871714 0.049540015711656615 -0.37982392781044266 0.05574871562552979
Ni 8.842774501700935 6.214197123871446 3.456472466006689 -1.3519618897473815 1.2825194786848428 -1.497398139837731
Ni 8.053232548165601 1.5600457312049487 5.107500293162457 -0.5345215485980601 -0.45510685681415813 -0.14788574007210661
Ni 1.4433761239964076 8.230233349227593 9.245225269155497 -0.2197316183698151 -0.23998188397841894 0.4432594705572689
Ni 0.5666793463087989 0.13663725000994503 2.3944676596347376 -3.8185869885228425 4.48504726694545 1.0033892066417363
Ni 6.346987465457444 2.8463101504391615 4.302679174909742 -0.3954107265051061 -2.586329491317346 -1.397282982281684
Ni 4.4213825754634675 8.483611272328487 8.80387154154782 -0.03821327784492774 -1.1925545221889202 0.3570971756368882
Ni 3.2501513779876476 4.042564019141241 2.979577381499202 0.932527032413536 2.3241119358691784 2.1879103170032193
Ni 6.42907791041086 9.511513805919357 8.743476762431165 2.706728081712777 -0.20023674286999707 1.3967379084114913
Ni 5.171090231755202 0.9575379592345127 0.12457381647145513 -0.5479002838978113 -1.5150562192391261 0.06401584073032845
Ni 2.3691962578200547 3.4880724716651437 5.600654503502613 -0.9637777628977015 1.0243925483662808 -0.45181815876055736
Ni 7.772223087892212 8.581672839275345 5.9075319449719395 -1.1252903497246232 1.411465444429653 -0.06139254417486845
Ni 4.555201502189558 8.04249785961263 12.616380338101077 -3.256542551914166 -1.2053979538104918 -1.621360793435337
Ni 8.006656342867393 0.31578592385993093 0.755104923045023 -0.7356602344570362 -0.07810137228911711 -0.5208229680650449
Ni 4.710573962987596 5.975527968273883 2.7515035879219956 0.5234493499442985 -0.5047119214357952 1.2682017765105902
Ni 2.3766675262467296 0.14905694803786715 1.098141807575616 0.5744924325640428 -0.35686474791110795 -2.5678422311464355
Ni 7.965054749337635 1.9606702924971446 11.780192048462528 0.568382463011563 -0.2649794344640211 2.7439993073594096
P 7.148619969775871 2.067633796292809 9.987625295565572 -2.9127359227385963 -0.7189084689199942 -2.7351053473038895
Ni 7.838482672462199 1.718382387361254 7.533063016659604 -3.1891238561498754 0.5149330849431712 -0.6503872841201443
P 6.4965904986969605 3.415949951796628 6.348269456572959 0.5039753003800869 0.0648182820269658 0.7758087816514638
Ni 4.389113054386552 2.8294600556896388 1.649837473625461 1.9902631892372693 1.5821872085596687 -1.268283537591119
P 8.763040451795732 8.292453399429215 7.753390629054511 0.2262894740929909 1.5106038398947277 -0.7558133123661435
P 3.458767145946496 5.815106089515389 5.449522618713959 -0.7956864944119973 -0.10386768261994368 0.2533287375989701
P 1.5953636046061395 0.8819425619020826 12.544981568140226 -0.4073948954501758 0.3145790997690195 0.8417017847998471
Ni 1.7006626706296533 7.915822924223186 12.661735332314775 -0.21278655451054965 -0.3400499903466144 -0.040750442444484655
