# total energy = -381173.7045264592 ev
CRYSTAL
PRIMVEC
9.26020465888206 0.00000000000000 0.00000000000000

0.00000000000000 9.26020465888206 0.00000000000000

0.00000000000000 0.00000000000000 13.55324555411341

PRIMCOORD
 96 1
Ni 0.8972675433652098 6.785581745359802 7.781189885559478 0.346813534322693 0.5648142860443305 0.04284923395504233
Ni 9.187123256235838 8.699795718827948 1.368485102495661 -0.7219261727003954 -0.41625054606859285 0.41706661421198493
Ni 3.6677633937871463 0.9018402324917255 9.577089000455825 0.44201017153120004 -1.062456445117538 0.13164433851257976
Ni 8.411164395651827 9.454576491051608 11.308489862952225 0.12802422526148918 0.13907225554553468 1.4852329652301064
Ni 8.243008336825584 1.2443770598057022 9.194115636874622 1.0564747736128064 0.12925064146942256 1.1925362673564752
Ni 3.151932946028071 6.701545386868247 6.522364128216102 -0.11913026520596902 -0.04148166418355437 0.2661053205383482
Ni 4.260323898456528 2.5757074426125843 11.307947214951387 0.125216580609365 -1.6154495701572245 -0.555029952964057
Ni 5.930846322606351 5.438360851129063 0.4478022052922422 -0.7009025192608768 -0.23207908419157453 -0.9894191176148895
Ni 2.959904079246871 3.4005416640911887 3.2088665371330607 3.172113437634808 -0.035680227010428875 -0.07296739349666143
Ni 0.6065804547251634 0.8344481660941337 3.703492041937887 -0.42769118380536664 -0.47812182965209277 0.48217491667554374
Ni 4.830826595310276 1.7599019208066269 7.076041032961954 0.9386151475891449 -0.6267817288860624 3.3098536046324805
Ni 0.47957767201708223 3.5606598651575783 12.720683132068288 -0.6568098998170365 -0.7619633911279393 -0.23775428019948086
Ni 3.336581429589682 7.646651148191294 9.49128394284891 0.19905994895307652 0.3332892745840131 -0.05945264683967826
Ni 2.1830932798219536 1.8551801679162263 6.182191431185641 -0.08390846588919743 0.6148227567519734 0.4928079709093577
Ni 1.065442122601038 4.32373778087528 7.822987671931195 1.0064886715026666 0.2632681081998692 -0.052436363422845175
Ni 5.278464894977692 8.82797547356515 8.164434573141099 -1.3195914438364758 -0.5757425029210601 1.2741651931828766
Ni 4.197993459998494 4.05145997936264 12.793667436140046 -5.14220632257179e-07 1.3875143329306945 2.0681488459711543
Ni 7.834170295238566 2.5575667014241596 11.169880339557277 0.02181323922034953 0.38172243038473613 0.47506170266953024
Ni 6.007344874396847 1.8711725415928013 9.580328220092229 -0.7008382416818446 0.07566859447790839 0.0008011557450566848
Ni 3.562095196900409 0.4760782406260124 13.304678873325127 -0.18362818777903858 -0.6218004736213872 -1.019531620729554
Ni 5.879405884984248 1.1111504934566103 12.285868363997468 -0.2583385321087357 -0.8708218420942552 -0.05068312817716432
Ni 4.142987843531294 5.7834979439487615 4.3515267294369675 -1.6107012568389614 0.5071711816095653 0.2383762300541959
Ni 9.19194782293271 7.522193995780659 12.790495815998629 0.45308828372223253 -0.1610608440014839 -0.3590010775278204
Ni 6.721853015978107 3.1828249892157103 13.384399050362916 -0.28351863091878915 0.17758995200475866 -0.6397521730038015
P 7.554438028867998 5.286650916014224 5.982565492392708 0.8670757447882615 -0.591158323255498 -0.2275742543426855
Ni 5.358436023565359 5.054553143096059 6.313711341791482 -0.4765889379473341 0.13942449667863083 0.44532226662356855
P 2.9878235966961313 3.604386552187565 7.158783740844004 1.7923766917670034 -0.8416711886722279 1.3886497320867182
Ni 9.222608361000537 1.409671715351076 6.089243051601823 -0.9484419038715796 -0.12874336281570087 -1.4907778063077357
P 7.501182591106573 7.769015494318833 3.1075691569083634 -0.282856571854758 1.8042685581085829 1.4654879213926955
P 4.9404396394386 4.077027404794617 1.8412630061336412 0.03776642011549625 0.3446216688776968 0.5461447346592853
P 4.728871740545314 6.626861835217074 8.150908192000756 1.2088535164592598 -0.21599760524867964 -0.9551969632072258
Ni 7.971147244528605 3.4913009312620686 7.812579201744472 -0.04716148817715103 0.048880784861102915 0.2183167403001595
Ni 6.948422446635175 0.4855579122720516 4.218542780453438 1.3591740912251042 0.4444072110084668 -0.9372347223018503
Ni 1.3962444184020122 6.095937253646292 10.136242390315937 -0.15574508821552532 0.6540490492424477 0.2649367541515437
Ni 5.634316044742264 6.154007997899795 2.7410493252024 0.2745958745078626 2.325159917517718 -1.574757748864817
Ni 1.7774870497075046 5.39992174103557 3.457934561353884 -0.7619993865721973 1.1000853112139055 -1.148247729851745
Ni 7.2369056065346165 6.9641184937583915 7.60005009359373 -0.2642744379771965 -0.6418684480158559 -0.02271312532679959
Ni 0.8664477297749514 6.19291011823291 1.3706260618436772 -1.43050677733182 -0.6967352752570647 0.22179312888453412
Ni 7.479291466977202 3.8311504471452738 1.9217286296572254 -0.2973748200755911 0.4767254635251983 0.9488576512527594
Ni 2.3064855086814555 4.225644431508774 11.31508961090781 0.8769027581810124 -0.9145928165326184 0.0030727253880527727
Ni 8.950358340102273 8.891055988611374 7.495812598347427 -0.5060864331858188 -0.9284811444789364 1.0270173875836377
Ni 6.271770022245483 8.913743490352896 10.31408740141653 -0.5481010870547077 0.2744462363038757 0.742519937691347
Ni 0.6410515670650879 7.705268244527553 3.4108501240661524 1.6075819944836895 -0.8801868282489228 -0.3747043471956902
Ni 6.400033118825817 8.837448663067834 6.330517687469315 0.7932745425363951 2.5411130426817072 -0.24932578708716413
Ni 8.281169640775303 2.768782712535332 3.888304431124324 -0.8555214642917588 -0.33294011877471047 0.05546255184367868
Ni 7.461585955414022 6.953923008281895 1.2311090383790684 1.2634323801464047 -0.3266766543635019 -0.9813096011338778
Ni 1.4282291657551618 1.2077529498515314 10.953678634185847 0.5566587468167317 0.8355378220809804 -2.1283962207979856
Ni 5.367853651839288 8.001641098910168 0.5358102656192829 -1.1475705012790622 -0.3018428831492737 0.6524076569842828
Ni 3.718490795640231 5.3281736743036054 9.54102420687112 -0.010739240794375052 -0.8170852718027476 0.25223858985858494
Ni 1.4725577660966578 3.642094106102453 1.3063231997648497 0.3333016158791873 0.5100862983738312 -0.7834017635073734
Ni 8.646679184138408 5.465808098133907 8.977995421305366 -1.520084525691653 -0.4041946433453232 0.7832001890195286
Ni 1.726315158024382 5.890832977698141 12.634416916262708 -0.5661412323858701 0.8233834461066336 0.5488760175475191
Ni 1.2863165273107442 8.413109038658243 5.814653902972986 1.4981540441671488 0.6010079623560681 -0.5562548265100936
Ni 4.9507462473726065 8.624936223285717 4.188291543437436 -0.9309985115841515 -0.06319103083618795 -0.5768051398576195
Ni 5.550122262769237 2.2126148127003096 3.251139372010631 -0.01421614359938197 -0.30055424624483723 -0.6838831018847448
Ni 3.650604234306722 9.362344851318728 6.116809755248492 1.2690250437428339 -1.95711395617881 -0.47932150638714865
P 7.468716313104215 1.3491562770323635 7.3258545036685705 -1.8018031272872257 -0.5432059637459354 -0.9968112963139026
Ni 4.00900194038922 6.37676222418237 12.017093697957815 -0.17960929642763263 -1.3815581153472594 -0.09789295309374754
P 8.282586452108548 4.9260307607815355 0.2750401206022303 0.42129839290514537 0.9084049425543517 -0.5511681560158056
Ni 8.49918264220414 5.283011655530788 11.623155325881864 0.177524645984462 0.636322321386646 -0.3312545035421714
P 1.910658054827842 7.79831478228217 0.4437193809992475 -0.28011629010545946 1.0367443850634146 -1.5490441461487967
P 1.0771840622778746 8.447399577004715 9.409300571759843 -0.8627141253854561 -0.3294909838838455 1.8126285000375042
P 1.0327072986596992 2.8449664173628837 3.205654172090557 -1.3931190807119813 -0.24272705082372392 0.3863380747798766
Ni 4.275677318002424 0.2644214437667188 2.131275025844318 0.9142336334209867 0.3603645335342503 -0.02110001520340882
Ni 2.3249133162184465 4.3757245705801395 5.343556726504837 0.7179111380037313 -0.08589721418445206 0.9219921943204831
Ni 2.3294230359523738 9.088835442568689 7.913672857463736 0.2364967536432959 -0.3001901780371991 -0.9153242953820042
Ni 0.5155887564139926 6.1040584532492765 5.465821062420617 0.2223662277791848 -0.6927436375991682 0.6711623118839667
Ni 0.5092103273529476 3.5742538457929065 9.98600390174262 -0.5412393269378679 -0.43751202655053034 0.34593164593837195
Ni 8.212884890635719 5.787350189142424 3.603428120991545 -0.1356765996004244 -0.7066566481358346 0.14838787651950572
Ni 0.8860358409724376 0.688168415069593 13.016957828280104 -0.7508713949798358 -0.3539686573102355 1.2235802811464733
Ni 3.0866670226508273 3.0448479378080875 9.465749854154188 -0.6996581053308143 0.5492843087295314 -2.1371665107914484
Ni 8.265130966074766 7.6588375776981685 9.908154286072905 0.7280590250710106 -0.5709139711841651 -0.48672319816785853
Ni 5.70942556581389 6.672977655083514 10.237647188916226 0.08288413838974112 0.18553260389060305 -1.079668181010134
Ni 5.399236485880928 3.7599765131104426 8.264023445581588 -0.7300619144336523 0.6305885042266623 0.44486203915769834
Ni 4.687710130242839 2.2138649403472916 0.7885888539004444 0.175063328928163 0.1822631891107119 0.34819678782346486
Ni 3.014178139535467 1.1028903907817378 4.149028275117415 -0.05985091071936143 -0.4989156264689923 -2.0000454654350137
Ni 3.0680077099940246 7.451390469937527 2.186748282653537 0.3324395249892081 0.004856042540720668 1.5655665692838523
Ni 2.032466788667833 0.5097992763777479 1.5732874957675773 -0.14463637989687347 0.532463894738083 1.0210683690890543
Ni 6.144173660410204 4.855940270707421 11.555240057913498 -0.3701041294195174 -0.46595922614762975 0.4117356889173748
Ni 9.405219599507808 3.6915065588750084 5.754084755466478 -0.9374684355792113 0.6510732544435754 -0.4046255602351547
Ni 6.2556943067257755 6.995316123704182 5.1935627073380415 0.23564469005564578 -2.3434535736205837 -1.3955631713770997
Ni 6.750133681414273 0.48790352214598115 1.3279142932589445 0.0796175518233274 0.3567346500911469 0.3970747444710903
Ni 6.692803753544166 2.788016157889267 5.869612292395744 0.5016947318760263 0.0925568855928148 -0.727024156048593
Ni 1.2544336422103117 1.7090356158816555 8.486256322334349 -0.3387274148804489 0.8562316029849062 0.06715335791804564
Ni 8.454039143840907 7.972202907874944 5.127342056846695 -1.6337409122672442 0.9465362022084344 0.5592805007102949
Ni 2.4268033495498615 8.223700809833309 11.541889620664211 -0.7259838877095367 0.16955371196384347 0.9475021656661294
Ni 6.108466310730487 4.418923425936955 3.9515164410786006 0.6041236251669144 -1.4982777142292067 1.590263814920216
Ni 6.903353029910281 7.333841430302066 12.45602925716128 -0.25282351582777746 -0.44304144100919185 -1.4851843713803583
P 4.833150906713183 8.258074690022914 11.999976209398957 0.5111018841225391 1.530569484383377 -0.6718907054095589
Ni 8.956710840589901 1.7883122291098879 1.5560209179115603 -0.14144281266024028 0.4765087195287019 -0.337585845076838
P 2.9593947679832855 7.745577915989122 4.525550980040191 -0.22608018629566226 -0.23015769879914555 -0.4197904409010513
Ni 4.390337173742638 2.6525578821851927 5.249497122345925 -0.9904799547792362 2.0950099320280566 -1.7972134510340145
P 2.3541848235674063 2.374223906738285 12.936153281261117 0.7609981990011926 0.4724551182846186 -0.24492971490199755
P 7.857830118483296 1.3865026829603464 13.121113833724232 1.441523440157298 -0.8268942874733695 0.6495743013005457
P 6.976156759988586 3.9874349234275863 9.786405743564064 0.5728559254018843 0.42286548028194915 -0.4242338213843855
Ni 3.245303590950424 5.504747259286193 0.9800815548241609 0.6838733316927319 -0.800012632591177 0.32674453148695987
