# total energy = -340862.8391955793 ev
CRYSTAL
PRIMVEC
9.29539009640153 0.00000000000000 0.00000000000000

0.00000000000000 9.29539009640153 0.00000000000000

0.00000000000000 0.00000000000000 13.60474299851435

PRIMCOORD
 96 1
Ni 2.9234374353829913 0.49765474756456995 7.7216305389136535 -0.10562091786562454 -0.1726981711300961 1.0535198047495404
Ni 4.688529806759638 7.465369641497088 12.639146708829877 -0.22569220682862418 0.9016660811686213 1.0881391945956227
Ni 2.660600978858147 2.9797210237355842 7.701264338735201 -0.6991613682000539 0.3992748374462026 -0.32516818813877546
Ni 0.22312840818056495 3.447892652301516 2.176853994281711 0.6745456265339028 1.11096339157899 -0.07683073310680961
Ni 9.26334910380544 0.8726205679108006 9.878091376385001 1.1147220872904735 -2.429823099455764 -2.4128787582919413
Ni 6.192263688671401 0.8336078147620254 0.8689962952272868 0.4700362244304808 -2.278317503242883 1.0718373721118057
Ni 7.491443211328471 5.188138445368256 9.7461117065476 -1.4109602226584605 -1.2215329116991416 1.7202557054310375
Ni 4.192183850151309 6.4704654253856475 6.956159794232913 -0.04641895358417166 0.33773779727367 -1.4074740638820726
Ni 9.646384252483443 4.982682433253084 12.20436598135068 -0.04155365507207037 -0.20982952876475472 -1.8308349957432017
Ni 2.691340834627268 3.9737328823768596 10.976429118678876 -0.6490577666754435 -0.3624548404043758 0.6678512452328627
Ni 4.334895977645507 0.2555525886746221 3.957769908590252 0.7878032350091786 0.34882028034007667 0.27401840473783773
Ni 6.367407432971907 6.54853740863477 3.092371858953599 -2.025151516474022 -0.12018621727430914 -1.7519075280083634
Ni 1.751883621740142 5.661366766265123 4.912386973540838 0.21770147531366374 0.10041803350844641 -0.47630560237896036
Ni 7.955710775962431 2.1724721472875888 13.426467197983218 1.1710906958881897 -3.071329279036194 -3.8777881814733473
Ni 2.3717746110147484 8.786672193101998 12.320237669312572 0.990677672612339 2.2193664786299716 3.091357401331663
Ni 2.22194221453986 6.549281039859907 12.283722587541227 -0.1562701074810599 -1.2681840358987773 0.011592075712973585
Ni 2.133617415774155 4.283920057162333 2.869988941076234 -1.0969822468085495 0.4993665979634819 0.12097580305514002
Ni 8.119012193002623 3.569671560808093 7.6698784533392415 0.10868927237830311 0.9928001182719806 1.138110384307427
Ni 5.162901460665153 1.7168678864264806 2.674188980419472 0.508364430586718 1.6857766978175615 -0.1751746576950467
Ni 0.2315593271955612 5.955454325026369 0.708137706761672 0.19260210914287473 0.13979422131322375 1.5856635971440434
Ni 1.0762388813608523 1.0856644071394699 1.2825472807678389 -1.1259963746527124 0.029608824005368364 -0.9572273633736935
Ni 2.9565383202919233 7.372964166383442 8.590089560580779 2.460625172438285 1.5216922364984051 1.4569947963200198
Ni 5.762045138758424 2.1949576964576836 12.21051581158257 1.4540030606815475 0.24793199206343108 -1.3139908098202466
Ni 3.632508399332211 1.196595595149354 11.038929464073618 0.035556556948371024 -0.2625242880553092 -0.284458112013923
P 8.028252001974593 1.5090973221230675 8.140016986495661 0.9146205844467603 0.8783842278225452 -0.23392385070979715
P 6.290934256856832 8.592370649363888 2.839745459149893 -1.042827358032701 2.2487755279197077 -0.8850534123126048
P 6.995097254720143 6.085998786599254 0.8544815432516346 1.2093803354970074 -0.34853591633043846 0.22509956754994784
P 1.9423275784978515 2.182864393658885 9.661816459483108 1.8843982736816387 -1.404193593358588 0.38598120566109007
P 1.6751966516478387 3.240168564949674 5.302448507757359 -0.024380228616577366 0.4374526340675047 -0.2269790439608478
P 0.3223790087216021 5.743063951736789 2.961725148087257 0.9029143517534256 -0.5065631157119211 -0.09259365236802117
P 9.324484885902056 8.695066121555374 2.7305404251213594 -0.24438978323812746 0.2856230788563016 -0.6078686940316435
P 2.979618774442128 6.547719414287118 0.8691784848774455 1.360756862331192 0.4776981118511127 0.05089550129828654
Ni 6.779667288797813 9.276753056638542 8.830131860977096 -0.6221727693591413 -2.3994689126439384 -0.5951224501095685
Ni 0.6628031586601967 2.0226676369836425 6.762659513139888 -0.7406237491098986 -0.8725771342224649 0.5485389459230746
Ni 7.377193568976411 8.498803250460963 4.706996029157865 -0.42857358641031995 -2.470225157421894 -0.9863895867599465
Ni 0.8616956956744997 8.147688472121986 8.157377057446496 -1.151244864806856 2.064238969393787 -0.5887957365605924
Ni 6.168207218538203 3.0766347631516267 0.9499907491911987 -0.19184980435788251 2.0187350714247168 0.4050891301351346
Ni 4.683212843499904 5.463728177404208 11.286984390920793 0.4619866146531269 -1.3872212271703077 0.0701134689876341
Ni 4.614966087812912 4.058757817581016 6.6163537877502145 0.031356917044726644 -0.02937973871369779 0.4329174652013125
Ni 8.961239623203022 7.175678802354467 5.6795318180171686 1.2605923395944485 -1.277276999338981 1.190533892214466
Ni 3.947863811132389 8.31722709606302 1.8019346508870517 3.9753486909283406 -0.958106166434221 -1.692058674171531
Ni 9.08052736710539 4.433966247614449 5.684700984570905 0.9146252124324507 -0.18512585537048762 0.9946757380281386
Ni 1.802283228023835 8.543867302704296 10.338149058745651 -0.7998555381880225 0.3373017381775159 -1.7224378006840206
Ni 8.035679018835653 1.9004704359129254 1.9608384187695864 -0.5373839577475197 -2.9914381618365065 2.0728966450687847
Ni 3.9283899684241015 3.5583311846247465 1.6419563358841933 -1.548184883472295 -2.774513416787867 0.5270499228113633
Ni 7.822210380269624 8.063277032678569 0.9945063734059915 0.28940748559939833 0.37750042188358857 1.304625823665579
Ni 1.341631570222106 7.82843829178015 0.7088041862472014 -0.6230785690028624 2.0941727808387416 -0.0032532168299750424
Ni 4.310811621341367 2.7122089858826888 9.391503720528538 -0.15155573272452608 0.34522947766502476 0.664510610895404
Ni 8.266715945095555 4.2088133034234465 0.3982042961317771 -1.9903184679552366 1.2988837789754792 -0.39670990493250385
Ni 8.395745258047222 9.286466739516902 6.641400216951876 -0.5265891811248608 0.45016288254532155 1.2148123051458564
Ni 5.069436311055686 5.308681066963042 1.1350285069421588 -0.0784124757716327 2.331504885899139 -1.4216781232965967
Ni 1.2071644539366206 6.183163501553781 9.88814527054886 0.24731004220871602 -0.8960934721768502 1.0731103252869585
Ni 5.966469362548717 7.650961404510776 10.584680471120324 -0.16253511455416525 0.3436166246519501 0.8660316197944634
Ni 5.915670054481514 2.141388362076842 7.847909345871344 0.12588506743129932 -0.026913536561392358 -0.5378133319754544
Ni 7.258937613398922 1.6178998657509955 10.36839254067199 -1.1067493534976425 1.9201461207052093 0.9760329261159707
Ni 4.881158180241189 9.229318679865086 6.403221642313559 0.7091238787294045 -0.35806133932237044 0.29944121568631654
P 0.8629003782592223 3.173613570299869 -0.3374245274841962 0.6028761259130585 -0.04717640057548649 1.8486871934332743
P 4.258367029188546 5.624426885156418 5.05767206507401 0.6823484104077733 -0.6026753227561621 0.47634159782321833
P 7.362785713989371 3.3883184957776895 3.2238756048069117 0.20144053337011114 0.489325411677396 1.5242306866495425
P 7.951927552104543 3.5927891965195546 11.62153943141499 -0.8834426161820592 0.4200092417800767 -0.7267500764516
P 4.865002791875077 0.5106106625845277 12.931145593387518 -1.869652997051664 -3.2250380535479817 -1.0963132457659828
P 3.52658742670169 7.099484487948818 10.66602350222102 0.04883990432083846 0.244848725152417 0.08491942365221504
P 1.0001189300777165 4.564250438258536 8.387923187097808 -0.3032132811342391 -1.1177724440810233 -0.5125869533084978
P 4.654127567206715 9.190826468573906 9.29648809981466 -0.4215393052713579 0.4946895042027868 -0.21328277742067786
Ni 3.275769909853131 1.9966963164457159 13.514067885843447 -0.8365338674456626 0.41263300392066354 -2.246499073180705
Ni 6.827501367354783 5.39542564937533 6.350503765685501 -0.2397782526080451 2.551327264210548 1.7352892027253923
Ni 2.0244430565336584 1.964032314881552 3.362575841841492 -0.5914048920486653 0.26977017098444506 -0.7791630428356775
Ni 2.4376882237328723 0.9267169509224584 5.2951971737732375 1.681831597126884 0.06053508127057962 2.225741786028696
Ni 7.913416750032736 5.635293196433739 4.219823693250639 0.4891459486767383 -1.2496612945042413 -0.3740353461531236
Ni 3.333401329801286 7.862338580256106 4.7760812290512 -0.22664840009430645 -2.9168828550274344 0.5371947245548491
Ni 0.7664040018682882 1.7721382772348242 11.720010148708663 1.1080418470568207 -0.6135415760467046 1.3886335341368021
Ni 3.5858920169064046 5.8908327715619215 3.2066242899227535 0.8218235578186814 1.9249198879447689 -2.5021577444644327
Ni 5.873580527138732 6.77549365854673 8.504053286910434 0.7755187612148708 -0.5629741475117982 -0.7412320721178589
Ni 3.5693555175374096 4.986986198968567 8.884292382181922 -0.04284640574156492 0.6296585362132252 0.03880771689581704
Ni 9.029532855841586 7.387957630960276 12.32441408818075 0.1829447885587688 0.43477328746312865 -1.1213251944292884
Ni 7.015212479360112 5.9067371843895495 12.320795392731426 -0.10721783003909922 -0.2881805551708327 -0.4498507506215414
Ni 6.808975654458545 1.2376998111188284 4.614089532506282 -0.7733587774490746 1.8449562656359322 -0.8251657348180369
Ni 0.21283655202466217 3.3285491360572643 9.884485675382152 -1.8119096195936084 0.899004218065742 0.9050069726163963
Ni 6.753695968259887 3.3222282706435955 5.758561226468655 0.8592372225804492 -1.3092214134560614 -1.9772523787998981
Ni 1.575038821012134 6.163829089700206 7.292142606679374 0.493980136840588 -0.330559791467992 -2.1573679254399876
Ni 8.701823870313811 6.256466949571709 8.248705196822725 -0.923131707241565 0.41680667568237895 -1.525031328173967
Ni 0.43432432381476754 9.396710068643532 4.7506267322147435 -0.5201372548519301 -1.1869027232197817 -0.9584167556961043
Ni 3.7264476138477036 3.3784096097027323 4.452573759945452 -0.8485712582261707 -0.6037996661685923 0.8650728554256198
Ni 7.0484620905140725 9.06012398536568 12.526282079634635 -0.42236385805518223 -0.03322508060171697 -1.1918847498154053
Ni 2.175418786017196 8.702409479903608 2.7972171893842805 -2.3665644486064337 0.8867904496083695 2.629297253128123
Ni 9.118815079809655 2.315658339687811 4.396440756915948 -1.0639993641246257 0.7710918357917688 -0.1362260443459912
Ni 2.419961914403658 4.625283971061695 13.789223523151724 -0.1150607231222857 -1.02693819760627 -0.397709806951928
Ni 5.389207033255118 4.200586882995363 3.2331403203330935 2.2642587111569714 0.8480053584203718 0.9672294688917278
P 9.10205549107312 0.08974885256184295 13.236408070384519 0.7830160980331805 0.47125801265272393 -0.47754410277175174
P 6.7549043690007355 7.612199626900485 6.63578115350693 0.20844190438860877 0.4610641028388575 0.40834543228890324
P 8.87622398338918 7.778828793673166 9.953924100107427 -0.4490328827059364 0.4084089385369869 0.7601294232429942
P 2.0002471555457473 8.243895761874148 6.275405377797897 -1.0879070239801587 0.5519757395187654 0.4858351391359504
P 5.698743530718595 4.4021016496173075 8.489413976704572 0.7589186907643446 0.2507766606010778 0.8054780265811224
P 4.659370167343934 3.72375195065658 12.994339374899702 -1.8248780068288186 2.400109631551731 0.4380735554809552
P 4.972922273423154 2.013465200572566 5.749636722227974 -0.09053291318425054 -0.6668400303595289 -0.5591272629618822
P 3.194556084677804 1.1553984252767375 1.7864661918651608 0.9365276689324968 -0.5234174682650985 1.1426524951521546
