# total energy = -340872.8493515778 ev
CRYSTAL
PRIMVEC
9.21744020321248 0.00000000000000 0.00000000000000

0.00000000000000 9.21744020321248 0.00000000000000

0.00000000000000 0.00000000000000 13.49065545053596

PRIMCOORD
 96 1
Ni 2.9468802162745042 7.480091141920584 12.597277612494299 -0.8085116712011235 1.351203671425118 -0.7420494258128317
Ni 4.353295706581555 1.2225920765151654 3.457344830566174 0.683065748189772 -1.2141515316334057 -1.0298684838791878
Ni 1.734657760203398 6.9239937454667775 1.4904610335701407 1.1111564814264026 -0.22498489634895444 -0.4617223052481468
Ni 0.7948291026770348 6.442161266273224 8.151202837875658 0.3304682601954502 1.2541882358403176 -0.4540624747100438
Ni 6.980616481811538 2.758438864844864 8.265589429686045 0.8209936057182183 1.0400179136083636 -1.5255697171759406
Ni 7.024961587550532 0.15438567440327097 8.451072904493019 0.3436518487652598 -0.14723088009692709 0.1603530193011819
Ni 5.522371324164981 3.797456398458801 3.3111460867214926 -0.9180321812314705 -0.17059295186163523 0.004803334925914308
Ni 0.47016227790979953 2.5249979694082043 7.989679177630717 -0.40503308008621863 0.31004418801314343 1.3154316560318313
Ni 1.4184719023433439 2.4711496826222548 6.024872991699652 0.39207446304302157 -0.8867382562141953 -1.9092191893800605
Ni 2.8759796647583236 0.685432833096349 11.61892189760609 -1.285019362288561 1.4373574817050665 0.7083744021578897
Ni 8.568145458434428 2.316905035057023 10.081284160607696 -1.5008863554966474 -1.0841318732084426 0.9495999287354224
Ni 6.652438733997954 1.0626049635840233 1.851781010066977 0.6509837800535627 -1.0667445309699306 1.9975502098169857
Ni 3.717458233273033 7.761518032052152 4.766707125725108 1.4690296159973666 -1.1148092476876412 -0.7623099758340808
Ni 0.6282211023103661 1.584266002723159 2.1085355774939996 0.3563700676628766 0.5222257619498425 -0.07157616957608963
Ni 6.606314662262779 8.116463226772 0.9670698808689163 -2.6053818799631068 -0.8335354469389711 0.3960007946806212
Ni 0.7006425314916752 8.131616698780919 11.3198334699342 0.3994558431087572 1.0548467510910802 1.631660889809764
Ni 4.35299153104853 6.540695704092773 0.5744069200538768 1.3070264626872714 -0.49470955880744477 1.659475083808555
Ni 6.638031874661008 8.974846580970624 4.793931757674951 -0.32348514400939776 -0.47871318337918844 -1.3278140888565841
Ni 8.205107351048015 1.3746245383856643 4.056950389171134 -0.40784843804782667 0.46224063964546197 -0.8021844434315153
Ni 6.333699645148562 6.798507511933069 5.7775626137010585 -2.3116631685828644 -0.9453789486755396 -1.0676313044502581
Ni 3.5562912879713666 6.914131084244428 8.870024927057838 -0.3549042817506275 0.13876809404155457 0.4838037105282184
Ni 5.943212000266677 2.550585583943945 0.4601300157841871 1.088783513047841 3.3102958343762214 -0.7496035840110058
Ni 5.513301362816576 4.145377903597874 6.656505468700105 0.7522801024019045 -1.1963420142558105 -1.521681694975444
Ni 4.924205529749676 4.770154448432733 8.709836873926092 -0.15742530413142564 -0.3547070781381569 1.7775979907959323
P 7.646714811935924 3.865545630654592 -0.03443082685043425 0.8510562294315538 0.097559995234361 -0.08215034554751013
P 3.0581531567195546 8.233100717526778 10.482158939070391 -0.43708753741860207 -0.8610336523592397 -1.4928560289930033
P 5.496212228324768 7.743414979116924 12.530269586056809 -0.9347101561077839 -0.2921030301536905 0.43726828597084044
P 4.807365255306214 4.445829590704141 1.4401144523901446 -0.6711700251934506 0.5729099185682714 -1.5813734544091216
P 1.3304914337757487 5.094414784078561 2.8888214027162467 0.9798774966730415 -1.5214245846593153 -0.7280988771700105
P 4.571113040549166 8.268707689771578 6.789765691462718 0.3480612906868651 -0.0895137278911168 0.45038733985130175
P 4.974256231093001 8.293069384734821 2.94753281105445 0.14985289110080646 0.19442630683580708 -0.40256764926486155
P 1.948382550635753 5.0165827173855515 6.915917424192925 1.2398203971544197 0.6052603098745188 0.5097744235603672
Ni 0.30271364697913244 3.3165456633047197 4.144558473146783 0.11622903239877402 1.3323292031181184 -0.987996269125434
Ni 4.626214899228797 9.304729555257232 8.88673983346962 -0.8321393379223928 -1.1500819548470065 -1.3385633569532884
Ni 1.0895106720962089 9.102323781629591 9.363337728263014 -0.35213854608003226 0.5671709592019651 -1.488664616619475
Ni 2.251498078016095 4.455941122817149 8.940635129201585 -0.95307348910632 1.2032181725503537 -0.3382360770663272
Ni 1.528445183692739 6.862126285537422 3.903818286661545 -1.1107633597530417 0.7137333524769579 0.2599092190299653
Ni 2.676965909195941 1.0498388086373374 8.13964140238856 -1.2719435029412094 1.0678596184109803 -0.5133145755031419
Ni 8.62254679164406 7.123127327754292 0.8246917660678462 0.4937932176407625 -1.7476901474929063 -0.6407153082480191
Ni 8.018979577157449 7.869998088057603 6.584937574499347 2.155238794912127 0.3565718992610375 0.9024914052833941
Ni 0.9250162308120493 3.566494994488321 11.409668487509212 0.7570718673635929 0.3862218609169864 1.3003652486170123
Ni 2.4596002298076716 8.976570242324437 3.036449771566149 -0.1471923135495078 -0.01586550627734687 -0.65159827370911
Ni -0.030738320228309725 8.477667063519863 2.605275423037933 -0.9202520717009248 0.07784811862773044 0.17260278320281242
Ni 7.664790212549968 3.2549362917064157 2.321472276772606 0.5812683178352958 -0.10861625304852261 -0.587649281660975
Ni 5.391760193771809 5.929533318720913 11.186438672541822 0.3555095194347942 0.3807590380302023 -2.5378806517873387
Ni 8.835524969404444 1.8426124221063498 12.967339409461488 1.3421742142329982 1.5778111909791601 0.4170902683610688
Ni 3.897640758109004 2.6716197937670034 5.207325663681753 0.7179918706429956 0.4746603534660535 -1.6539235578627063
Ni 3.176339177460645 3.292285360185818 2.772990437996007 -1.2100449656642 1.5850365050830058 0.11552352169131716
Ni 8.403549625305926 5.438483399132641 2.9277826015206854 1.0178989702221373 1.3108751470094004 -0.7833811946820832
Ni 5.773205529626475 8.123422394270014 10.412020669874853 1.16650487628972 0.7679653743476451 0.7628522214907959
Ni 8.13962665448393 1.1441608761964994 6.584060995917809 0.24845212623295918 0.7639490540994004 -0.6962051137852073
Ni 3.0675549459221685 0.4810370140874893 5.770830195236756 -0.8932948263857905 0.38746087553041014 0.5307559109080408
Ni 8.425772874097595 7.013052654560555 9.85825620758495 -1.1011006398522973 0.9816716124589866 -0.5054688542064779
Ni 1.495124136665829 6.025514525551125 10.677233160608072 0.9601095700174948 0.34372795341883383 0.4021084502402558
Ni 9.19038720716074 4.78436774152139 9.454008767681827 -1.84918290212277 -1.9446849863868378 -0.7063601999413384
Ni 0.6407697256637369 9.071279442380177 4.746633384033489 0.3053516676334806 0.5784537312046361 0.4455395248406972
P 6.15913975895337 2.055212684810549 4.365724503209795 0.6839144693433125 -0.6106503705418387 0.2614557375814787
P 8.256218058036733 0.11260209534996918 0.5316748663839584 -0.0012120180302301708 0.47366302254979076 0.7205349487798236
P 8.084819753896928 7.220970457544237 4.278966267238539 0.20438393226915122 0.13532924356333467 0.02978031658622613
P 2.0995117033475696 1.7999172381980102 3.88940958383652 -0.604322628551598 -0.6403185870302328 0.8609254089161495
P 4.766421385072872 2.173278878826508 8.202467476118969 0.17663478718034095 0.7232639176752125 -0.6450838696293599
P 8.452945888381226 3.655452511737756 6.297424408475145 0.07293268360398408 -1.3785892625269227 0.1038910796587114
P 8.081860955530225 9.253019714642857 10.360810414529873 0.01574286465655353 -0.11497896204175681 -0.0049038650595205876
P 0.8366808907892576 6.562706951755362 12.763563002447151 0.2075682435344038 -0.6920954624922081 0.9034038897953344
Ni 3.277841631087293 2.997760487253354 10.200567978499796 2.5295590192955206 -1.7556266287311637 1.1449996552280925
Ni 6.816592129987509 3.666955877350366 11.20632345670535 -0.7147548517629368 -0.21609067918311817 -0.052929501009179813
Ni 4.71393727946534 4.301475256682443 12.528718290838379 0.33537443924781596 -2.302780264270937 0.8694668707282573
Ni 2.824325128786317 4.858245526285065 4.957681429775216 -1.8245777019795804 -0.6969173093608836 -0.35730183544852656
Ni 7.587013450499327 7.85956394553078 12.103519608918058 0.9007780221367132 0.5711204307680164 0.046642639559203544
Ni 1.7810030505080463 7.417633765805967 6.091435815766078 0.9689706199525506 -0.36597185241869873 1.481119200172049
Ni 6.66932508480108 5.847829927062122 13.029032659767383 -0.44851480541893723 -0.5531016255930926 2.764005061057375
Ni 6.010821925561943 6.344668399218278 2.916517967614299 0.5371993525405393 0.08824900224608027 0.2804520761783234
Ni 6.05636529855225 6.984211283565478 8.319484725418008 -0.3733439765130538 0.957524840009454 -0.5317648117885294
Ni 6.917956322008236 1.153691709564639 11.892431006438592 0.08436740780348696 -0.3710775490763803 0.1878396547572249
Ni 4.0651032152002635 6.054623202317648 6.657597735386879 -0.8801024960652326 0.8557608339960746 1.1201232037013868
Ni 2.659987383988868 5.047239924138388 13.01191310772227 -1.4447609732579891 0.40639499343075175 -0.7268297806495999
Ni 7.551424913135317 5.410858730269667 7.332724548377892 0.5067603193243917 -0.7228139746219875 0.541149595437539
Ni 0.6184884069975821 4.7881192397620405 0.7480634970903873 -1.393044518720304 -0.7756113209286771 0.3604311251061277
Ni 5.5277911791170755 1.1707163219736856 6.281896708386202 -0.26704762984695946 0.24018885778290247 1.5538068576447628
Ni 3.2303349432929105 3.2450551956032765 7.198478981237082 0.31558028734002425 0.6899174810042829 1.4033448722050477
Ni 3.6208041532940065 5.976892527468982 3.0431545377092677 0.15668508353129146 -0.39011553954443784 -1.1920261604892761
Ni 5.845866612258047 1.8322520191026854 9.974869732994701 -0.6659648268434273 -0.27164193408586124 1.1345123825435237
Ni 0.2557249793349327 5.560937094776486 5.932583369747526 -1.5214068440475024 0.3641425125194438 -2.287663463234157
Ni 7.199585995828488 4.615826843903949 4.636603876297685 0.27886930507223584 -0.35002432795050686 2.0271875730674442
Ni 5.069656739178345 0.6139432871389461 13.285071953819775 -0.37168844318750177 -3.0792323359333547 0.04249493593941713
Ni 8.294092520618635 5.311162894960384 11.625626663749207 2.031849240209172 0.7140411135253638 0.25270987306804865
Ni 3.742584975789037 2.1435157637919593 0.8219422035981014 -0.8451673747509445 -0.284360152983478 0.04828943113400715
Ni 1.1261868674267967 8.972662047597076 0.26832890733067183 0.9177637580614323 0.3197732423754493 -0.10602535239289482
P 3.3964793064077243 8.966431057890246 1.0217320676417199 -0.9138934764727488 -0.4482381547187829 -0.4962928441341646
P 0.6981897706026404 -0.16392941218796328 6.91267933738226 0.7377559406438003 0.9563758140066754 1.7658182245521847
P 4.557775404298007 2.0196794520889063 11.791453946914444 1.5318120985412262 1.5605099806965512 0.0760527172902045
P 4.899594963895774 5.3160757906907685 4.873863557289877 1.244865929998127 -0.09401907196063806 -1.5979506420415124
P 3.4998344655537115 5.138040929466767 10.609874871435581 -0.21613233105433102 0.10947243040123081 0.6444200107931161
P 1.9548439763524512 3.054115917826668 13.726202981462366 -1.8742329031128624 0.01903850468868979 -0.5116610990601188
P 6.9884328712662604 5.388322088504578 9.476025545808653 0.10258058837740398 -1.109747774004334 1.0492353184415737
P 1.4342521602991032 2.072569125073805 9.977446007585026 0.08890103400778238 -1.2256484765294118 -0.8126830289699939
