# total energy = -340872.73177458957 ev
CRYSTAL
PRIMVEC
9.20916458172067 0.00000000000000 0.00000000000000

0.00000000000000 9.20916458172067 0.00000000000000

0.00000000000000 0.00000000000000 13.47854324196854

PRIMCOORD
 96 1
Ni 0.6232191627903034 0.3778455768092259 0.05585726691848701 -0.684715110867737 -0.26765106775891323 -0.822504643046106
Ni 1.3551101514362658 5.66371910678138 2.4007168574196522 0.2965006450007539 0.12005483390276744 -2.1943213627358853
Ni 0.4974551274512283 0.13652126049940821 9.625687739538472 -0.3753072708870117 -1.3317159950141517 0.7001183327966846
Ni 0.4219252431305465 7.81977793030878 1.662308542991678 -1.1973997660963636 0.6722295768062164 0.8144594041441263
Ni 0.30558126225299426 3.7750575863576796 1.1351197858211042 -0.28063076784803287 -0.4335553558956275 -0.7270886907379412
Ni 6.580279631164974 3.4835506903511857 7.825008735797239 1.9275089888281836 0.4147402800716534 0.9417333815031523
Ni 3.58867330417295 4.289490729651378 10.709376182944176 -0.347337268036647 -0.18295404453014943 -1.0787279285840519
Ni 2.112204781738593 2.808086094995518 3.742142190271674 -2.2541676454695563 -0.4763997047546634 -0.8608433907253046
Ni 7.726093098910724 1.8364271388558464 0.15007438802998121 0.7779006311834862 -1.1753199034781887 0.5594856747425655
Ni 7.001792303721783 4.379869470960778 10.468622834839083 -0.4557702014297699 -0.11275881446198643 0.7579892369715397
Ni 7.3226488072841205 1.8691288823233088 11.27625736042427 -0.1718833885382846 -0.4990745206443598 -0.11141335617768554
Ni 2.1744311068891546 8.039683571609691 3.138640769790068 0.8092086972681484 -0.582918451844209 -0.8723045972873686
Ni 1.5177992531248585 1.229073524825257 1.98869146622589 -0.10275053829636498 0.4344747823861034 1.4099186687678236
Ni 6.2450384125093725 0.39660648691677725 3.0787692280257724 -0.9213190795128585 0.40322379479162174 0.35281654598366335
Ni 0.5363039882840896 6.301628728929412 13.395367173774213 0.7054220043977851 -0.21336916648689705 -0.8511927550094178
Ni 1.3291863531087784 5.067094169500887 10.027106014954756 -0.935826271990098 0.13182585839576652 -0.25951738290818527
Ni 4.040907749809865 3.7736209566812717 13.47227567003437 -0.5638804613761514 -2.1730431700833996 0.9524122013732371
Ni 3.4168395020441458 2.0917328088497817 10.855834132038737 -0.7645843736905541 -1.6259828655883803 0.48938017617473134
Ni 7.277450227464829 8.345593601038633 10.322272632970252 -0.28903056187595383 2.0648565483731276 0.422797088937859
Ni 4.032370854232749 6.659570538305174 2.718433035855996 0.5536377006022206 -0.214698683931598 -0.01086548195959419
Ni 3.6850380024673814 3.2385869121944677 8.443134309651509 -1.1681059022282527 -0.9642734715871973 1.290627195393642
Ni 3.3579745219697945 6.019017885919135 0.36361373384819623 0.1483056012183446 0.33751771084306387 0.5518183880052948
Ni 5.898958007128567 5.066771848740154 1.3798524139465533 -0.7883020290224682 -0.20313154791928886 -2.279743179945816
Ni 2.8097713721159194 6.235387208016582 11.429885565070443 -0.2792629409662287 2.4049631029892904 0.43444830002354207
P 0.10223922438789707 1.8343919134809352 6.0243969589575315 0.4235717623203544 0.6131109162671893 0.6162597463088161
P 3.333330797520645 0.4801953111722313 6.812891156853962 -0.3353659546073837 0.46821794027481944 -1.4530018731105427
P 1.4978798301115888 2.971889505599786 9.869825455631254 1.1670710332058352 -1.4790867431230528 -0.30996037005008553
P 0.08115300022077541 3.966046450838588 3.2506739407219376 0.6690460368719123 0.3340392653761602 0.29821351392680256
P 2.6635022108955004 4.825197043153424 6.380634151967248 1.2373804202543592 1.4521528948466862 -0.347159347697886
P 3.649398535494957 4.547485475706282 2.2952341652623267 -0.4547571867842233 1.1293136119514033 -0.5563121621105903
P 2.085921825992004 7.744714029716472 0.07941430994573827 0.6760741473632873 1.4573619498514516 -0.06144499467935868
P 7.932378385779539 5.861080713160199 0.7771162750425723 -0.9217517961749029 0.12055028548194721 1.6977351557310179
Ni 8.050366202536827 6.025758994400741 3.492762617692921 2.918490565834187 0.2977648564251581 0.725898269974266
Ni 3.8354236602605845 3.9776499982249587 4.406796147312373 3.5202953130599375 -0.9291056654368128 0.28244776645211356
Ni 7.876331410070449 6.359066288491947 9.478583307089526 -0.038214306286192254 -0.7699955174037963 -1.0094693513975455
Ni 7.5685427110646675 8.439582334868238 13.480834667606509 0.48510546005877747 0.7987093403987212 0.06167330864008088
Ni 1.6292117263632035 0.4154419912575267 4.609351722521282 0.09002486319958045 1.1412062496239315 1.9245627617156664
Ni 7.9092910101464975 1.233705734615213 8.032726968676624 -0.5742152676432563 -0.04256152751129444 -0.670899030920251
Ni 8.501164018497334 2.942438597233426 9.518628438402933 1.6445349175589548 0.275232479650597 -0.759351407426389
Ni 5.140877996214858 5.20557237747617 12.054117735965905 0.8582414343260831 1.3987819354247137 0.6239715131307769
Ni 7.316193182904878 4.046921334288673 12.961654199965448 0.715173170247278 0.6687529311115257 0.16981236494186885
Ni 0.17317649832636997 8.945782485016368 6.6157275475138775 0.06093128826773377 -0.43137917417991517 -0.6468065087474215
Ni 8.139989792349654 8.775228756765902 4.145447423512932 0.32066927182715743 -1.6448879300229995 -0.5035919488987392
Ni 4.465993578228509 6.121727698617701 5.160799261061046 -0.4534089002864449 0.6338972568849212 0.42467476557654604
Ni 5.230694978484124 1.5318248107990198 7.380351590786916 -0.1713704534576081 -0.42218773748863414 -1.3183596283119037
Ni 0.8822591490264399 6.877091005976666 8.201181007400034 -0.9427332835225765 -0.360795707534398 -0.23014869993808104
Ni 7.345358607168876 6.66830082633873 12.012967504901415 -0.6851419139925103 -1.3501993985303198 -0.04587233705208229
Ni 3.1671974682745105 0.7680010439290567 0.3899454981671248 0.8540849889555484 -1.0774176944130605 0.20113560053518265
Ni 4.0407788215055715 8.521571527233998 4.733610059449507 0.20068360059942858 -2.2946005566736223 -0.8121505535052915
Ni 9.014639408673428 1.744455212071969 3.8389185382233846 0.6591151509114455 1.1926488816749397 -1.5080612759785317
Ni 1.5693705748420625 4.321068955038574 12.719431990107877 0.9919375131613691 0.3512857111614337 -1.5681101616413122
Ni 2.105076888344108 9.09651809106408 11.70479386281567 -0.8433891998045991 -0.34445660405474227 -1.4437034785277525
Ni 8.704456326873633 6.769224061106379 6.127655637865803 -1.1955997367731475 -1.4743471715555383 0.7347410650768765
Ni 4.166447081532886 8.270336307989886 12.374206195201241 -0.19774611523765945 -1.1492566307322336 -0.08317081639222451
Ni 7.495725846632894 3.137774187401927 2.270487298169743 -0.5004834851767446 -0.04679973396235811 0.7856175402117695
Ni 5.361815063950114 8.902886196345165 0.9396368490191251 -0.6009925357371004 -0.3472267106007117 0.8650474015043231
P 5.913186166423759 2.557099523195398 0.9867048892506658 -1.3494851460721144 0.35507371744895627 -0.08829425366171889
P 8.485572902842472 4.971788525134575 7.952528958824076 -0.05236540097559368 -0.8498408689672139 -1.107860841394266
P 8.894247999957534 5.182623139312016 11.697286551839982 0.9306246731845004 -1.0413150351532325 -1.3999273618830663
P 7.899013582461427 8.253483536785872 8.022712002182436 -0.14532183599967233 -0.918019325715664 1.0355930450677906
P 5.620924118920692 3.0959461618234383 11.94773162476207 -0.7605801376271676 1.059770927865575 -1.6666644024681425
P 8.733244175389343 0.164626709918825 11.481845513533445 0.4120318800015549 0.24467440435808183 2.5434352630569808
P 5.586564725826606 6.973382030954359 13.327677972187466 0.057373395713146355 0.10346556208551858 0.7927297257765187
P 1.9664789612291231 2.37142434668428 -0.03144745524998342 -0.4769933724746044 0.6980390816701527 1.0825161919818904
Ni 0.4394106839420563 2.235055037400646 11.98319335485786 -0.05217025424565208 -0.008420362853211304 -1.5940567063037452
Ni 6.912196341402733 5.2602103510026295 5.716493145394344 -0.15618706084895034 -1.0638566678991743 0.3613760055179002
Ni 2.0316245915554623 7.038094830544857 6.050423899928453 0.7487499777614589 0.2914147458374143 0.16703608774831236
Ni 5.673176918817731 8.560452620142932 8.655839305157656 0.4017425822604049 0.9319865865290335 -0.5371602717724879
Ni 4.398158871841201 7.757358212701779 6.810195634377779 -0.6413799384152115 -0.037369184677077574 1.7065571248980222
Ni 5.289044245341302 6.854933755967453 10.269099837530437 -0.21597009444485385 -0.6494712000637782 -0.06883768759900404
Ni 6.596119394263829 8.664350415073914 6.309548610478839 -0.11526049783791761 -0.830794393858724 -0.556065593317423
Ni 4.107738657256605 1.4287650498459434 4.562338937277296 0.6512591452021365 2.854556229074071 0.7989762209068626
Ni 5.997781552369158 5.225077388082785 3.5565425289102133 -1.4652362103932055 -1.34220198214714 1.0563816996783677
Ni 5.214376338826465 1.2119813153418408 12.690937913942662 0.46914379452319843 0.281080968011574 -0.3714480450419215
Ni 1.3215243281679367 1.189906947813959 7.98773559506066 1.7586839275002488 2.8262033889629907 -2.0235625747203474
Ni 3.2701743467462556 5.804481187575568 8.224808960994647 0.25211286291399804 0.6515849039726713 0.6580067483386152
Ni 3.4696264334875404 0.2870330838475264 8.928807231923276 -0.5717637207789701 -0.2153453163766614 1.4227916680757495
Ni 0.04420583187623592 4.1596967638866875 5.379865947467594 -0.42831673320450747 -0.5481874761209268 0.8472903346312183
Ni 1.9766642972682709 5.19084692329299 4.4004611629892905 -0.3987760434329132 1.3418569401028955 0.9410119299560955
Ni 2.6405713910605297 2.672343008904164 6.152955054833927 0.32458686171400875 -1.998758885413106 -0.5135092080124511
Ni 1.3036769671879473 3.838508730399025 7.5602903786734545 -2.375418299452638 0.09817474600022447 2.4018818929608052
Ni 4.815739231117073 4.2822799537755625 6.767306713038249 -0.5852666403614114 0.687662623531835 -1.68892938451393
Ni 0.2794705178842822 7.19093933528422 10.87273663273155 1.0439074784707572 0.742247914976883 1.2949669604195764
Ni 6.27061226258235 6.365945534442439 7.704429460123662 -0.3971192245557805 -0.3190556474831344 0.35244270758401236
Ni 7.205231958731559 1.3832441492659189 5.166271346661824 -1.589775819540204 1.8089806188722715 1.3940670464475475
Ni 5.586095058432395 1.9783403652240799 9.665894952148705 0.12579276482780916 0.43391582455883976 0.11597834984054865
Ni 4.085194622334513 2.375347450800625 2.247411894450672 0.19489630449369016 0.6835298323103841 -0.7234181838648897
Ni 6.733197809221076 7.319048023928509 2.074482201735377 -0.23467975503921518 0.04690077831659665 -0.0032419039760653847
P 5.237472923624098 4.698156617601848 9.231804402591655 -0.6993110064040408 0.8283423327738056 -0.9569923645447518
P 2.124056976568957 7.60608847510771 9.71279999016696 1.2708762380189598 0.6183621373637996 0.5719640097152343
P 5.028093357452252 0.13613815925236614 10.68270275861887 0.00019951760531578542 -0.9535869384076286 -0.6756992805223718
P 5.996501478490821 3.240815530025819 5.067932203478791 -0.7403653532421894 0.6477997258986262 0.2047292314237119
P 0.5788448032020274 7.463852927978743 4.512252132892381 1.0559345848386201 0.057083889497185555 -1.3576813087296618
P 6.129601534344168 7.404389352205889 4.3422610845985075 0.2391871559912655 0.007140467699523187 -0.12726395005669694
P 3.9361350842426095 0.3192716063359934 2.669843641633798 -0.47534786645138133 -1.8983017711366084 -0.35091804340936983
P 8.11982172189239 0.46864333510757766 1.869594866051682 0.774515516761337 -0.32108604764960186 0.36810175427750796
