# total energy = -340858.8563910395 ev
CRYSTAL
PRIMVEC
9.37643084020517 0.00000000000000 0.00000000000000

0.00000000000000 9.37643084020517 0.00000000000000

0.00000000000000 0.00000000000000 13.72335431879535

PRIMCOORD
 96 1
Ni 5.3600834510007065 0.48519090402216786 12.501961575569489 2.058405393431145 -1.9368402935314384 0.06129767046821701
Ni 6.4117814160286395 8.502162860371989 5.805500473939353 -0.13127127144387715 -1.6440716047692912 0.07726087866569274
Ni 6.26720623216603 9.375211692632927 3.1995859960596396 2.019837046239644 3.2274011544635193 2.3951106356752425
Ni 8.445088527135612 2.8538948140008116 3.996529153837301 0.4639136564725107 0.5429635087178261 -0.054557523530906045
Ni 2.780411727164359 6.333797642490452 2.7648852956864354 0.1467210303400441 -0.6927024999485877 -0.6285460198753369
Ni 2.1137193801779715 7.147540551025402 0.31505088205064075 0.7358718362472101 -0.45333228141223864 -0.2370760231855336
Ni 8.689344545011023 1.0383928099659292 11.471983174449678 -0.6306234712296558 -1.8896968030764165 1.6397786338208922
Ni 7.336016183091186 1.3110500362154145 5.397642619169749 0.8154605917151311 -0.07341836499115097 0.6074730012551215
Ni 7.131966299751274 6.681935135300285 11.976261678302517 -1.5259260720740946 -0.2940231299945388 0.6639933049393533
Ni 1.5915740877623075 1.5738901395967404 11.07128797503727 1.0862005828120134 2.4978768577008914 0.8204940403739804
Ni 1.437416191797254 2.282467002201149 3.9819956863629486 0.05402556228683599 0.4759345921927867 0.633778729029186
Ni 7.349677642517078 7.459081835091753 8.019598294568896 0.14979092751461945 -0.13494177831692888 -0.921084337794233
Ni 8.435374545004366 0.30130503474909165 1.2209040945088503 -0.32901532979900755 -0.9103317272634193 -0.5887314589815602
Ni 0.7772770321772056 4.341146734589152 2.6687946969613296 1.169613597122031 3.017870902106738 3.0028620874027316
Ni 4.1253200543797 0.8470132973344642 10.220042156917051 1.010702452473698 -0.38977641103746424 1.2095651978143038
Ni 5.156071073383308 7.097329765009171 13.322892455824336 -0.8545449593111023 -0.29764350035594545 -0.2712868647392876
Ni 1.6258636945711513 8.004855732691524 8.643682265492732 -0.45927332948702193 1.0047927718574825 -1.170455376297036
Ni 5.011880323176473 4.005817446018007 2.0962698427781192 -1.0520028538843818 1.024884400401035 0.3254844338276136
Ni 4.933146435187996 3.5604557440200684 13.306136774291002 -0.6359207150728532 0.7797122304709281 1.3859310476039743
Ni 1.7622626309256086 6.085866063808623 4.988795550968823 0.8515054011538303 0.1531030226069879 -0.023057653150411903
Ni 7.680178069314486 7.149734635792498 2.895929352508891 1.2788978227718557 0.3679662571409082 0.7650942234474372
Ni 0.08383654153656929 6.91926197094115 6.594139864752314 0.9172973599479749 -1.9392501885245117 2.288928960210142
Ni 7.65043603136052 4.500602313859373 2.2897412370828283 0.2844210881284005 -0.5835321741688079 -0.0932305146210717
Ni 4.601455201700753 1.3582228587079748 7.737378046721287 -0.8449151495308221 -0.5391410496479424 1.8080593926095827
P 9.249089324247432 6.742741287926851 8.802790916829695 0.8572641580144784 -1.9422061858290425 -1.170079995235488
P 5.507030871812355 7.423751444483132 10.602347362937556 0.336340145595195 -0.28355976856936976 0.7803591200263077
P 5.621413949050825 2.8615272285325037 6.654646909241827 0.4291428286502287 0.8580146630272577 -2.440880642821506
P 2.5862914838601494 4.294142687847907 4.087803080148488 0.4337373899994466 0.685119288284691 -1.4032019188692801
P 0.9889415148306154 1.5523806077346982 13.27052415312046 -0.9254585556025288 0.5422513131421499 -0.40294740120178346
P 0.03492064059014953 1.920602414951024 6.065311052584574 0.21427933700599228 1.18114088103534 -1.250854029260762
P 3.770037721430863 0.25986214901367777 0.773943711088733 -0.5281228441605679 -0.187196107635955 -0.5072632271027393
P 6.062237458624514 4.769668367178099 9.012181615055665 0.8738560009348885 -0.37401863398257523 0.06063458296292139
Ni 4.038184884547984 8.028868771531407 5.329286564601022 0.7233546776168058 -0.03151786810262314 -0.400847067029329
Ni 2.7436373662389317 6.856599285050119 6.949424072987278 1.1795529677229297 -0.6358669790167822 1.4831475434559875
Ni -0.0486130422371155 3.4292794795257495 12.17640252771336 1.1535943388756391 -0.6136017398606787 1.8991057550951422
Ni 5.114430344961631 5.896227754344892 6.940476145238391 1.0968539487608013 0.5327469731961405 -0.36696609801116803
Ni 6.818155919472798 4.349548016432391 5.266694201939705 -0.42751866278324435 0.11393252305511346 0.69077571523952
Ni 1.0895599919062793 8.534989744002768 10.904604105395451 -0.09041412821819912 -0.6965586404698842 0.8309044370740271
Ni 8.783708942857402 8.422932021560195 5.263702182926114 -0.7600718305321813 1.3225772659376769 -2.5534404538988085
Ni 5.954033449170301 8.996544541696325 9.023681807221662 -0.14846372406276367 0.29802402362381575 0.700153299799678
Ni 5.982894102645178 6.02490051186137 1.6136743347539522 -1.1492265488252467 0.9464688393056088 0.1813501903781393
Ni 0.35938170841966793 3.571810601511321 8.408121011739237 0.9418665646469069 0.09108724302582379 -0.8705313074370297
Ni 2.408570617725388 1.4332530565981492 6.4025343801427 0.06889142365507489 2.135864504150573 0.6789077601573404
Ni 3.3452760375239907 7.829319574893231 10.241245079497535 3.1312696641455684 1.3232326401334888 -2.255887970594773
Ni 0.39698213288347556 2.5580402983761337 1.6798344292694574 -1.2270134751977384 -2.8408838737933007 -2.4228361266149694
Ni 0.6029326187118077 0.676419456120512 9.37084133831693 0.42705946375863874 1.543906053591283 -0.4176355993415775
Ni 0.4651787881315156 8.684656329696717 13.101151123174352 -0.9190637078197785 0.07961678049237902 0.040354749667962764
Ni 1.7586714579948493 8.79697659219689 6.243096616090674 -0.4144358614573572 -1.9537247279916028 0.2089324708717821
Ni 8.89593544105129 5.737194114452959 4.494810492660078 -0.8606335887073436 -0.4130983735928563 -0.5152881542897447
Ni 1.8313387953666125 4.378464928491039 0.4375595740718683 2.4351694513693416 0.6820172523205997 -1.164699447649865
Ni 4.986479572603556 1.8677193462056376 1.519408389429175 2.418477849646274 -0.2713578271865391 0.9481202588661025
Ni 8.291699498482105 2.7391273031065686 10.080489926942189 -0.31394840816355607 0.18260231761768553 -0.12437685831688901
Ni 5.326684605101581 4.966967220465409 11.371541911912896 1.2566094436873003 4.504673782927126 0.835243173658697
Ni 1.928853673904205 8.236744238567795 4.103406398357565 -2.3328405739914277 -2.091448439929043 -2.3284339602832995
Ni 8.355628002508 7.619137505922205 10.368117562333323 -0.7505340662450751 2.3734303224883315 0.3599873527004897
Ni 5.0005723478383635 1.0091570992659087 5.538636006532227 -1.0295666363680527 0.3071313852417226 -1.6098890453503114
P 2.408711264184817 7.128206351069198 11.78246023363968 -1.7729604920239208 -2.2718252106503196 3.5280397328920468
P 7.369415028990311 6.413881736489449 5.868064707308785 -0.28344021227236993 0.7309000940642316 0.08395808818021025
P 9.286173107383602 4.660395444632224 0.7044090391899896 -3.8290655194566634 0.9054548587870922 -0.49918147853586936
P 7.436419002262392 1.8967018932786852 2.2159918596165227 -0.4831359950372324 0.56680869076654 0.20810097610942224
P 2.6189027095864716 0.8197419488511384 8.78554015975917 0.09987810184457638 -1.1295105584535579 -1.9696228872790984
P 5.638750969283134 7.498847277387707 3.4142190566500688 -1.7897117433403307 -2.790764074318774 0.798467142480928
P 0.9431564040710901 4.082207226349331 10.458828902806792 0.5237128880183303 -0.8391975303207548 -0.937527828062237
P 6.234304337090221 2.3047454013747375 11.334475006351857 2.430809374628433 0.4743464217700604 0.257515264876492
Ni 0.10897944026719945 0.6707917224572176 3.3168795173652317 -1.1432122243103666 -1.1041288851556597 0.7160763987878378
Ni 2.62114367650671 4.488450459764689 11.766389969185298 0.5027193164857987 0.16823859269684574 0.15529411672103577
Ni 3.692729050897935 2.376100038458495 3.7442937934969382 1.4559951514109117 0.7391880451046365 -1.151180587227824
Ni 0.08155806889381592 6.384317850717427 12.310328899311052 1.0313918625022496 -0.7829299660772775 0.6308828955386296
Ni 3.939179153540443 8.80639990497865 2.7713897256135054 -0.46755382432825926 -0.34210815842722375 0.05927806893502694
Ni 4.672003465750449 5.533237995419333 4.484367024225927 -0.22267810259264875 0.19408717832883346 -0.6612787342216676
Ni 2.768672436017333 0.3228773886963454 12.547591975223641 0.7780638962342278 -1.302764344976808 0.8578909929651999
Ni 7.617777923481055 7.359175966743863 0.6275513749702983 0.763490112185111 -0.41922376976430387 -1.1065380088177847
Ni 4.5694815732571765 3.4156367729611152 10.333589794186512 3.9966981031383946 -2.1816872189116427 1.1366836791632293
Ni 7.82370309294669 4.990014486950543 7.522594025597737 -0.20427851703953848 -0.11978435385020014 1.0897628462419746
Ni 7.353943918453097 2.069884566989198 13.578504268834061 -0.4425105082063863 -0.9376959782089851 0.5488191961676548
Ni 1.5775938296950431 0.3121395003404559 1.2168281601145916 1.1261660674613572 -0.6268236378675914 1.4135220698483655
Ni 6.019480934958032 2.717233337588753 3.8071740125785545 0.46338658032444713 -0.8094233843821156 -0.4914635410663213
Ni 2.925502614711542 2.4922177553632587 1.057005962406792 -1.0072350627503879 -0.3928537644112073 -0.16902097938882502
Ni 7.185196296429918 4.0740872374249495 12.539714835852543 -0.3063261157316079 1.3916779773900805 -0.6159345017589135
Ni 5.795121702876541 9.156159520287233 1.0931849199873016 1.0504715048415199 -2.0742845265552474 -2.1415332724005762
Ni 0.8432467851509496 3.9531406587464497 5.586283276414595 -0.13060149907036217 -0.06229705826700884 1.5457575049777248
Ni 1.9192053267873606 5.914558676223833 9.790707587792603 -0.8958435609495734 -0.0636322321386646 0.17188544542081363
Ni 6.902759453034789 2.3750686310893476 8.24183470275607 -0.07257427182330081 0.5027838511751469 0.270731763566766
Ni 9.296262146739993 0.21941879078327423 7.241484884779618 -0.8914657435968518 -0.6790196031448564 -0.9087006194178995
Ni 3.948930641394202 5.062691200752936 8.865342023196247 -1.008722960149824 0.8512881429367016 -0.30815519852054674
Ni 8.380381779367543 5.135977382546187 10.415929857394753 -0.3236347822133846 0.3734169958428343 -0.9735160732313879
Ni 2.9713721133467246 2.803599640108923 9.415524718477595 -5.958700497757757 0.2015058393904078 -2.95923046675571
Ni 3.4490731245827546 3.555973810179591 5.9777004977199875 2.8834988802503503 -1.933740314449876 -1.7985113439098317
P 4.582542941122837 8.074072543591958 7.620893711378944 0.22330339488147347 -0.5451659156857838 -1.432589628002778
P 8.069243681818222 0.5923466285321017 8.907417817999091 -4.230448918605437 -0.33287249876156866 0.5351069887878849
P 2.8964169269015794 0.5327734765331986 4.420594168948467 1.29529811850675 1.9578557194408408 1.1083434374576395
P 7.634514852153132 8.752204135945256 12.732047931478938 -0.3947119006658686 0.7938602398365361 0.18498650157914595
P 4.1415506557978325 2.0381734786032233 12.128343632526395 -3.4013411684205166 1.3018230641094612 -0.7929462126626989
P 3.803567837358789 5.373379229632082 0.7074432521414095 0.7442662309584924 0.9632789688844119 0.3054192876466224
P 0.44339265156592944 8.07806690303975 2.467102048281452 -0.5687023082448269 -0.6986669450621387 -0.7640197594363358
P 2.5029068862798796 4.760076278645027 7.142745444401929 -2.219471893859584 1.6412832433908766 2.8854256649594174
