# total energy = -340863.7805512268 ev
CRYSTAL
PRIMVEC
9.34019426510650 0.00000000000000 0.00000000000000

0.00000000000000 9.34019426510650 0.00000000000000

0.00000000000000 0.00000000000000 13.67031842829073

PRIMCOORD
 96 1
Ni 8.557383148097504 0.5294713224776356 4.194723228542098 0.1559518049096927 -0.45424270904164993 -0.30194341328288
Ni 8.93086015181598 3.4061259654386915 3.5851233143773604 -0.22661111909846782 -0.38947816307075506 0.021996301765433084
Ni 3.891685299088186 3.4344080733579516 10.420951763355733 0.41888052749227206 -0.7824126601212267 1.2948173222155894
Ni 2.8401382198695297 4.758539378968845 6.826205246934379 1.5176157524361862 1.193247948711519 1.7905368103447874
Ni 2.8575857025621256 9.453117108323722 2.937272503065415 -0.5217652773736562 -1.475652263520207 0.8353557879771613
Ni -0.2811706668843695 6.750233041648886 0.8191163475242061 0.28132496570158 1.313537781443228 0.6423996379289775
Ni 2.7438688386529457 7.4520085299294765 6.785303602684301 0.281312881516722 0.8549555644859598 -1.0914659449760105
Ni 6.3928585326638325 4.560919550912137 4.2438545178673595 0.8732857302537154 -1.2719620148839705 -0.7210005755623324
Ni 7.999745536108203 1.7661092933055438 10.841984365644525 -1.4907096720739617 0.1068164808356225 -0.4250869134133002
Ni 6.061384382087006 2.454901911702458 9.093235691225878 0.3323035136319761 0.9881785603395691 1.585215196752715
Ni 2.1096789953207593 4.3907225329118855 9.290170883050592 -1.104051237840189 1.0787374416657487 -0.4444748310216087
Ni 1.6471245598896065 1.4082677746124448 4.487090920186576 -0.4302520025540074 0.800724313946221 1.096019368674648
Ni 9.21618440304371 1.2228742607123788 12.78821369922688 0.9154518220988039 0.3502117613709646 0.4279526649968694
Ni 4.852548433198487 8.044690550410543 1.9855450128639083 -0.1825742925932275 -0.6912495695521449 0.640527360606929
Ni 1.2590581728917762 6.062607947522086 5.571133468910482 -0.8322192992307088 0.6718984187190429 -1.0195455046866249
Ni 8.241871389341688 9.203425697819895 1.8171403781231363 1.4530329834587943 -0.5643517445856152 0.3885620790143889
Ni 8.672090072587741 4.672740355406651 9.395718813146631 1.5368164937343531 -0.4140098296635321 0.3779053706314911
Ni 3.1504381502835552 6.224856460291397 2.439591465433881 -1.2248295801725422 -0.0761326785985205 -2.951255933190666
Ni 6.917656021983345 7.570021883152679 3.4340522119604207 -0.37390807654663993 1.225330945288993 1.195589195250186
Ni 6.332978547898187 0.9020647438284888 7.5103912815711285 -0.3599261604452511 -0.6550918886846654 -0.1398495000311914
Ni 8.50221996138312 5.038082050010967 5.3779306186724725 -0.8689385090286131 0.5949869529729688 0.12173299293613873
Ni 4.586978692621099 1.2023912149174854 4.2472039114934645 -1.4022482967067593 1.7162584113461863 0.4030898403169187
Ni 4.2709905839630755 0.7538367965141326 9.119702065400256 -0.8565167383254927 0.766333495171177 -0.3801712838475324
Ni 6.652104961794279 6.422457607959783 0.6731944941481808 0.2748198175932106 2.6542647217067383 -1.6541690982146091
P 8.981838931546271 0.6616079832915617 7.951750948412326 0.45563444718285395 -1.4809981012131528 0.3699660611797564
P 7.316697137120254 -0.07579660963526746 9.49655181323024 0.7330935021711246 0.4960362480386683 0.315375884638702
P 5.993705335196993 6.544870192632778 11.471912278381083 -0.43869961910072836 -0.8437193294505082 0.1359067133333595
P 2.5350687981856193 3.222292263963499 5.534824398129328 -0.6595627799718254 -2.1482497651888033 0.2755878061074866
P 4.684798546068396 4.149605420647782 8.498002863719467 -1.0273128073368696 1.1381584639365432 0.8131062325503416
P 1.7690047534954285 8.412460695496696 4.793934978761061 1.4806905972750628 -0.42839360918902997 -0.3094500060725703
P 3.2431022165540244 4.489569807716883 12.656582342917059 -0.16049622974726555 -0.743387942118597 -0.08512254080195662
P 6.307152911043247 2.910479222095405 11.734259651972954 -0.5916653447989036 0.2569964162585445 0.04756797958695033
Ni 8.5239732735839 6.404459053811693 12.243000413510433 -0.4907654865580322 0.625630903111071 -0.4161836973863993
Ni 2.193357794808426 1.1148922760180036 0.9243756656206741 -0.51244734240684 0.7244278560763266 -0.5471814034539157
Ni 1.1718394398171217 3.3611249099713874 13.027963407065824 -1.7991070685123014 0.7377160885448004 -0.15276620809285946
Ni 5.445463958533576 0.9247987764161636 11.85625379594754 0.017432593654150622 0.21015477331465746 -1.1884978356210434
Ni 0.591820854579429 4.126516460681992 7.207702675378835 -0.9574675044089573 2.76208213300305 -0.29498343702527907
Ni 5.827179013501982 4.753467653539467 10.350290392470137 0.5871926537395307 -0.8752276844714346 -0.14593632965521963
Ni 0.7176145895386757 4.686526481988166 1.3711601172305328 -0.27461310089904317 -0.45369609250956056 0.9953365115405891
Ni 8.964073882252205 2.305047836584686 6.233651187113318 -0.6620158694980083 -1.0596218038822203 -1.9049161911293322
Ni 6.742303216806267 3.0249806623141016 2.353262852862762 0.936868082991051 0.5984399445185757 -0.06985892977466679
Ni 5.305856076410331 4.8960176968234 12.791056854329463 1.3349725542782362 -1.401734076074502 -0.4478735722905125
Ni 3.164009452399369 5.609403046446013 4.486735058789044 1.2139928945683542 -0.20336706096886267 2.6996284945535183
Ni 4.296414592469095 3.5872790311897003 2.8837942873776616 0.0931361551350525 -1.1811881893335077 -0.33713333092045167
Ni -0.1272554753454303 7.181647269747538 9.688332151897542 2.4873358489602517 -0.2022748563459484 0.6024320963971044
Ni -0.019479908942011043 9.115030100280967 10.863802125185012 0.5127288782030008 0.692521494286033 -1.2356330985459494
Ni 9.114105421059035 2.274692205561702 1.2612194938206127 -0.29119697339965334 1.0812967177524926 -0.04790787942487233
Ni 7.079736411257759 8.255666856117362 11.748175607253307 0.5875641781463364 2.1601871400563377 0.03874523908899779
Ni 4.909215391172778 6.713563439373122 7.7898526929240495 -0.40203285980731407 -0.5794921997714794 -1.119579415382775
Ni 2.9993605097307032 2.2149336433201467 12.569693318696284 1.2660975856833936 -1.2610322553453444 -1.3402206900510532
Ni 1.009422803552915 7.8964616690767695 2.670346566295862 0.10105232465833565 -0.8085391820049495 0.013230896867977213
Ni 7.244376013732264 6.414200876321531 9.509114374376676 -2.65367953862723 0.6830852885737978 -0.5452314788163964
Ni 1.6914344409890025 9.390911415212008 8.990804583921337 -0.33410971360277947 -0.2551444506514703 -0.3424377738525005
Ni 9.297705617680204 6.657382171495199 7.4341790332957 -0.8184759815026872 -0.12758662350343836 -0.7040603481635681
Ni 7.137813738550348 1.1759771458304085 0.245787209344563 -0.3833255132057979 -0.3277482901611259 -1.0207901757270033
Ni 6.891587540080222 7.860277756897373 7.515762827233072 1.3342768137627925 0.32606807424522555 -1.048216390258756
P 1.9258172732630845 6.614034330394377 8.519014564503868 -0.5001883225338288 -0.2627510593541346 1.1250293827537527
P 4.337446065418008 8.883710851691665 7.211270629548306 1.4009095232906776 0.04892989293148347 0.28951778592501753
P 7.66738406708609 4.689814230332809 0.5081205726451926 1.9343586647601652 -2.2633385133355475 -0.02660680395425095
P 9.250631039109177 8.388801983687092 12.803565242349764 0.39163686128497066 -0.3923863378564855 1.452398949419221
P 6.593495243434517 8.4424053579766 0.7981662920212667 -1.034925843797437 2.184045177620858 -0.7724311234284825
P 8.155670737430572 7.545709357751808 5.493732213918369 -1.1685396473315617 -0.026674681077708897 0.10494600328578702
P 4.976016459811666 6.187439642482758 3.5325875242804434 1.7534440192575478 0.3561317263998254 -0.6663854593206135
P 0.5013143731601315 5.77080160154668 3.4163768285302996 0.08741262238771397 -0.821404982224024 -0.1409000527828928
Ni 7.681870708229674 5.596494898115624 2.7715475700294108 2.10864552053362 -1.0883435972969449 -1.350369348449281
Ni 1.6276222344816091 5.870368071302067 12.962291567900992 0.309033487360442 0.6916195512970541 0.7215744457879315
Ni 4.146980826088564 6.849771490821792 13.381505634386652 -0.30750548075168976 -0.5274443300363045 0.21404536661831525
Ni 4.254346357968319 2.4937384390235557 7.265309256885715 -0.702254662413397 -0.7460899144307925 -0.7211036767991
Ni 4.347795000548306 8.188660303206936 4.388432317303629 -0.6335442444208765 -0.6631841787744965 1.0937454850388064
Ni 5.325442463565777 5.072164418504157 1.5001397924180686 -1.6698309731215821 -1.6473286782540082 1.755157916624861
Ni 2.0855812943855905 7.559934473458886 10.667086427923083 0.2738245435594768 -0.27064923115528877 0.1521357735977122
Ni 8.089990492090996 4.2765293191005 11.580850698957537 -0.3799069744425522 -1.7068443171211378 0.8704261493177331
Ni 3.778986516342547 6.143680832838856 9.68026689423959 0.3380229326142566 -0.7160681712577216 0.7047170079109606
Ni 1.7156535644482633 2.3825154069553416 7.8641240488528386 1.5146229883564495 -1.8395811173669478 0.28788744941044614
Ni 2.0404494762000334 9.073755782283868 12.623349932092513 0.013159420200093464 -0.5680690455362023 0.05947630098876208
Ni 5.369630922141082 2.6319079312460194 0.4314403806423023 -1.568631581362421 0.16530239288665724 -0.5621112852908706
Ni 6.386441819275282 0.17322324090838934 5.240379447303463 0.30873009718741024 -0.8021597608411669 0.38923802203549096
Ni 8.800330938417149 2.527886188875873 8.546546654832007 -1.4614325203763991 1.570806991747185 1.1167627718695865
Ni 0.2765388645999701 9.14141614878556 6.1892096092762525 0.3900386635599154 -1.0260812489226134 -0.0541371481640358
Ni 6.052361754527559 4.009054178914284 6.88230805718135 -0.04372880834651824 -0.4902294115489041 -1.071412111648929
Ni 0.8503023218080961 2.7715905349225514 10.541879257157142 -1.1697028144017274 0.7041950739692194 0.8766723873377613
Ni 5.673364696059981 6.27574183808008 5.586348645198617 0.3939017460597474 0.7495025396567673 0.6455142722985592
Ni 5.477622247029617 8.15656739607002 9.554677709532466 -0.26948914940891655 -0.15768498555071553 1.3571336637563078
Ni 4.400118768237769 9.23926402281534 -0.025825636854938883 -0.3442591433319555 0.6251264526708267 -0.018758768664741885
Ni 6.194052499948689 0.7676023746684939 2.714542497026495 1.0260509099053103 -0.7940798120465098 -0.13891644669396075
Ni 2.950389871745009 3.5487600704700735 0.978306880725232 0.08472736224606699 0.18275375559388526 0.21422560094992138
Ni 1.9948880090830745 3.88369009288644 3.603632777146052 -1.0510633727892478 -0.3351481821696228 -1.4698081460346042
Ni 4.589435163685421 3.7264946251581863 5.098878307823799 -1.4321111457044626 -0.9055217074692856 1.444048777682313
P 2.5521800338884213 1.7167090063884471 10.161803406263976 0.8591585468237138 -0.8769834908202766 -0.22044278550422683
P 4.266619373095765 1.1990007244370722 1.8483777234749112 0.37247622919611983 1.5747451504593266 -0.5539405765546203
P 4.185294302536651 8.119150578261381 11.551828847660731 -0.7856841317836469 1.1111060878044412 -0.576742147830168
P 7.652411735846138 4.9955281254138235 7.579575967759881 2.092931195122157 1.3919901093138607 0.15130350750440394
P 7.2177284397911645 2.147665564973214 4.555236976784634 -0.6026275002373622 1.1636131565642218 -0.20040540723737743
P 2.4243127758254506 7.558309279674887 0.8424425484216833 -0.5853563718617403 1.023396760111915 -0.17137919520835646
P 0.6582996865197644 0.8810511750052549 2.5647836918891644 1.0771060767099128 0.34640421469941635 0.2045960482799573
P 0.7326747186037402 5.372395619612712 11.092930164224162 0.12925064146942256 -0.613922099314575 -1.210343470741225
