# total energy = -381168.33172524715 ev
CRYSTAL
PRIMVEC
9.26110213769537 0.00000000000000 0.00000000000000

0.00000000000000 9.26110213769537 0.00000000000000

0.00000000000000 0.00000000000000 13.55455910506397

PRIMCOORD
 96 1
Ni 6.240927169040635 3.856693432235247 4.3346394724366055 -0.429593285924086 -0.2535956181071116 -1.0849955067603185
Ni 5.978208219646606 3.0463840274065683 11.75220913408529 1.1950487493656836 0.8151037225963447 -0.3066685866726912
Ni 4.454488323113532 4.056103486463682 6.938524328607046 0.815214537142596 0.09565403646089977 -1.5915539944865493
Ni 1.3746254109755975 7.908796122515263 6.936342412910584 0.46004774575920127 -3.1972925080035965 -2.363921354556632
Ni 5.09223560921481 7.438804443059625 0.8710335263487621 0.318422898995142 -1.021537338305673 -0.576826222903542
Ni 3.3244393621713146 -0.14175413589272307 -0.399578592733356 -0.30552547420718346 -1.9120111503029007 -0.06610229094571196
Ni 3.9392839423415626 5.120444926750562 11.00933814992752 0.7877803521910433 1.7835891753823605 -1.667165510474277
Ni 4.099269484176794 5.5718866183453635 1.9836012306329083 0.34629777102853904 -0.13951139996548234 1.0536069651467082
Ni 2.52663244541659 9.03965079935558 8.418615172313157 0.9287099726602909 -0.24828166209336594 2.178612436641061
Ni 8.336909097474294 7.12384361572102 1.1987950492546409 -2.068776195142508 -1.3226939940211995 -2.2631433666056058
Ni 4.098389679460479 1.917992803771934 7.623436556384646 1.0507810656621388 -1.733857869595504 0.5942680725290733
Ni 2.733238376114256 1.2059807385113677 3.378094484323361 0.654017424673564 -2.690481280836612 0.17889272997658223
Ni 3.9834594002028685 9.099181164792158 10.313948837143945 1.7401704420770934 0.3999584937767886 -0.7298744810131945
Ni 4.942965162714071 0.1897822123012621 2.336060261091099 -0.6531152245742687 0.3543172988989059 -2.9321384956349243
Ni 1.974040994752358 4.36941583759698 3.5623681929902613 0.08635692742968999 0.5600186644279 0.9720479733262936
Ni 0.8432150273290996 7.467967654129907 13.424747535327985 1.9298366085200958 -1.2787759524820106 -0.35400619541639033
Ni 2.2364728499758 2.833350891728662 6.570898390949806 0.07624760690982997 1.6049365864410425 1.594458569727854
Ni 0.34062519396863616 0.29662569705059355 9.942960193249927 0.26092917565404733 -0.23780287404922915 0.10953953619374039
Ni 9.350101469885285 2.9979114180887327 7.563227352151164 -0.9009456580628291 -0.08147697362956935 -0.6685701256767582
Ni 3.3292921797644643 3.6588299820870724 9.170933406903696 1.034333975849709 0.36067692256834655 -0.6146618056940769
Ni 1.3633176050953764 4.6112046958449815 12.85489987279101 0.5110854290623068 0.3127644151577839 0.5286954288345863
Ni 5.5005298253010535 3.612654126133934 1.68534650569179 1.3144664639050847 -0.2288564634892188 1.5497519708490985
Ni 2.4579335887257794 1.133994190512221 11.194073061487815 -2.4510982067844562 -0.1538985219250898 0.8674256719285126
Ni 2.4575724057369763 0.6210050654049105 6.330169002802293 2.10467805124544 0.5879135910659552 -0.9526667405862045
P 6.450079902864477 5.129789378948058 7.796745119955574 -0.6448565841099023 0.17876751725262763 1.1142302352557196
Ni 0.655372089844642 5.836170694024206 10.880773675897705 0.4327179475959967 1.1466009382769413 -0.8126097525298972
P 4.747324377112376 2.301569137880856 10.208576015436204 -1.1780972091130097 -0.7551677083623446 -1.4980010635290522
Ni 5.4640596045342145 7.1508952954721465 3.4193406555344508 -0.9220726698494314 -0.1633028459581252 -1.0948454029712047
P 1.8722800029326458 8.701157511131111 4.7885686961030105 -0.15160921167028082 -1.7092169311183725 -2.076287415917889
P 3.0901056912563005 6.396847086976262 0.050880495909856036 -0.16778273610634972 1.1611179009461938 0.4169424299292948
P 7.690558247357682 8.711307679226707 8.924226903346606 0.11240657332889027 -0.05398956684257798 -0.6668163762104451
Ni 8.536541418157377 0.10542468388049459 0.8114559292905723 1.1514700934437847 1.3068200031034203 -1.1518094790610744
Ni 6.100288069862063 1.6719067940674028 3.4265791330741564 1.2176338337550514 0.9551360280623034 0.9375041739131531
Ni 3.175604187477595 3.2782264618090684 11.471386581960173 -0.3764910067824678 -2.5639472669674035 0.9582948854062592
Ni 3.7910044337844635 4.382316553068846 13.475414099775241 -0.023776533594307436 -0.5496445202824276 -0.09887537161167488
Ni 3.2956558562943887 3.0417997817794515 2.3294459818448634 1.049459775747554 0.21473082272111405 -1.477126019852256
Ni 8.232203075130496 8.174626802274366 6.6304157908431955 0.18804585723076 -1.0212714862387962 1.18782266393089
Ni 6.158299614525212 7.040076945625525 6.913259115485153 -0.0013907096999395405 -0.753386962312838 0.21822289503477257
Ni 6.611769487518678 8.4609430402702 5.01000906042798 1.5926492844332572 0.6520456456591739 0.5198431206502788
Ni 6.775579864594311 5.563218226614088 2.1401425685313225 -2.263622877345185 -0.7655891608059847 -1.5224507119309845
Ni 6.420870386282809 5.36326176735131 10.789429571919166 0.3273914210423394 -0.11949998984056191 0.2939747932551066
Ni 7.984033317413639 0.8104010897412216 11.885098542878465 -0.07231793283812062 -0.1614143706861607 0.386306964431625
Ni 1.3233929931792152 2.4309837810997 4.612684619988847 -1.4247871012392235 -0.7390944569495659 0.09669610457216896
Ni 4.805317399570971 1.150914224372306 12.169933930620205 -0.12394568431674136 0.2345401441375574 -1.0650679145984558
Ni 3.056987989513737 6.467444469633858 4.182855562777887 0.8137001573805986 1.4531013748028845 -0.39984922189243394
Ni 1.4463433870087108 4.808790312924847 8.424240365836209 -0.16820722523827805 0.3855844844433037 0.06056130652282474
Ni 7.484656160433067 4.072171498914283 6.291660413424287 0.3306212408335467 -0.5273566554185046 0.301133515787075
Ni 1.0638598629684752 3.683492297450732 10.626028535564176 -0.759123350575983 -1.7299294810753756 -0.3689792717864549
Ni 3.2218356100443954 7.977467195899243 2.1971261308417236 -0.7262319991646009 -1.0555615177699176 0.45300240887664567
Ni 3.864778374523071 7.522228452370871 6.595391228141796 -0.9028194780467742 1.1119789773276978 -0.8764330176334454
Ni 2.3083390036453455 5.163759102100106 6.080073861922047 0.7445202559508275 0.20802204324237078 0.5185830229909327
Ni 0.59001649107583 7.616571301266703 2.6992547613087923 1.5930742877858177 1.754920089582442 0.5546206333407803
Ni 6.165458446585335 4.705760550093186 13.307391773384024 0.6343199462446366 1.4486268839712988 0.17906293700585935
Ni 8.265505998918599 5.706265212384681 12.43077750680314 -0.6458204906850684 1.1702039224078622 0.4771874907632814
Ni 2.389142121012199 7.660320748423267 11.151458099360184 -2.2386312403968547 1.091074623074863 0.47414021929652533
Ni 2.483855413999112 2.3029490421201295 13.504665291317156 1.638870777294642 -0.48857953465030696 0.789239453235073
P 0.6627957894298879 0.003587751022111072 12.441594474262681 0.6553135177771682 1.635233437652371 -1.0210030630687577
Ni 9.286570308265043 5.864861588878362 6.757543867909847 -0.9839542378455765 -0.27214767007768614 0.6007274550011719
P 4.26576558091276 4.759956520618209 4.625737217538055 -0.14829917346044139 0.008002301479186218 0.2371053337615723
Ni 0.28156992307886936 2.409414673896559 12.96921891929834 -0.7378297313045293 -0.17937018383363304 -0.8960711035793472
P 2.5506742669276905 6.295308361611198 9.589714895208418 0.26014807451364874 -0.6679060097301981 -0.5939124889618674
P 8.111058596245016 3.6902065966015596 11.68572460694891 0.48052478266663057 -0.3499716203357005 -0.4144489740834797
P 6.694535958568256 7.626860385896453 12.457358722558595 0.041263377525161196 -2.5231636572921383 -1.054244598730707
Ni 8.982926547908937 -0.04911440370563152 4.568523979891184 0.5146458927200556 -1.084488485216913 0.3314478504999001
Ni 8.544126260922244 4.712030316334716 3.24040689844047 1.6525976399624311 -0.83616080037696 1.7812679834483518
Ni 5.490175912955364 8.968377356231764 8.025370247427043 -0.7617031954880172 0.14252910374588354 0.3623383694311695
Ni 4.167773857719787 2.6125199079335184 4.950382379527722 -0.2605373395322674 -1.0885325733792994 -0.3328789265194719
Ni 6.434549034345943 0.9111859613809375 10.145750549809469 -0.5870139620698214 -0.47855506053476937 -0.6459698717787392
Ni 1.7378458422796663 5.586963692852325 1.6296104138581011 -0.6458935100148488 0.5315871485600846 -0.5229850087133703
Ni 5.294044288932988 7.286051822102732 9.900778650708862 1.4279984090876696 -0.15134155983119096 -2.077119939121513
Ni 0.2814661987333669 7.148598542107449 8.903990468761126 0.027127195234095215 0.17079864011453813 -0.21282614949923345
Ni 6.865838567385985 6.020179535165985 4.870641510592041 0.8438514841529983 0.07898454622501881 0.8878176053213033
Ni 6.226544677204449 3.095903141281705 8.664141811440157 -0.6019690407177568 -0.12513584797010063 -0.009036399170655405
Ni 0.423853794021837 0.5475154405062065 7.309851928844403 -1.0796805223053083 2.4209111416781144 1.2392349569645948
Ni 0.4323795647780462 1.1799570411129883 2.7772480602448035 -1.611950041644398 -0.29431957818903504 0.052451532931496764
Ni 1.7837438651644943 1.9763377481170548 8.95174256432181 -0.49862971979745735 -0.037707027632470545 -0.3847614743213761
Ni 8.175562173604344 4.480160098625386 9.120388162896267 0.23659574111500542 2.2851553521003223 -0.43135860535462484
Ni 8.768754296650958 4.675791623124803 0.8750148742176459 -0.9340722654134688 -0.6194309449479461 -0.20529538833982708
Ni 1.8550728749019738 0.26019159458263497 1.2281583001341074 -1.6554950161148843 0.558127103832142 0.012482705848043018
Ni 7.278142840758171 8.928508310929265 2.6812947056630003 0.05095437956067999 0.3657013723661315 -0.16294751950123548
Ni 4.591219237131209 8.996984901165428 4.4769622400091365 -3.160335471163273 1.0949811572181207 1.2385441015451573
Ni 4.2408995212990055 5.886273257342794 8.10442023813286 -0.3918767452099186 0.8917238823542448 2.0742289907269633
Ni 0.9945960790387677 3.054450447489838 1.6947539333847699 0.04521696285627051 0.7486833861895815 -0.06679751724052367
Ni 8.253225777299294 7.715924406494393 10.8705262662282 -0.8526909368214991 -0.11964602850012299 0.5455482387258669
Ni 7.8880975589261615 1.8742989232290326 5.284447934753557 -0.22425058928609123 0.6573806847188421 -0.7306722943241417
Ni 7.254656685383691 2.2296937231090337 0.2854438421613398 -0.46763918495321394 0.6731379475530987 0.6236868920108226
Ni 6.210597059083448 -0.030440317074282096 -0.01311186860378125 0.274060827939999 1.8294466000361074 1.5542002364284393
Ni 0.7820241462542559 6.269488408462912 4.5480291605521765 -1.3350648568817265 0.39362535246990915 0.5317293305649036
P 5.521024644640062 0.9913917376509246 6.070992425029218 0.03645592883418883 0.24793250628406335 0.021855919532826874
Ni 4.411090797843495 7.028935839586291 11.873116528752478 1.8320277304997223 1.3905343507039407 3.2839615673570672
P 4.778265719819844 2.162106198691464 0.45700946628373645 -0.4315599227321535 -0.9054697711854276 0.15316601463443946
Ni 7.3373305454105 1.1215102246428206 7.390989372003457 -0.12275320667053699 0.697829793872824 1.0091821591744297
P 7.824927580294722 6.957273430166839 3.218977633881712 0.8419344696359435 0.735157840899321 2.199866718034147
P 0.2811429862638995 4.129247672247454 5.392437017854554 0.1355210478591666 0.4150662959525045 0.21744847876259327
P 7.855878184104467 2.8408801678798654 2.3732000595525657 -0.386378955320141 -0.6412534401396762 -0.21538619691692582
Ni 8.310737222439483 2.3816869336792115 9.766683446399218 0.682671598075147 -1.2891074163150056 0.7361991376796418
