# total energy = -381171.1559172261 ev
CRYSTAL
PRIMVEC
9.23828351510108 0.00000000000000 0.00000000000000

0.00000000000000 9.23828351510108 0.00000000000000

0.00000000000000 0.00000000000000 13.52116174435674

PRIMCOORD
 96 1
Ni 2.432781895378457 2.024616048187933 6.654277495054481 0.8106104627116812 -0.18777460584724434 -0.09200049886871252
Ni 0.8571612126971774 4.112154046156651 0.5585567901763384 1.3490596284989218 -0.46525551521238584 0.18496001921658467
Ni 1.901174102369279 8.149838287999266 8.092185855199094 -0.22767735557945307 -0.5308687823368212 0.6853465738041488
Ni 2.6371789206170235 7.171476337091248 5.831433734545041 0.5643663998736345 0.5517340558216046 4.134579680809937
Ni 4.9073670241672875 0.8909114342702421 8.928076843674383 -2.301491370256185 0.4173080407988297 0.15667891288370434
Ni 2.7772867300980675 5.887373389560841 4.179918704214502 0.11942285674572335 -1.5096386477679806 -2.3437759899570088
Ni 5.859871019204447 2.937155228256413 2.328587913495828 0.0766849515575647 0.47872475334341424 -0.15142589201488113
Ni 1.1121692509557195 1.9976864514163886 10.782247482779875 -0.3857634332233292 -0.6943194667267203 0.48782234476930825
Ni 8.627060305298638 2.779476203317572 12.300268390877655 1.7371745926735631 -2.0177534242377377 -0.8741995003172365
Ni -0.37599352446088286 8.234451727735312 9.573388507731416 0.27647020871244 3.0865489241994264 -1.0122890802345277
Ni 2.2797589653874235 1.48752995298818 13.103709908114505 -2.1395144421983345 -0.28325072196938317 -0.812049509151053
Ni 3.141081101030023 4.320043142606074 6.492591826506782 -0.6544524553284534 -1.2056568638988332 -1.916801372602692
Ni 2.9134220776196726 5.310765917006485 10.32167654788909 0.2056273177579491 0.43597013598470724 0.6240545597628865
Ni 0.5829615640327326 1.8320625025586703 2.2439449112521763 -0.16840699995390995 1.143193455257289 -0.8825134194995704
Ni 4.891717371703824 2.3174604008675863 6.866302571083533 -0.28361401884607285 -0.28247630569720383 0.3082408162558175
Ni 4.39046657869166 1.2701439009706115 3.089950896470232 0.8568666654657436 0.10392270422759523 1.8712856475590802
Ni 7.79800749436376 6.437051265343651 10.208450296104731 0.10059338274404611 -2.9704607882538907 -0.8575096983663811
Ni 3.042009747418344 8.651458612356494 4.074494182952809 -0.9548123261742976 0.52235277444601 -0.2605167707069771
Ni 8.433019396005493 2.4266938664685265 4.2499578277012215 0.8015995174623227 0.174229520172958 -0.19387094855296932
Ni 6.644617021866143 7.608188480687971 8.63232889845089 -0.5421587534283437 0.37037820901651053 -0.5045131751614279
Ni 6.699880434520476 8.754705670167397 10.486688922370726 0.03677680250871731 1.082483281861426 2.3758774984772435
Ni 5.702053420011207 6.687722853267867 11.348662357009 -0.8926145124893143 -0.11050318565859034 0.8210213736323602
Ni 4.85092111120875 7.11269313837518 4.834153626426468 0.6933799856315865 -0.08821557790498355 0.3374068962968125
Ni 5.7893552002825945 2.474963898417521 10.711356589542781 0.7603132571190261 0.4376084429190786 1.2455403303573322
P 1.4341788650445544 7.399874423191726 2.5941026517229044 0.7416210800261614 -0.03285072798143374 0.38637484155508295
Ni 6.461347951281615 3.5924913538766696 13.01721463000372 -2.9688795598096998 0.3858732193283161 0.4838589892461861
P 4.749669522661193 7.010065045567259 7.223139590616293 -0.693115162005974 -0.4443362485612154 0.3858490509586
Ni 1.8554907898357327 3.091600853925943 8.77751961158329 1.3180336124310525 0.6286329231621883 0.3793351610994822
P 6.3899822102661155 5.30759718572256 4.582902798118865 -0.0006636017259278894 -0.09923121228919685 0.550189079931988
P 3.2859558648623928 7.8733826504732045 11.37063469078651 -0.2176775640542638 -0.674594220383651 0.21608502275616331
P 0.5916815799478821 6.179617253804764 8.66457697510627 -0.2541944280333751 0.2882036950992843 -0.14302044156000532
Ni 4.976395479425257 5.378750446214648 2.851167131916728 0.3750293346352767 0.45320578313670334 -0.0236412935680238
Ni 7.0650513097127945 1.0113241468877334 8.704166715759708 2.338741512856895 -0.42367923443249617 -1.1741536510842296
Ni 6.840459396466476 6.712213543161989 6.578802565481869 0.08482712104872488 -1.1594549114214743 -2.658792691484079
Ni 0.6773629652711639 4.525918293224896 10.931643462619105 -0.3667071879228265 0.15179381687726115 -0.18797258079066337
Ni 6.03719987341707 8.442368539035614 3.089869599574318 -0.9003216513255851 2.168599532489749 -0.47656219847445663
Ni 0.30958781792450596 3.0310900961717007 7.0245820844581015 -1.8377499776954802 -1.5724077605754014 -1.5311233000043178
Ni 7.0709730495174465 3.428206956144809 6.2176789823463645 1.0810046404333704 0.05932743411572362 0.15410678128115393
Ni 0.8555112552414664 4.514361200408017 3.1306085827109067 0.22268710145371323 -0.912002944318255 0.8708303267346874
Ni 2.3952467490035736 5.731606689332708 1.6330587873013143 0.046049228949578754 -0.6963267269647363 -0.0713635393446513
Ni 0.7615394341916721 8.262314391153144 0.7474575184596428 1.64099810805029 -0.9639572258983591 0.1937997289954017
Ni 5.636738754771132 5.601660991840925 9.170944853419208 -0.2732342182736456 -0.5282794243430902 0.3731742837044089
Ni 8.862276244715549 0.7812169783163341 0.046455633044730174 -0.5528501717039188 0.8556944995345134 -0.14936412438984598
Ni 6.536760060525566 1.3667671094212404 12.783852814110668 0.9450272217630756 -1.9278321764955573 -0.17463215492801534
Ni 7.747243125835582 4.560404806003001 2.8958952059232836 -0.5777150532663985 -0.8116450746237828 1.6749582670458187
Ni 1.9027815637203078 1.7963195832073477 4.255001930561345 0.04096384400687139 0.09548588631415168 -0.07127380784432241
Ni 5.0779149781979855 0.35273984074436326 0.895666378852854 2.3112636191516 0.5630348255464045 1.2524488845517074
Ni 7.541755983129077 6.924961976799003 3.386956172095306 1.0017275026685974 -1.2715979466763327 0.6701960913159555
Ni 1.3420085093019476 8.854312844229417 11.946298010754228 0.35810710495864134 0.3880913100255574 -0.1672942265057054
Ni 7.439793046742272 4.223225930199286 11.188977700694826 -0.5548851998560766 2.451620397836513 -3.3300010261146324
Ni 3.0828891524660573 5.74578745469954 8.13320845364302 -0.3603146541329214 1.8429268939107295 -0.05748678136255906
Ni 4.618707613970486 0.5606843668955448 11.31097939809609 -0.30095276723483655 -2.6322064563551186 0.6401491513319041
Ni 2.6381304638305636 0.7247535126189061 1.8615529515515088 -0.5235637640349756 -0.3969212496123616 -0.1776478018258876
Ni 4.328995039440251 2.271407556988976 12.9682277072453 1.359537388101794 0.1626572419543263 1.141291610248886
Ni 2.584132696033076 3.936949997178147 12.214720036838596 -0.14247999567550299 0.6271817925379586 1.8441193715569337
Ni 5.3790830244252055 4.758593704644491 6.892480171567872 -0.22293109914371928 0.9398608470707878 0.5169328889820194
P 6.633789753455766 8.32789696661839 12.732093482435907 -0.49810341498034216 -0.09430112197743114 0.40217272781928803
Ni 7.933865693376567 5.011399336086452 7.81862549576161 -0.10017017916369846 0.5434988123960058 1.040112530204699
P 8.23103356279347 1.2577461243437118 10.521653978240689 0.24130908743027474 0.5158381132559439 0.2980307084920351
Ni 6.418214405029011 1.6073412533415798 5.146951747911218 -1.1531968463269042 -1.2966546325346444 -1.1213835584710494
P 8.034729274011806 0.9738629067818628 6.656048474025701 0.43905263156477287 0.851308968872308 0.04111013977674855
P 4.470405446912646 0.4944625022033373 5.2674254332006445 -0.0797911012867142 0.8531781608705629 -0.1398009061814431
P 8.319176026874878 4.815002664468523 13.12215229371829 0.569654130635135 1.370676178327433 -0.9816459014273738
Ni 4.140219951814268 3.6979648380415835 8.960149392940856 0.4036518834679758 -0.5093663894886712 -0.8859792665609838
Ni 8.105753198533122 3.023911949793831 0.9927930737611328 -0.8380958126161436 -1.0801307224688494 2.160269158247183
Ni 6.804956672489445 5.326018323274005 1.011124599961399 -0.8820174536997584 0.12441979573968251 0.21061140123610175
Ni 8.575870975723639 7.626507997119522 11.870768575308219 -0.6461467636762357 0.9454136585682169 2.7345751858320324
Ni 3.438951080002547 8.687349344245842 -0.06174961158856957 -1.8355488562791034 -1.3840217463964035 -1.6996339154156277
Ni 3.422931896194019 6.242622348138188 13.018512608853257 1.6005466849034629 -0.08466951242493806 -1.4428257039084893
Ni 0.603113955935802 0.9822882214493239 8.174015800078445 -0.8374756625336415 -0.12598302646174434 0.14881416542364695
Ni 1.120816284430219 6.952288819766491 10.567437064237401 2.112964973844581 -0.9598791991742438 0.07445194846198791
Ni 3.5124231496849116 2.453974518017882 10.870081388188154 -1.6382881653182944 -0.48365304388296704 -2.2215269766163996
Ni 7.752056271605042 8.844529501868847 5.060429678777915 0.47075896152911834 -0.9301053103459207 -0.782979074147658
Ni 1.2878259758319275 6.176319186550067 12.856623698065773 -2.3705105777383753 0.21176942609994498 -0.24248742400909207
Ni 6.417327529800857 3.2138972525748986 8.771110090403154 0.5676761809731578 1.45683538792402 -1.980056938128229
Ni 8.843735009476958 3.2481250934114585 9.119617873418171 -1.5606992138892217 -0.48349697792107693 2.013671283748564
Ni 0.7319723074447327 7.399532606697542 4.608647123101116 -1.0096459861847258 -0.9314206867232346 0.3802319618821387
Ni 8.585802130622234 8.076467839436793 7.230414738972242 1.332650591013279 0.15223450395910557 -0.31075895469198095
Ni 3.2728375021126186 3.6121319448668254 3.157962216700912 -0.8760519801449429 -0.13855546381011621 -1.5332940824033916
Ni 4.471107556468268 4.260798029708676 0.6747032634150651 -0.7392646639788429 0.5930843366336173 0.49676798399837024
Ni 0.8193683182091118 5.193402761814135 6.747857612878507 2.445911263266878 2.2469395031522335 1.4236347328023353
Ni 8.965578732228211 6.025190104702488 1.5214547781217878 1.055946154802846 1.0532002166265926 -0.2349407220100857
Ni 4.891809754540089 3.6117069838200018 4.713774171630032 1.059957075734452 0.11950384649530385 0.4040946274323492
Ni 5.919439472028776 -0.33824127842077434 6.7517109009791625 -0.777928656207944 1.131098471765968 -0.14729078680058502
Ni 8.57200013488409 5.145271304119539 5.2135034193288945 -1.5496776659677376 -0.07123189886279345 -1.7506875395583334
Ni 3.8485396228715674 7.588085975516487 2.0594351391765957 -0.42137449755871953 0.32305037046482427 0.836768866274604
Ni 5.349751473910745 6.9100144338911615 0.442945213559592 0.76322451722855 1.3414481347002511 0.03993617407330542
Ni 1.3615659557394635 0.06222353553861425 5.990780269678484 -0.7004075819023292 -0.40695523680959594 -0.3491051585703472
P 2.4131135895374216 0.8632963568536037 9.391555990250824 1.1943890042944978 0.1847003377972948 -0.5209486950096318
Ni 7.688986509286232 8.20257041093991 1.2109144931553788 -1.0553514586416404 0.15256514782564692 -0.31845863732908386
P 2.5636237063820198 2.9113619403709405 1.1033642428312052 0.8333791238667647 0.3024702323206275 0.9892427399380254
Ni 9.16860849149004 -0.22930805703769835 3.1345570251329167 -0.41880673683154324 0.546530143023162 -0.5620243820040192
P 1.2820058571471684 3.6852344832041264 5.244439659709297 0.8041487662467376 -0.11731403793283667 -1.751208959279442
P 7.1471334597351515 1.2261511943407335 2.027498392679433 0.5374114685513455 -1.0150558443463873 0.08204595875916192
P 4.6981845680101415 4.641978850425896 11.343700474873154 0.5842698236657808 -0.749854009458915 0.1697609428786431
Ni 4.156359233309941 7.842148013531665 9.296191036030137 0.015827453950559837 -0.13026057079117567 0.3600140921733671
