# total energy = -340854.86013822554 ev
CRYSTAL
PRIMVEC
9.40229617207020 0.00000000000000 0.00000000000000
0.00000000000000 9.40229617207020 0.00000000000000
0.00000000000000 0.00000000000000 13.76121084648205
PRIMCOORD
 96 1
Ni 2.4734996919282244 4.058783258746877 8.73929053841124 -2.0532757855140638 0.05391603329216521 0.1113076838377567
Ni 9.211476678351117 0.33608508057799097 1.442450463319298 0.07847855312287774 0.2238872924094015 -0.9025569684140068
Ni 6.972376232717738 3.162885457575417 4.657440626197248 -1.703583901202311 0.06408063252999287 -0.7982421709543156
Ni 2.552977302394745 3.4429704615014978 6.278593953329373 -2.385840009006594 -0.3690844299057515 -0.7978675612237163
Ni 0.7360916724249558 2.088090165058105 4.516250103858251 0.07305969610015159 -0.014184004809865893 -0.3964895613915817
Ni 3.5390149180158126 4.270024649300682 0.7627152145753164 -1.0338166698936584 1.1179891880775197 0.6269105411544429
Ni 1.044143806640007 6.503746981461108 8.349242858785514 1.2428396435967177 2.904639261773391 0.08074472344923513
Ni 5.6593361547264935 1.3418205069085536 3.934908005239673 -0.8831076014401436 -0.07510320889274164 1.5554688187282177
Ni 9.103472500966884 6.17651886398018 3.3384423130524925 -0.04422683102885931 -0.19265070299262305 -0.47982981348213494
Ni 5.0949351135477094 6.7460629612248795 1.2657728541254816 3.5652412816430084 0.20374835556768137 0.5376053297297064
Ni 7.739236919723516 6.93584831166457 1.2865462875295663 2.855224201675373 0.13250642940255888 -3.004646432996664
Ni 2.933554048976234 6.631806256813529 9.772125263084 0.30633999968867887 -1.8132856740055288 -0.036796600003059204
Ni 5.543067358910927 8.033998908144834 4.162986087744547 2.3268293348003413 -0.36060673145204347 0.3804559049674867
Ni 4.9784312603251095 1.1575072929046268 11.586251319095204 -1.2738204082489482 -1.4985679917761159 0.10671029427506137
Ni 9.384516539113665 7.17775059039196 12.951474141448116 -0.9027300036567615 -0.9008420426054292 0.38992810612398004
Ni 6.2406613292117665 3.343616396696137 11.690726814685032 1.2620398706742522 -0.5516926610607079 0.4778886305953641
Ni 5.801846759463398 5.492990728916288 5.160178587673846 1.246891187958272 0.8725879328557424 -0.9649375875337574
Ni 6.082834383832491 6.6890474365745805 7.357197175840644 0.17972113941514853 -0.08926973020111077 -0.10157220171754765
Ni 0.6979700621520935 7.221452463507822 10.592471852716047 -0.4377668228738138 0.39721769780685784 0.2114423817778294
Ni 4.258252974356392 5.340579506195089 12.767747630732147 0.8121664943448915 -1.0483626860286333 -1.7606091695474195
Ni 4.666115184746451 9.164248944129735 2.343520467675147 -0.3642471564181082 -0.42012648408423126 -0.7972270994262399
Ni 4.282501496466075 2.8526190825861 12.906116523957103 1.3298236630874452 -0.7695278337387587 0.5386569109226723
Ni 8.889664283528262 4.287042805569983 5.030314071435401 0.48293544899065216 0.567468692948042 0.3547536151053761
Ni 4.313096568565691 5.448132373357816 3.1326298083715582 2.0937279799918396 -0.3306382101144112 0.2720222002434154
P 1.4935829711863364 3.5229463936709315 0.547048163161866 -0.3776783422223496 -0.01972241812959184 -0.9475224773811035
P 2.8296962842520914 0.9453538796115288 10.47371238861554 -0.036640534041169154 -0.17580354952829721 1.1480957776549128
P 3.603354831469308 7.508739626385442 4.0091494769070914 -1.3073205968889228 0.5370371159310622 -1.0736641409078993
P 8.474139201668876 0.43874405252625764 5.412793842784243 0.5827019649580287 0.18462243337150785 -1.0938850959404642
P 1.1681130831100255 1.6796732191874442 2.4255790084709066 -0.27428657079755986 0.9454167438920106 0.20142253564798215
P 8.04601504279244 0.8397378854827676 13.01511922520642 0.43933211047840465 -0.5728762371168585 -0.5426367215060267
P 4.196216623491835 3.2970844323995783 4.358368625160544 0.47331463807143653 -0.38102077633202125 0.960861617692171
P 0.6575392479125237 7.7261677278923955 1.9348534207234014 -0.33666847546889117 0.17136993923697583 -0.3559278379191354
Ni 3.196536275966482 6.760138198758107 0.44217401020970576 -3.3631919110443045 1.0683658686234374 -0.28708732210665394
Ni 7.635444971073342 7.5058155122419326 5.281882850969679 0.7700448825844932 -0.40209379495223657 0.024545807660164176
Ni 8.214250330155203 4.909042313768511 13.732299118891003 -0.514866493371294 0.3098166453833696 0.3111561901303996
Ni 3.719830477803065 1.7498143494465521 0.9113880842950374 -0.6054765396503831 1.270718886505489 1.821422701290366
Ni 1.4668334382658055 5.301447149071978 12.033794040481578 0.9725426535745251 -0.5430028465961939 0.9666586839899222
Ni 8.414378206504415 2.243500720293064 10.603370994565424 -0.027110740173862984 1.119347244767311 0.2050007399175437
Ni 0.6596660473313724 9.03383909470697 6.55962482826136 0.6824913637435407 -0.8157953493467306 1.168658946518245
Ni 0.9650234834321796 1.292082359580044 8.882036200555177 0.033290129511697505 1.4848812383176426 -0.8580737983999674
Ni 2.9681356946991566 9.026777970199653 5.441100395968971 -1.436952275846848 -0.35271858695321834 -0.8462613791460715
Ni 4.9246125164104795 7.38678244131964 12.413643989560518 1.1454935641453756 1.6302005032141538 0.6272193306441133
Ni 3.0748047460114325 5.886063127255734 5.278139796820062 0.3323649629975308 -0.48574437919435703 1.4207319573332435
Ni 6.799129521436997 4.359891797158128 9.401177408124274 2.182794850153525 -0.9943011282975392 -0.3017158706531062
Ni 8.108305255656594 6.372378097817642 8.889398198543498 -0.3392704318681125 0.6111157402140314 0.8759771610429494
Ni 7.041530121867301 9.353470156792543 6.966255337838558 -0.944325824820677 -0.3872371895553783 -1.063020288040808
Ni 0.7173510154769056 2.5104601186103364 12.238918297074717 -2.833731836129552 3.331282206819901 0.8867423699792534
Ni 5.093646998957161 9.360230407818857 8.674117581507213 1.885500762717198 0.8700762221774823 0.3091383883694224
Ni 0.6868104766957215 8.330707171896398 4.161803278872349 0.1856292773694674 1.7705153729175378 -0.8833076332660917
Ni 4.681412720796259 4.224376500854573 8.732768165480845 0.6908253375305328 2.0785291607642136 -0.32221347638582576
Ni 8.081047998736869 2.0980942083014953 2.9246425525607407 0.48194351739102803 -0.819385380690834 -0.22790849775365268
Ni 2.2870145474832992 6.313754780503228 2.8238828444613127 -1.5726013646434462 0.6592611895710065 -0.1491612643504205
Ni 0.4418242447880384 4.73674523441219 7.4040130894848994 1.4703041118344162 0.9444669783842315 -4.390348652419284
Ni 3.809124085587348 7.989620069696712 7.398384874930864 0.5923088919201734 -2.042863331931488 -1.2427529974201823
Ni 5.904416409596991 9.391116951103196 13.717808299862137 1.2763056365646472 0.24132811359366826 0.29688116826862415
Ni 4.050264778315945 8.420442687605906 10.486882185016873 -0.3056578860199897 0.5009192871625824 1.07940412871547
P 1.4551933954694547 4.7084349203089495 4.277631106992319 -1.206727985475825 0.36460942485353337 1.1148280167407187
P 5.874413682163103 3.5990203728835906 0.297503698016969 0.925220985670426 0.5809890960319801 0.715707188373877
P 9.142839915497028 3.316782243109073 8.36954147622739 -2.4727386678723673 -4.6403550105132405 3.760855952359962
P 5.0028772306567015 -0.023177600563234174 5.8373131612663975 1.2221492051269016 1.274527975838934 1.5182302460917336
P 6.119982856440231 7.736359817061413 10.416892431727895 0.31520979137448296 0.3102478193835173 -0.515214363629016
P 6.567597975507971 0.8024229922308478 2.124276782756259 0.8038728868775317 -0.8299001641792287 -1.30677552301873
P 9.629925874354011 8.600647098134868 8.861353029195394 -1.0361967400900607 -0.174105593000584 0.28066624907165855
P 8.135769363094509 5.88439892081393 6.805923620729924 -1.1086126319586262 0.6007660215485912 -1.379969944924533
Ni 0.7578147377534602 6.592767922653231 5.519277668859775 -0.6987865013591384 -1.261791759219188 1.7399804375534742
Ni 7.863535276563383 8.507724203985973 2.817126354353512 -0.5917116246558067 0.9642539312031715 2.5339530345981585
Ni 7.80370846532495 5.5617967331034395 11.551725146920344 -0.3247529549782278 0.4238944357670958 -1.7550633000285258
Ni 4.79376075906249 3.216487948675574 2.324942470452765 2.5768696314560264 -0.7289221444022543 0.4871291753570256
Ni 7.021051920566451 4.431396260378037 2.4441560654636603 -0.45280237705069754 -1.4410200181583184 -0.5624774103810377
Ni 9.280254475649423 3.9597394697188024 2.048342897758192 1.1932883150311513 -0.6249639589510333 0.6262212283969022
Ni 0.8560292442495179 0.4828050933600689 10.977565462431112 -0.7334575703787627 -0.4020143478645528 -3.524322946162092
Ni 2.3185028377296466 1.370300062344859 12.703592942515396 5.140600668647566 -1.3208579692537252 0.6773851528652269
Ni 2.3913330247252294 9.402390304344573 1.740490092224306 -2.598872618089679 -1.835901868743148 0.35645722806004415
Ni 7.21544439618402 3.6733173180990697 6.791845562507811 1.06827536579216 1.790688248320987 1.613681679623524
Ni 0.6452485662135016 -0.046953187169964224 12.885171968760698 -1.1559211872366029 -1.7629203341790993 4.326724904921051
Ni 2.5613735529740187 3.761275799811396 2.7825306051861682 -1.4131739424803276 -1.2074646065315335 0.018725087213329043
Ni 5.695431570150719 2.145726241262975 7.42808108750598 0.014456798855278325 -1.2070108068235663 0.9335243633297986
Ni 7.821948920110831 0.7074156089963696 8.991176175330201 0.3570238991967916 -1.024141094477107 -0.19414811347375596
Ni 2.4271369689647315 8.849732731221234 8.875100126588402 -1.111445730532047 0.0015066664525135343 0.22451515580138753
Ni 4.632182297466945 3.9868556921943075 6.367422147447726 1.76277815217428 0.1272634358360647 0.24595918460777638
Ni 3.8947884070070167 2.254407383979467 9.366168898150177 1.193615873573899 -0.2955115416146072 0.15352082687069687
Ni 0.8943389004480078 5.735739214309002 0.8756781630183493 0.6068690491225355 0.15802411405768915 0.049522017989527614
Ni 3.4831088643267165 1.1574508791269387 7.320620362846813 -0.9057970726178595 0.05356893436539161 -0.9259866601918569
Ni 3.0539974643407346 1.2796243170072132 3.6112856683826537 0.2498127540259117 1.15183236187921 0.5734971585303091
Ni 3.177647062737186 3.719134707878243 11.41380944437615 -1.67235811041881 0.7178879980752798 -3.0485081673766206
Ni 7.995740964575892 2.6670083516953427 0.2760185107843836 -0.4200933168534507 -0.44472731335204696 0.640620948762
Ni 0.29697904988446794 1.9652303595492897 6.812762851045002 -0.6829554478641529 0.706747665187744 -0.9404316319725933
Ni 7.951051850350484 8.66542891951359 11.442075567686869 -0.49142086075384395 -0.32566338260763916 -0.03012304463762554
P 3.8247318974144413 9.265342433747152 0.23300112483780577 0.2229807214347321 -2.37319995164508 -2.101651091493658
P 2.175324669956765 7.336414340140276 12.328311569199581 0.1481562201246739 0.7167639117731655 -0.8915613886344517
P 6.226313425086377 1.7442011785665674 10.061371864506661 0.4782208171238022 0.8022340657225281 -1.7051715574044053
P 7.080925743286291 6.841167188111055 13.139726917593942 -1.1645035295889752 0.6745086026483803 -1.5331439299787726
P 0.016746429906769052 4.250345643183749 11.012450802323922 -0.7853200635760088 -0.6982851362426878 -0.4565219919941299
P 5.532066672261711 5.159604107371054 10.902374358839273 -1.0888449624133956 1.1074911167596735 -0.4985692988731672
P 3.0367630552569618 5.8334384749688395 7.539685404136353 0.4633310444961633 -0.4863200491921689 0.42416748692282435
P 6.939270747510993 6.385466094241327 2.938610603916361 -3.320551193555642 0.7164677206889855 5.032217871766089
