# total energy = -340896.8959452394 ev
CRYSTAL
PRIMVEC
9.02907173943452 0.00000000000000 0.00000000000000

0.00000000000000 9.02907173943452 0.00000000000000

0.00000000000000 0.00000000000000 13.21495916322723

PRIMCOORD
 96 1
Ni 6.396086135331295 2.0616982616045836 11.513136527940109 -1.209003668883879 0.21432433131131476 1.046242811472153
Ni 4.557595558429903 0.3631393370134387 5.803137959199935 0.3409066819199549 -0.43618636576057135 0.3768157371117381
Ni 2.6654813239316404 1.4880271538297356 4.611294157322962 -0.26157452254753016 0.5031029250774626 1.90691136718249
Ni 3.4893570411806265 4.251482936185968 4.959957183471766 0.06465013188021768 -0.20191181657957485 -0.9746838682872438
Ni 5.155590985714092 4.525397888285022 2.7848808669010405 -0.3384649052476816 -0.6750076537719858 0.11331494407577258
Ni 7.229749366443727 5.987484518747894 2.6451460483566827 0.4073108203768018 0.10517920234251564 0.06921846797719047
Ni 5.288363486970531 4.550796667342103 11.7270740645957 -0.3422382562471848 -0.19687296860408676 -0.31928627543670174
Ni 5.529132716382582 7.880790590727684 12.397798665468505 -0.7247322746906227 0.31015808788318844 0.013435556679615572
Ni 1.858869192021132 6.506421393090812 0.43559583263279783 -0.15457549338745635 0.19369302821420836 -0.9426054996954606
Ni 2.598070273650744 1.5878074266202773 0.23897244411793167 0.3473161849907244 0.21616806938827285 0.8847762473918183
Ni 0.47146382047647045 8.860815076200327 4.715004785080992 1.4903227210481882 0.8341609963381118 -0.23994357454131582
Ni 8.575875627397147 2.3831873931745795 1.3676163548154034 0.4324968327241262 0.5026882061375472 0.3858091988596001
Ni 6.991147114270816 0.7356643941939002 4.810945896529525 -0.8803873742955032 -0.45465125733397826 -0.4271666787604643
Ni 1.011779731097865 7.2939370380814035 2.651634339373539 -0.10636962310619101 0.293545676137488 -0.7462423808482568
Ni 7.574831462704854 3.7776101593453206 3.9773855968359517 0.6666150588329165 0.322090063434084 -0.7571348593910444
Ni 7.625863776686587 4.04207167323863 12.719054846985294 -0.07511863551170934 -0.1205312593185537 -0.5104025440626694
Ni 8.028831252448226 8.763860902892494 6.705891647953597 -0.887037532622169 0.4621233973413073 1.1320477230531147
Ni 6.954624518719486 0.5523679156997415 0.4146709586673576 -0.835432921072 0.26958839399094214 0.02574728416743308
Ni 1.8773607311284553 6.62598436226033 9.343267277093599 -0.7424669729662245 -0.3997476633175631 -0.6138539650808009
Ni 0.16211156726002163 4.94523167022463 1.2927391650384892 -0.21732352314895476 -0.45590569856636964 0.3874264227480489
Ni 6.324964136528372 1.9706400722015784 6.981159155012748 0.9482845523581088 0.2043767331802996 0.4248382877376038
Ni 3.325912782918534 4.214472770755832 0.4465824072352348 0.379796674116933 0.021875459916852646 -0.175447194630143
Ni 5.886295710751912 5.689976601957707 4.852136522216835 0.22790901197428493 0.013439927554989756 -0.4304204098110716
Ni 5.6587450424986105 2.809115798599266 9.290486031898443 -0.9121806075466999 0.11529263662743369 -0.37446780570485183
P 0.20884243142206368 5.620696533808054 12.193376867614285 1.0785566931135102 -0.08663769189490239 1.2597199642918242
P 4.0136120388312655 6.047329206835461 12.757391383067219 -0.4956001889425142 1.0342977232951347 -1.0410977769361038
P 2.3815892474607137 8.600597226066997 1.3693734121934726 0.2865363346991904 -1.0610731916167662 -0.3432528135546282
P 6.308386760648956 7.71524255872926 5.775716668052992 -1.3324976103751824 0.5079643669348219 0.46201746789106235
P 4.58098085446895 1.0176215405717115 12.506148430332662 0.8116077936279442 0.45098435000535236 0.2627294620875798
P 3.782205956906662 6.148960439351101 8.236236255634994 0.948572773022489 -0.05567389652353637 0.0994456422928481
P 4.666901502000829 1.2201616798566113 3.7116067413626825 0.5013442905151431 -0.6992937800128601 0.14390078728242958
P 0.13258379365519782 5.555524693340935 3.7017876257478317 0.10711807123644132 -1.0709997067018586 -0.42235794451791137
Ni 1.6039243198363766 1.090531295596924 2.592841538154137 -1.6023392580275115 0.7204339044255851 -0.39031994224576
Ni 1.9612859537859597 6.371265216871318 4.669122653670947 -0.0329833969045561 0.31059080454523286 1.1889017559276813
Ni 5.86737980526859 5.600904808357247 9.166160227338732 -0.0646529600936951 -0.00889858804121048 0.2810565425315418
Ni 8.248454395635008 2.123971770014353 10.10665543634074 1.1502760731356836 1.3167408617615581 -0.753134994203032
Ni 2.370727274049528 5.211065603036061 6.877566808095687 -0.8218916920524556 -0.1679719692990204 0.8757259642640918
Ni 0.5324434628930373 -0.10827572647515112 8.799603386637735 0.35578565591431627 -0.7351902367991533 1.5083672372547248
Ni 1.1962436685796096 1.1085894392564193 11.3587989915255 0.4913771520001022 0.34758717926392396 -0.766391602102622
Ni 3.926914891122028 6.899592325917173 1.6347035227968036 0.5588732379695471 0.466963499042428 0.22790772642270424
Ni 5.57897319288279 7.869603570730626 7.961854500522341 -0.5211458986221024 -0.2805958008450393 -0.4412851204397174
Ni 5.570612272368443 2.8417920095511233 4.933897476356749 -1.146006499226052 0.0742233773909496 -0.6683711222920748
Ni 0.8129785304576634 7.394891090209812 6.817571334508563 0.23540917700607197 -0.8885706814372437 0.06516126718868133
Ni 4.98749675545968 4.681763354232594 6.870589141385658 0.17107631925595695 -0.06531759026088751 1.0712426759506002
Ni 8.079204444186388 7.121292155624799 9.186669764000003 0.3771515231846021 0.39599668091556317 0.2199866718034147
Ni 4.628166783851211 0.3561959807763628 10.322548669954651 -0.28159570286446345 -0.32174964937552974 0.27180622757786743
Ni 8.01472784225016 7.126736685938136 4.713789472012708 0.5708224399116233 -0.5560689357515326 0.02961628020453609
Ni 7.192838520803718 6.130188999017055 7.135258323931052 0.22754211555316944 -0.126900138959375 -1.1223541499144347
Ni 2.3620322778774803 5.125117868288694 2.6365557894178604 -0.758375673776681 -0.45418125967609524 -0.8923859414182761
Ni 2.420910855279265 5.220212052799596 11.392537021324536 -0.7401452668115833 -0.2508939029052324 0.5256389013964495
Ni 1.1321553167320608 3.3264003527973403 3.7725665198212237 -0.9197507065844742 0.2509620371390065 -0.05658715236642513
Ni 3.5357032668827215 2.78967620694982 2.7107187796130425 -0.30801635894983725 0.006335198189408445 -0.30437721953535324
Ni 1.202175768771754 3.244651136450805 8.131164043845038 -0.6143329615997484 0.4465270855649471 -0.2645361762790154
Ni 3.7603736612223324 2.65154043702651 6.920714033648503 -0.44089354142825365 -0.45352357148743827 0.14429159496294505
Ni 4.105022362035631 6.877778088376504 6.078273641810373 0.26753408256507477 0.0794342321679277 -0.36352827597421267
Ni 0.5772267562614027 7.67515347980518 11.546822189122532 0.6305730776076947 -0.6585819041157949 -0.4920628652132171
P 0.21659118086635315 5.720982434621061 8.048399056917656 0.8317073925912967 -1.1096007069035085 -0.32777322986179036
P 8.634311780279274 1.5267799301230125 7.897497985241448 -1.270870581592005 1.2682673396412028 0.27892149846640996
P 1.8107442391685769 3.099409486997484 10.326274967898788 -0.3184264985395677 0.8286837752736245 -0.09076945467508885
P 3.939176370666826 6.0238626491499465 3.7025144660301263 0.6182425810667997 1.6586515594659952 1.031196972882624
P 6.958001391583812 4.119757807261779 10.39681639738306 0.6728810943472863 -0.011555308937767197 0.4287823599870164
P 6.236109040651826 7.719829327218772 10.090586397205337 -1.4656720123790434 -0.30879463187675854 0.48163627056325437
P 2.467582127567231 8.29527013307225 5.790834945924721 -0.08087687815172523 1.2401664676399287 -0.8611766056950072
P 6.761303061772758 3.919890273238485 1.5942000094757385 1.5394256492224263 -0.2098161590283161 -0.5353818397158263
Ni 5.093019517933941 2.62757728039036 0.8229737129731941 0.2265905502731775 0.48722250640178016 -1.4246004391497142
Ni 1.5297956401141484 0.9632394409411412 6.933188599288482 0.5119464915110216 0.8412379577895511 -1.1858331443046868
Ni 6.8137980853909115 0.5895433131443616 9.017782781238939 0.2980199098587577 0.08218145589576169 -0.6430814944873505
Ni 2.762354235593003 1.659588547666771 9.02618704129807 0.5281025324455937 -1.1834299341798329 0.8506659359716705
Ni 6.461095452505478 1.8465806252608454 2.5981271568032716 0.5904659251741637 0.08163535358430457 0.5282426575678838
Ni 4.036103456759167 6.7793070310012755 10.441020024339954 0.8122960779442204 0.7760805472556117 0.4762184419817927
Ni 8.191634446610406 7.1091841703011065 0.4313413339866207 0.06059704485676661 0.04991719654541726 0.284618034630555
Ni 7.820241635037396 3.989269661178266 8.250402869335868 -0.5068523648175658 -0.7442531183323698 -0.3505778864611317
Ni 2.9483079699266566 8.512067176776322 12.352061902114919 0.39154507290211277 -1.0697115840180544 -0.4101524035906549
Ni 0.23796479970173184 4.760731616455566 10.106814348004942 -0.30299139493142013 -0.3307130292164046 0.6741599610597099
Ni 8.684107111420333 2.2274810494705806 5.7578896686323375 0.22658746494938398 0.5942320770848153 0.270699881887566
Ni 3.613949203359314 2.7395738873665496 11.467941508896306 0.5647741768350144 0.05385586947819112 -0.07083774874816832
Ni 1.0920842959516406 3.2755215330367125 12.440826707273168 -0.9307182613395713 0.9435928033093941 0.2761501063688599
Ni 3.147173276976849 8.383529310208033 7.980685532730463 -0.036245869705911773 -0.13179551937846334 0.32009720137377135
Ni 5.672776220122039 8.017499767301892 3.52779921740296 -0.30468703746628817 -0.20564814369355552 0.3927228952602978
Ni 3.2308637437667804 8.456439065233246 3.592209004207648 -0.15211494766210576 -1.152728134220602 -0.031084894330262593
Ni 3.5644157153013185 4.267437306109132 9.38486782264198 -0.016968252423222387 -0.14225708103141954 -0.5265254177664609
Ni 7.302650092397109 6.417069698263629 11.444669979162315 -0.13283578771751964 -1.5359590308300644 -0.02308053596854735
Ni 0.4698295584752861 9.146810926407582 0.32379064197939833 0.43187102621466916 -0.608949328690332 0.8581622443487157
Ni 4.60138655680418 0.3696556181529676 1.5781697953492042 -0.21453490466022407 -0.45899076524959664 -0.31589884702170756
Ni 5.9456167126733535 5.799472156037058 0.6213491215718308 -0.0768466739464096 -0.47972696935568343 -0.9166473850688021
Ni 7.646197246447179 8.982418615603367 11.137964146899165 0.6312366793336225 -0.1233245057929747 0.8139025031993918
Ni 0.07289621141746785 4.746267043384311 5.924306297340783 0.13547759621574088 0.2517325967564439 -0.044294193931685
Ni 8.07163808199306 8.606439035540845 2.646784824893782 -0.4242793299103403 0.6538384758935385 -0.42656118396598147
P 8.577193871884292 1.5882498511399348 3.578981413977068 0.0978009076005735 -0.0018239405826162133 -0.4068590775513638
P 1.7071988434250305 3.245861032075991 1.4988800981690922 -0.4179829553786672 -0.3891110095393234 0.17790928301739037
P 4.7230894159973476 1.0083035384434118 8.165694826150723 0.0634298863198714 0.33161985730139015 -0.7240509323528821
P 8.401081825845063 1.6327270589732716 12.474485281240101 -0.014934252712329121 1.207305712356166 -0.8822151715328614
P 6.304450085331186 7.811889743594879 1.4292370613318826 0.08976441044934218 -0.8371020812443066 0.44504098793772384
P 1.804225249307499 3.1548209008166457 5.897954951205665 0.31402888369250437 -0.16348050918657006 0.6097288871688337
P 6.955292670034887 4.070964703093823 6.120971219586066 0.026192599234967796 -0.07887681700256094 0.22068395498075544
P 2.2323657773304744 8.609012321012322 10.175426264839194 0.696222340176388 -0.18048501416436658 0.20746000009131368
