# total energy = -381171.32501624856 ev
CRYSTAL
PRIMVEC
9.27989958185103 0.00000000000000 0.00000000000000

0.00000000000000 9.27989958185103 0.00000000000000

0.00000000000000 0.00000000000000 13.58207106466073

PRIMCOORD
 96 1
Ni 2.7034482231576042 9.182924757831024 1.4461786427850145 -0.3551058562384723 0.4336360885348919 0.9673950479353146
Ni 3.388276982041598 5.138401108011611 2.194401180556554 0.147646627478107 0.0474669352327118 0.8185171191532679
Ni 8.830279288958975 7.015669139905572 6.159523224489019 -0.485566458855596 -1.7395595479659718 -0.1719764624727232
Ni 2.200821015175793 0.2564212607911789 8.318787920774364 -0.24058506478005665 1.8112321339106099 1.1827817590728726
Ni 0.5748174038042756 8.327290164888481 9.721625719954735 2.4919795183798503 1.0395785120780998 -1.550448739805807
Ni 0.5835878370200059 5.204473993945376 7.786587528397366 -0.5612988166919043 -0.059346203168801015 0.8897767859302032
Ni 4.755855802274591 1.0193505836228072 8.468340000527562 1.430312401932827 -0.06319488749092987 0.09065555480504386
Ni 8.74207384221734 2.8384429242360416 12.107234594081831 1.0476198943253376 -1.43569294951845 1.29505437792706
Ni 2.911039579665795 5.390174067038153 9.177392081624042 0.4716704175997941 -0.6557986849437027 -1.502281436071961
Ni 5.714191045305474 5.674055479060595 1.526665996938009 0.44752750180500345 -1.1912018648157676 -1.068822753655198
Ni 1.0389404519101917 8.550063437321901 4.925945228075545 -1.9256279697553869 -0.7034736224221626 -0.2265368142171066
Ni 3.8881851794084388 0.4285374166887521 13.025885273993731 -0.5798475262283691 -0.022633164018483604 -0.5844852821106966
Ni 3.1665152186765453 8.133108263460949 4.367002948704821 0.989385950384109 0.730735029241277 -1.6406137281276778
Ni 5.591018936457319 6.422971225340458 11.68242862506639 -2.3041720024121415 0.6146507499504834 -1.0858835657922266
Ni 8.782070209966571 2.5855563772443255 7.786642279805654 -1.8277959518065618 -0.13080461622010375 -1.6784516249110577
Ni 5.854271131424881 8.301584842692339 5.046472565506407 -1.2823487574349333 0.11906881584041429 -0.6795981013561456
Ni 9.19922954162114 5.412742783132382 4.244370002029806 -1.1479664511659005 -2.014915954788943 0.33800596333339206
Ni 6.141632505838499 1.747451514853591 12.49933541255003 0.15685529056056854 0.5031983130047463 0.2928422223125602
Ni 7.409610162486225 4.937992393878805 7.263338527280441 0.7523544072832655 -0.004322281524437717 1.6114180804003282
Ni 9.033806049394274 2.9271309257625857 1.3030491816209675 -1.8435437015591218 -1.7399192452982357 -0.2717949147239577
Ni 0.8371286169412635 6.8056650094728335 0.47852452446555227 0.2454156533994806 0.48996561636455616 0.8569952206238081
Ni 1.7975258536876635 7.309545003915469 7.752415225706004 0.20716226634523677 -0.5972071005527393 -0.7354931127515527
Ni 6.557242094241531 3.872400070002072 3.289455330031955 -0.6333979486509994 1.7224151749762011 0.31889186821176047
Ni 5.149054432878461 0.6065648687014669 2.9973324390772396 -1.371195798276329 1.0917780768997907 1.0177359622817117
P 1.3739541113336242 3.468214038141802 12.903986367385762 1.0651010818292366 0.0713123743917417 0.31258366660554554
Ni 6.971431857988963 6.442932289616234 3.434783199437253 1.1922567884428434 0.3652807398889451 0.3268322061047597
P 3.1890746548710656 4.890210190273052 4.6823515726532206 -2.3726695330629073 -1.1955398300694895 0.5011887387738853
Ni 7.981799498692686 0.8269847585684829 0.20929793006482256 0.2707739296586111 -0.9609202388442483 0.13632837425181038
P 7.8810290677439845 9.194877268657244 9.398018913254585 -0.04106977345711636 -0.8467516885189289 -0.20029742090460342
P 0.762206418644235 5.888764518646202 9.959923336612677 -0.41834316693156337 0.5063533136939602 -0.01702301692055778
P 6.1459662190029745 2.278883531534617 7.309639658892508 -0.3182514064142842 1.3994658488656155 0.045832484953082356
Ni 2.628856389290245 2.5786799715593647 1.8914662784499527 -0.2164434345368466 0.20378563656352003 -0.690975489955152
Ni 7.201359933098638 6.487522207721815 12.995651360739208 1.6611391017745392 -0.6426495491562546 1.3942907324225795
Ni 6.540863071253736 1.7147677080756811 5.139917443624193 -0.7866804342586451 -0.8212365749669599 -0.24208787457782824
Ni 7.025617192394476 3.9008151229134747 11.349735868560376 -2.4354831259550185 2.204478248664229 1.043387344301229
Ni 5.029000370332797 7.587023285138151 2.4700355457068994 -1.058281487804242 -0.5393351679366196 1.965093117729545
Ni 4.263399364374719 3.1490690072221246 4.0543705514014805 -0.15314827402262657 -0.31712500611932476 -0.5369023901254109
Ni 6.211417351656182 8.847150146631387 11.71000013509417 1.7406208993509507 -1.1692796108213799 1.7515159489968999
Ni 3.6008609245936603 7.217581197791366 0.44840011402760466 0.3427162243248678 -0.4640437542924718 -0.7631568972154082
Ni 1.7322417592292314 6.291289448458418 5.341502849040201 -0.7736097171176161 -0.06802753299288285 -0.1293092626214999
Ni 1.1668267498109235 4.564077394871897 1.3856291531585219 1.9583995077594527 1.2180719497337344 0.0475756928964342
Ni 7.3584129557872675 9.000899525023328 3.238916068222422 -0.048663526643974254 0.7651240482441081 1.417433746197946
Ni 9.388752933394354 0.31444476171666447 2.2947855676773274 0.5160551143627565 0.6784251640939671 -0.7013324077094438
Ni 8.277197266254989 5.33506074266166 1.45079632088061 -0.7962570222034867 0.37369133255014353 0.710764242546305
Ni 2.8114662557796577 6.038328662269023 11.253017969814943 -0.07495845578476122 0.10938089912868905 1.1841830102957733
Ni 0.11569158169208589 9.022206174757025 7.192765817977395 0.6650171182181773 0.6389751856284608 1.1639828811988149
Ni 2.175588967864851 0.7554580755752696 6.128339049504213 0.10381420367418895 1.2579261056161948 -0.012593777504610567
Ni 8.13680166354545 3.486903756157336 5.5111431276952 -0.06800439306443126 0.4740420031557642 -0.4283833247763848
Ni 3.8851784919024643 6.716216056170087 5.974359529599469 1.023412958061831 -0.41819481427915717 1.772873331626753
Ni 3.869337703097839 2.543202914968805 6.687581069635563 0.30526039347125494 -0.37492006275092205 0.08816724116555139
Ni 4.576401101686509 4.483295867898102 11.090250384885021 -0.44110360055653064 -1.5240967321748398 -0.7869534854143737
Ni 8.646026880220926 3.824014672915183 9.77758351520482 -2.017729255868022 1.9355501139651052 -1.618686331926967
Ni 9.30235706709613 5.207749798542935 12.289682990316296 0.2807914617956132 0.37908422143094067 -0.17369190250193314
Ni 1.5731471586044474 7.825136231791868 11.954178424198211 -0.6695844258738856 0.637541795616044 0.8223125816399579
Ni 3.295357346247387 7.976862592047073 9.606952143260814 -0.2589926207529669 0.5498455805496401 0.30342411159346455
Ni 9.054416706649736 0.45680213522485613 11.61863302652141 -0.5683230705285374 -0.7775365629758481 0.3061440816277889
P 3.8423146351429054 7.95856262981935 11.655576307266116 1.017384492479564 0.1708310360143703 0.9458119224479004
Ni 7.107039032448248 0.3030453329131481 7.287352123759486 -1.654364759165183 1.5060709850213803 1.9270603313265393
P 2.278577294844194 7.088321474733584 2.318703581189362 -0.1406228878621062 0.5625455446148118 0.02784993233273268
Ni 6.542125137614269 2.1693899948587054 1.539378531550462 -0.023540506324101394 0.37527950297286977 -0.07432493596582038
P 4.396575205110035 1.734886530646524 1.1355061603003829 1.017280362801532 -0.3502367010716291 -0.34905116540396014
P 3.9449039264347268 1.1906760920651056 4.949469773839883 0.47742300381285524 -1.2610242849255444 -0.6801485745429771
P 7.986096092258323 2.4484551389317635 3.471183606048937 1.9428682448930732 -1.8184103968266039 -0.5671524472592039
Ni 1.3901568162269322 3.8423424748420345 10.501697801520274 2.690455569804999 -0.16682628573035138 1.3536161375213525
Ni 0.2403141388648818 1.7487321410135432 9.867659789727949 2.8232962426185244 -0.8912597982336328 -1.3362779033532213
Ni 6.436389960320826 7.344632304718217 7.153364291799561 -1.6009981706185845 -1.3823482153487225 -0.22701143986068
Ni 5.997627022141846 3.3020667137375708 9.354746740907798 0.02699529764192125 -1.5535381773644084 -0.23325664943944344
Ni 0.9480252744532965 3.0442803796990807 3.4732752954435258 -1.0468629615546552 0.7167040050695077 0.6734773331703885
Ni 4.707850881075804 0.8517871465228611 10.771899713380504 -0.907191896082857 0.1666321674416743 -0.9784523341907405
Ni 0.011739073132895 7.321330476546913 3.1836783931898176 0.7685847530991989 0.8367040744749397 -1.5951933910113494
Ni 8.395664465950276 7.315344941234093 10.982408670357454 -1.7070384354098147 -1.4761968231697673 1.6554649342078973
Ni 2.809573156238859 4.710579171590485 6.930414701271655 1.7623426072987585 0.6338057256123794 0.6661311772179624
Ni 1.6700293115747429 2.6899552489795573 8.24280966989036 1.1659052950325082 0.7137963445044093 -0.7319493612643523
Ni 2.1285491562358825 0.6213208372300173 10.958626143381183 -0.03767848838738027 -0.8406648588949006 -1.0147249433695298
Ni 3.0204031977457695 4.948237403158422 13.31591740354383 -0.24912524104058384 -0.8757282782569369 -0.0965778338267498
Ni 4.1124617955948475 8.815403609724168 7.001177648518752 -0.1443730989331578 -0.47560214855403254 -1.0764388754395589
Ni 3.631326835340929 2.677575862766686 9.436157445081918 -0.5418926442511507 1.1455832956457046 0.2929376102398439
Ni 5.113336098895445 4.414077095962716 7.602211696993178 -0.7151621145036845 0.9446554402459538 -0.5189828295325127
Ni 9.189708364518886 1.4072875110912204 5.254617932027272 -0.1926033946944554 -0.3615706380272095 -0.5214325766245859
Ni 5.7850245197903645 7.982838847460183 9.651813962427893 0.5225674615599775 -0.2632593664491208 -1.2252286153831737
Ni 8.052076179194989 7.1078742234221295 8.697632402507116 0.9167831393157179 -0.916737373679447 -0.6073768419968895
Ni 7.466301069813384 7.697426251985623 1.4072114159135998 1.472833306014173 -0.3702488825274978 -0.7752282265576456
Ni 5.624667852805048 8.87153772306874 0.8452160495383528 0.28218191438523654 1.8997269336189089 -1.4322749249758364
Ni 3.2066415050217136 2.345262654158805 11.704078631089349 -0.09388845992004476 2.8551074735918505 1.952401124084173
Ni 5.025576087339882 5.617049055143305 4.354194831125357 1.2148200184553402 0.5188769000822676 -1.6197471690913134
Ni 7.420588283842917 1.7299032245023622 10.336499810856354 -2.62950602670482 -0.42183292525237676 0.7816564986814926
Ni 6.25894899796977 5.5237211037618605 9.466513853012609 0.06955348271910602 1.2189618085378555 0.05077928743539643
Ni 2.0080774982032796 0.9646177351344161 3.5726685892752927 0.9513868454325162 -0.002463116828511887 0.5958973806023803
P 7.249940208079433 4.106856736170129 0.02388738984299211 0.23548039656363962 -0.42344115027976104 -0.07874723340323213
Ni 1.16008954262161 3.7963605717799838 5.994922859366412 -1.290578087323261 -1.5804648265519232 -1.5084461701217764
P 4.377217334315396 6.842339173125958 8.153195534372779 0.7639467401065553 -0.91878268624425 -0.42335784653733544
Ni 1.1690539257412753 1.316428013032584 13.355726317318922 0.769005128466069 0.11723021996977875 0.5359297417994964
P 8.75361803745633 8.170246422099561 12.994823593685096 -0.4509483545610943 -0.7602955165072132 1.2329406393154507
P 7.869466312705575 8.807664173366195 5.571378956711501 0.6965529840429294 -0.027762257714932834 -2.491023325114168
P 6.871014063229235 5.257452941388615 5.30946213931218 0.9124536587024286 0.6371952109099027 -0.7827263347069036
Ni 5.14949058816482 3.7014921570467143 13.328792336401204 -0.5109653585446748 0.22465476670304535 0.7769742627144749
