# total energy = -340870.50661728036 ev
CRYSTAL
PRIMVEC
9.22194127580851 0.00000000000000 0.00000000000000

0.00000000000000 9.22194127580851 0.00000000000000

0.00000000000000 0.00000000000000 13.49724322525373

PRIMCOORD
 96 1
Ni 4.424447543824025 7.535460134046694 4.485106705448063 2.1257436136664873 -0.05056408610079679 -0.83002229157939
Ni 1.0929475651115903 8.113445289159666 4.272565863558391 0.9180874599494381 1.19603322476614 0.6626162220861685
Ni 4.76786340646865 7.456022333868901 1.5182911520166653 -0.667871814058153 3.193737957883119 0.7295896027829241
Ni 8.301803435042114 0.011297799976528142 4.163170587889821 -0.6398827850443948 -0.07474608266363901 0.2933962950438173
Ni 8.883827800333616 2.02588523111883 13.076763125146336 -0.24334977200938737 -0.5003767843955511 -0.5687586154040591
Ni 7.767908380074258 6.213946760088275 0.8811500116702966 -1.0069100753108013 -1.3220167654485169 -0.3441169613271364
Ni 7.907159689882089 3.393720414955709 11.08570363219693 -0.021927139090394492 -0.4323939885976747 0.22100637131718068
Ni 1.3980370407653986 4.3325693451739955 8.054007112530233 0.3082742405969142 0.33504122427811334 0.04551495371266354
Ni 6.802537147405154 8.778928220925398 0.3039173669467503 -1.5944094616574733 0.2898738837128556 0.3512972811256595
Ni 4.970580114561085 5.4921454343492675 5.748827097059813 0.544465032964017 0.8194344887612145 -0.3959069494152343
Ni 8.85246397883319 4.090880714217462 6.292158042106832 -0.665626469667402 0.22735545346366007 0.9619499656603433
Ni 1.6881039744538453 8.023734246655653 1.7176999498555854 -1.0759040859820115 -0.3705684706504457 0.08270930337477368
Ni 8.789782445537572 1.0613531950849922 1.9012755971111237 -1.7376211932926784 -0.32354222249957826 -1.557930135784517
Ni 1.5864966279993622 -0.07325909967638523 11.511690910587076 -1.9742691278018578 -0.1287402774919073 1.269431535152633
Ni 5.676639586933075 8.564139992002604 11.041082348247514 0.5414663553470094 -0.7888332189355899 0.890708296605537
Ni 8.322737241218523 3.6223415554488185 8.768808062820558 -0.018760825547270914 0.10783309502559492 -1.5174681711147284
Ni 0.6635767565513443 4.645368363542993 11.28007817241836 0.5883517070446382 0.450645735719011 0.17736832291225582
Ni 2.2994356683923214 3.9507072103049428 2.3315003574123105 0.9475525592880907 -0.5145800724791267 0.8392654074442127
Ni 9.716237086988858 5.237084988874763 1.6516985177830916 -0.7372460908869175 0.35286771093657293 1.847125505373109
Ni 9.03249471195031 2.34145083180189 4.564767676599189 1.855186685114689 -0.5306785207028861 0.4021251624108042
Ni 3.040676845858144 7.976849898373334 13.180422353483749 -0.5494660857230343 0.41916540572254257 1.1507450423523022
Ni 0.8594563175516248 8.27229322369211 9.353063215651298 0.2117753396372159 0.9215625629822323 -0.5319794989024967
Ni 5.57816770043453 2.6921612498145953 7.23596653222013 -0.9357776781403496 1.8842064693858067 -0.8576331113181229
Ni 8.684043669494088 7.895899699863853 12.723243703890752 1.3763385188195327 0.02397656542025548 -0.6320997986648662
P 1.0984346200344817 6.212176147407274 3.515829058551502 -0.5444092400254172 -0.46571240024414634 0.1735846875001075
P 4.088759667776681 5.005761819654919 8.21007555403115 0.5361151183374251 -0.2649856051116081 -0.7255213462508214
P 7.389615136390345 5.271824040798346 9.842392318316021 0.26353293182548165 1.4448661313772857 -0.3082001928258692
P 5.221988671381027 7.036645342821155 12.76203487671033 0.21100298024756567 0.8684214601828786 -1.0045207491430186
P 7.577051088168106 0.39249503289610177 11.970016769646305 0.05767190079017165 0.15770992525138 -0.3543890326771058
P 6.442798449107556 8.364152978460044 5.016574545532381 0.21207795847929928 -0.09931477314193864 0.28943551062385636
P 8.419669063562239 4.328244254823011 13.175900835788465 0.5751629762685062 0.3930558531196844 -1.3387834433838943
P 6.67698964199298 5.083539670444273 2.8392263102714455 -1.2603725102741583 1.2607450631222286 -0.8109616754035132
Ni 3.698459456849736 0.5144349149707376 11.35919873782414 0.6644789863265201 1.1018670857046766 0.22889605847790256
Ni 7.734801611715972 1.7770772616741077 6.556758585594331 -0.23241589870570298 0.3269103676408628 -0.8080689272367503
Ni 4.587906448879907 0.47034020385509856 0.0659350340969561 -0.05751094973227515 0.20690669869100495 -0.20854192030158278
Ni 6.818850761117077 1.7544373964040265 8.841733328231046 2.423657079854368 -1.618632595870896 0.43150181580070845
Ni 3.4614371280629213 7.116479686463963 11.17432648565741 -0.09622147892859557 -0.7949439598190179 -1.0294861608391046
Ni 5.900843417664731 3.782167015732232 9.516905753454731 -1.3576154884887328 -0.27725490939726444 -0.6674313840866248
Ni 6.500205032124362 3.5664473707637017 5.075732375153988 -0.3194539113628176 -0.2647529202755118 -0.9238513590164089
Ni 6.028428972048264 1.7841043807518273 11.269239625105966 -0.011699547825115333 -0.36043626731245026 -0.11951258824605225
Ni 8.379387625069484 4.568586482386701 3.939386355475797 -0.4186884660861241 -0.00613722324598943 -1.2862676328733653
Ni 2.986064510978542 4.741313438194694 12.381155800756876 0.5986448614405304 0.6023302807119175 2.2931260290106246
Ni 1.530159790143995 1.0960553592443876 2.7696476872668683 -0.6853645715262777 -1.140135899377888 1.1546757448652758
Ni 1.7612339669555743 2.4327664920480587 6.45442178360304 -0.033426912199877916 0.19993463824854601 0.1883127377389015
Ni 8.185708419202989 6.7378360090202705 4.794936258799966 0.018005178328168992 0.07684821660830636 0.2947744063382665
Ni 5.81175024521086 0.38508520326493667 7.002018798578344 0.7094270117921201 -1.293102910627644 -0.3618452318448349
Ni 8.787412406688524 7.9885433196207725 6.7539255295647544 0.7349611515074826 0.5568970880797829 -0.026532756183205917
Ni -0.48893624797612456 1.0333738259487695 10.266353536258169 0.2373732427109783 0.5076725467260159 0.46387611836635595
Ni 3.1099981767075127 4.41587113865043 6.102535568106857 -0.19040021639554952 -2.0847985387126933 1.2340176744297136
Ni 5.48738691276908 0.33135817472583534 3.110210281351591 -0.5145260793127396 -1.1225819496545246 -0.4312133380260122
Ni 1.1554538815273176 6.24761606685042 13.262957803659186 0.6806895346481115 0.39006103215741855 -0.6453548639025595
Ni 4.380163782916925 3.0613247718621 0.4150528228908658 -0.6063144621706461 0.07502016226063209 -0.4171239498124817
Ni 2.5938369143728 6.533763675593944 5.585361736645198 -1.2896807723199726 0.8170436199315347 0.19459240010002615
Ni 5.064699244885505 1.6714030392179522 4.9479946587431805 -0.22145400037756052 0.6427721907770478 0.7578951345958367
Ni 7.338036820115166 3.4738590826530635 1.3322698459954956 -0.49503300358513447 -0.23894752917663362 0.9673261423705919
Ni 6.1465067052124684 3.784131289175216 12.703443274269004 1.2126667195577632 0.3820764712900452 0.10180102989890209
P 4.449300674945356 3.2408575201626872 11.396289384714676 -1.4885607440517588 -1.3395038664896866 0.5140663660675018
P 0.6340554788720839 0.739642092888294 5.930661641845701 -1.4159540763286258 -0.9566300961093268 -2.3635254046697938
P 1.177798644683899 7.000108012393432 11.172153796346766 -0.4856335646481056 -0.4844791393286882 -0.1469794262077533
P 0.6029839929028435 6.0836315111548664 6.806079294961259 0.70311649619306 -0.29373542355079096 0.12289204624124643
P 3.1588375764917695 6.089930096889883 1.0049748584949139 -1.2253150044493928 -1.4711263506253953 -0.013850789840163242
P 3.653318055425276 1.0702431462541808 7.003071022051793 0.7998601661737128 0.6305363108324883 0.30943020857822834
P 5.855305472775257 1.6248691246954146 1.3395653235576794 0.5402980460705212 0.764189966465613 0.6560915335937734
P 7.7966716141994645 8.87652402302449 8.428920514820465 -0.8177892398483076 1.1676557020647118 -0.10984549746993338
Ni 2.1601659147023957 2.5633491772718267 11.527063886312218 0.1091574702639733 -0.2948037169143052 0.23207754152967774
Ni 5.475306169997671 6.634319720769083 9.280069707877063 -0.027121795917456518 -0.3192777907962695 -0.6501155185159966
Ni 7.35579827857145 5.954109349151489 11.826742849153824 -0.15972644146077652 -0.22170211183262462 1.254963166333129
Ni 7.781639850293056 7.793158054660605 10.22255577164424 0.1060538916379851 -0.5248256614665348 0.6058061550756599
Ni 2.7178351336890985 2.220837064849795 4.320562377930964 0.08262677096329642 0.5430622390792196 0.39153941647515794
Ni 3.0773801712247115 4.723367540917472 10.173790147388358 -1.6282312953029248 -0.6144856851275289 -2.142283777413356
Ni 3.4486924055361383 1.6019064914886927 1.9717718032498648 1.6155791537565531 0.13169756034801836 -0.6319511889021439
Ni 1.9481073803294753 8.775691319617945 7.161785238439058 0.635814271401976 -0.7120341103976641 0.7092604043072688
Ni 3.3583450490998916 2.9562868633381787 8.260016053576402 -0.030265997973393036 -0.3033600911247485 0.09945181294043517
Ni 0.27738030939025904 1.1304347554671423 7.985805325323955 -0.5550788039241215 0.49784270511978773 1.118947438225731
Ni 4.697841208099719 1.226610378645015 9.27711407577154 -0.7268027840664063 -0.39182018094037036 -0.663636950041199
Ni 5.35707166383567 5.5237121385527255 0.7687502276086543 0.441332171627569 -3.0284044546482103 -0.12236291321065378
Ni 0.22752649609084588 6.1415821886934365 9.22745761201053 -0.726172349571259 -1.570712889371482 -0.2653244765082656
Ni 5.036885870688126 5.206818578358916 11.144160594298974 1.6931537070079228 2.645376418078173 1.4300408934389952
Ni 4.302330600481289 7.751908312357926 7.161920800972446 -0.5617736994457938 0.5115991354739318 -0.5617343615674262
Ni 3.1849080038312887 -0.07786730361750932 5.2041589705609965 -1.0527538731177934 1.4436479426994686 -0.38494582241804026
Ni 1.3501013912037356 3.7353195552141 0.17574068614211205 -0.1370968769867187 -1.4637989637260467 -0.8205138378683224
Ni 3.9779396022163684 5.668847046748463 3.217648661130014 0.24877428545906835 0.4009226574622708 -1.2239124676749114
Ni 6.727654986104518 7.428421064315601 2.859161380232478 0.34098458634574175 -0.8997354398048117 0.5397416593464188
Ni 7.145768571228843 1.937926357413724 3.433388594368847 -1.2838474534676472 0.8373010846289902 -0.9968215807265478
Ni 2.7920164274701715 6.686617348445918 8.482625410701054 -1.3403153066473885 0.10243660660037196 0.9667365884157092
Ni 1.2535937781481752 4.441074703531542 4.706124355548024 1.924424436365589 -0.17992219968236112 -0.22412306256929146
Ni 2.2042099051422768 1.076938275454213 9.488764078156084 0.24388353302567034 0.044037340725872544 -0.6435496923730206
Ni 6.46153743331481 6.993431327075493 6.860635376000475 1.0981413001136573 0.7055155925528559 0.06337075094716182
P 3.432978217992261 8.769936828404694 2.7902172267719263 -0.47912533121594264 0.30948625862714446 1.1115647726084146
P 3.9986428598666057 8.407468435557222 9.53989144151407 0.014160350660782065 0.003347833426310363 -1.4124409209690447
P 8.376012394646327 8.081823253309926 1.52428449150303 1.5585256032766708 1.050539639075294 1.0763686843232558
P 1.614623548192335 0.9387013791615375 0.06693838128285623 0.7191804916344582 0.1787826867612792 0.022417705573567846
P 0.9020257196181104 2.8734830546782764 9.685931944320613 0.562547858607657 -0.02745681065937207 0.20683213669932765
P 0.09642830436255723 3.1672572086675674 2.476258088219232 1.0512029836909056 -0.9035915803261084 0.10946445998143084
P 6.818666322296141 4.8202716974380495 6.714149453441368 0.5262837340693001 -0.10563763003617291 0.8856982449854554
P 4.033225138792392 3.82976145347516 4.107642514264264 0.7773642990640419 -1.0250276108471184 0.9560132884609341
