# total energy = -381173.0104684124 ev
CRYSTAL
PRIMVEC
9.22048929847952 0.00000000000000 0.00000000000000
0.00000000000000 9.22048929847952 0.00000000000000
0.00000000000000 0.00000000000000 13.49511810966508
PRIMCOORD
 96 1
Ni 3.985943852896938 4.884286925736352 1.600250992979062 -0.0887069157191053 -0.2374010106251202 0.3011800527542942
Ni 6.41496194894223 7.546002515641256 6.080832616088224 -2.9515521242748455 -0.937979570887675 1.2101056436988062
Ni 8.691989495842144 0.8395698285805894 0.608075608602526 0.7067996014716021 0.8025143159671082 -0.27845278636010756
Ni 3.447467265291382 8.60375863168465 12.117833791174727 -1.7225362739350978 -0.27134882832547463 0.06657151727264664
Ni 7.150904539975193 7.474350091629565 2.1686388485673653 1.0183656254459106 1.0454036034003094 -1.8953133779322455
Ni 1.9702803017550228 7.831441209519769 3.5024287591852037 -0.24727738919856768 0.8927132428507077 3.195743675459238
Ni 2.162831784271578 4.361946194779935 5.367764215441079 -1.6679448118424631 -0.1534858598677034 1.6770228628843311
Ni 7.484833788206748 8.409141759517004 13.385781108223515 -0.3792978801036435 -2.0530875807626576 -0.5922530989815735
Ni 3.0767851458578446 8.519676987808365 1.746093319716641 0.44021142775956446 -0.061652739814790594 -0.9931860408564895
Ni 1.3880709323855425 1.0772574513650681 1.9890725814330859 0.337545992977838 -0.17919483459803331 1.1052362592872256
Ni 1.614821210508759 6.578865370539426 6.2322478066879405 -0.12419945219876029 1.1684874539373877 -0.42587829896634394
Ni 4.207632082277082 3.2633617511694615 4.906311909037951 0.6302424337411533 -0.2034570495795077 -0.2728261842019495
Ni 0.4065055652925289 5.108224954557861 12.350475962097258 -1.2761508561543375 -0.11490774248418921 0.12925269835195158
Ni 3.295283085866216 0.791154882241561 3.8611832533836976 0.6563962093183856 -0.27383045709674775 -0.11296990203152801
Ni 4.239424330120643 7.272983821137822 10.366396275735891 0.9295322114512701 0.42727183687976095 0.026554353449760718
Ni 2.6379082859802887 1.1525427482451942 7.997274479572205 0.301773463363919 0.04201773919268247 0.8952390945963549
Ni 4.528385250993426 3.7290241330845886 7.372342894089512 -0.3366450784301235 -0.5607493719463376 -0.34919926094605025
Ni 4.309490829935962 2.3010192606148054 2.391321046717096 2.33801260511067 0.09953794489633824 0.5890384486990178
Ni 1.0236679663108985 4.332449848825308 10.23243086154103 0.9549524512965875 0.20967731945760662 -0.6353882396081508
Ni 6.39763664914581 1.1061913474593528 1.1148752044834438 -1.4556719637435382 -0.23216213082368403 -1.2520933009845017
Ni 3.5642355444940663 3.28348085928856 9.464058886839103 0.036176449920557054 -0.860842105173724 0.9787870918223401
Ni 8.221809074065256 6.95019292423893 7.625443487145249 -1.5662767079769995 0.6364693884874717 -0.7099006089944291
Ni 7.7680319031334095 3.4783282436940497 1.0315938990969558 -0.22495661421418034 -0.35028529492137733 -1.3033549273729552
Ni 0.4569610059609598 1.0847537093397823 7.080254383173651 -0.9028819558535934 -0.9169847138035627 0.6981804923440234
P 2.5294476678295323 6.451281457137062 2.04160908658478 -0.06493963809617848 -0.9040451229237592 -0.6500674388868805
Ni 0.9116832770679705 0.6554855215845509 4.349800965992365 -0.83374936272199 0.7088575124418953 -0.126202341561402
P 8.517039927807419 6.4942212768028 0.24607365799727413 -1.1856593377309839 -1.5004392406568998 -0.42828793684910105
Ni 2.1862426071471006 2.0968776227794113 5.945503491494272 0.2514420620992186 1.2007653401344869 -1.4662638803267714
P 7.058091092529345 8.025818348960057 10.917929076492978 1.432621766792294 1.946009361625216 -0.5686897098393368
P 4.153056004844936 7.969997505443549 5.125513372396225 0.909855301847633 -0.8672233261097194 0.4580083467316693
P 8.664337247790275 8.633052126869973 3.2615001343366266 0.2609836830410667 0.5536305015133691 1.1869757425495622
Ni 6.649531202173142 4.614320213261984 6.667047366102497 1.2460386101499896 0.11435752640767402 -0.453362877539858
Ni 7.164892022567618 4.4791478369897675 12.094932861369317 -0.4930576250263185 -0.2705175906734309 0.27322059142689076
Ni 0.4734361766242065 7.68180188520041 1.5661895826661565 0.4037745250887691 0.2208459344799164 0.2481662195614242
Ni 9.111752280957603 6.792753065790901 10.484290376708211 -0.21180053644819655 0.0073633823436066725 0.18048758526752787
Ni 7.764666424460875 5.245637909781929 2.6159745855248757 0.12058113871988264 -0.6548064962337626 -0.23778770454057757
Ni 3.9357567284733586 8.11951696339923 8.08203751762356 -0.36169456519958354 0.005414486147351965 -0.17669855053874084
Ni 6.899415688486467 3.436292032000664 4.382067146996936 -0.7008145875327607 0.7939157756648197 -0.7733088980477456
Ni 1.3956778362344222 8.663110922684941 10.381564903035034 1.5246029823872969 -0.46645416350617736 -0.936609944233658
Ni 3.7356075625974374 0.8730992166485491 10.1201105464798 -0.0816564366302271 -1.4045288652108199 0.1708436344198606
Ni 6.090990829385571 3.7257139773491366 9.631155363954926 0.2093559315624459 0.48359313717930913 -0.9080493589871459
Ni 4.375076171847577 1.031468500439568 6.125933718495995 -1.0792244086044962 0.7552116742264026 0.8152163369148089
Ni 3.6613826220113976 5.944855291081453 6.7373028859528485 1.22272178980092 -0.05428010149980329 -0.6325096325087752
Ni 5.05966063628871 7.352814819348249 3.1403410580274738 -1.2290407900404123 -0.8805406120439158 0.7007513383949932
Ni 7.505072762689526 -0.03528035902662912 6.974276842848959 -1.0355493363140489 2.8440537868808504 0.8808118634274313
Ni 9.251101538979569 3.464893990472452 6.579747771385897 -0.6960521331471109 0.8744414411247134 -0.5791049916353898
Ni 6.144128510453564 0.5119833550855728 5.007943832654791 0.6526354567243728 -1.220732527285033 -2.34918919055278
Ni 1.1654237720959641 4.7927459058434065 1.0521952388176252 0.7309615434297864 1.9588864746982004 0.21061577211147597
Ni 5.421924448796154 5.69526586043257 8.307675804711412 -0.20093325471638945 1.2271942237499767 0.4610381346969286
Ni 6.090529804909881 5.561550321503532 0.6239560576921329 0.8715263243604475 -1.0032675934622075 1.4369093384240543
Ni 6.348307030247014 8.24172533141505 8.81553760098432 -1.3803998333731 -0.9370264629457864 -0.30774330779410874
Ni 7.3251072483592985 2.349583578883957 8.036559297194675 -0.4344506140163873 -0.5922885802051993 -0.40906739805659226
Ni 5.686893655954044 0.18943956730565 12.074109307851366 -0.1644783543234651 -0.4383982858102256 0.8303681049545829
Ni 6.850832929238289 6.105144280789244 10.057520019562265 -0.9882387241535431 -0.3102799581730334 0.3669352447732325
Ni 2.7335063212593025 2.7641828898716945 0.8911354161864811 -0.4817231738501059 0.7220146186491436 -1.4984569201195483
Ni 5.286973364272267 7.817462947416859 0.7062415502111314 -0.26535250153272366 0.29008291439986816 -0.06737370145896784
P 6.03195203502875 2.530655551955839 6.1452451117336855 0.02061176271308063 -0.4826117471026462 0.5972988889355971
Ni 8.460297035339533 -0.15386138646772535 9.06754556603267 1.8204212566090454 0.17922388806375583 1.0606643862141218
P 0.520133345766815 3.0675830973230784 1.9168060728197758 -0.6560226280290509 -1.4215061164951068 1.3619740225677448
Ni 2.0596729475912534 3.9117373532899262 7.741595837648411 -0.2777907272960764 0.058784674238376175 0.5458223183228599
P 1.682508824029519 0.45021437378371687 13.452150191743803 1.0088597428380044 -0.5168603838728711 -1.1452493093450533
P 7.055509355465482 2.06688337039104 12.655654801975853 0.43405055036449114 0.6763274010246739 -0.8251045425627984
P 5.3330481503726945 0.15372953346767806 2.683301677905647 -0.7700099155814997 0.927362457493461 -0.09082319073115971
Ni 8.131383733403482 1.6434600509386024 5.094231939671729 0.9466698995728212 -0.11850548713777656 1.1866605253019884
Ni 0.5083818318814849 6.037511990205567 3.6117118450005905 0.5638367526224096 0.19134252570416077 -0.1341951299588915
Ni 3.0927826951642765 5.588243638645966 9.234277833812701 0.26689130677475326 0.13196932595216626 -0.7091758150132625
Ni 1.004821285744704 1.7339407145374606 9.848710047886037 1.4489079055468272 -0.796643459008628 0.982361953657792
Ni 8.301418780527353 2.9753874226746544 10.713693389664543 -0.7503808284966625 -0.8768623918613802 0.7243453236648493
Ni 2.455278050180575 8.983817988953716 5.89520756529443 -1.3048412821104947 -1.7039867930676849 0.9880191519435695
Ni 7.340330276546572 6.83999885405958 4.287331227487462 1.7065476118163254 -0.5730323030787486 0.2856629309553016
Ni 2.2330919143666863 6.238398795242592 11.452901878083294 0.4648256267638188 -0.17258401414973504 -1.8516930701391336
Ni 4.981009860736049 1.39863761336835 8.305044277004177 1.375322933070825 0.4214871118771838 0.22182372501215342
Ni 5.2569145684573 3.136727548187018 0.13557992190872642 -0.007487566626296782 0.25509919923583163 0.025762453676084665
Ni 5.355463160380727 5.522842706524626 4.804343437553857 0.6377603393847532 -0.36521851919244197 0.15553502908724826
Ni 8.825059600505215 0.2831879723881968 11.728944893147252 -0.6187339188809214 0.8483660841939002 -1.2264383194205586
Ni 3.258825270328675 5.5880131264081205 3.9553521127880735 0.4210929617625586 1.9848319909193688 -0.6027884512952586
Ni 0.7709647763532068 2.4502252219270164 12.944882194995586 -0.5593257521259335 0.8266724012705504 -0.5700253979316248
Ni 5.1363474475749324 2.5201441939101143 11.24361981734396 0.28947433428159175 -0.20190281771851035 0.985241332088116
Ni 6.598947596700469 0.9827289928696542 10.211863637631561 0.888939120520256 0.7031699751388147 -1.393147877067388
Ni 8.957705562650652 8.177495401461965 5.751929456690639 1.303342328967465 -0.49826488025887095 -2.090537755189316
Ni 3.877981141179927 6.281191087076109 13.003531884694924 0.05980334531087766 -0.3050559907699327 1.3636773784120968
Ni 2.989734504358118 1.9962267592468383 11.958388476257449 -0.6697188945692207 0.6015949452077897 0.6253354833578391
Ni 2.4941147520126745 3.551391402601351 3.232863138004686 -1.3370734026713231 -1.0886899248927704 -0.7989556520815724
Ni 0.9143544528801165 7.666228478411613 12.62256430920875 -0.2908894694615636 0.8418143991183115 0.6579787233141572
Ni 7.823124327978328 1.6802037016510705 2.5959615130351863 2.166759908177849 0.23301727973512773 3.2814056337044324
Ni 8.164015045792798 4.983167455282276 8.699479299474197 -0.33460979316764955 -2.259014689149213 0.0604206671799024
Ni 6.126913856531312 6.674343539454761 12.193999644803421 -0.9960829027883102 0.46943150096694636 -0.010751582089549225
Ni 4.52659647602775 4.948277122962081 11.161812868230728 0.14551646850898164 -0.623089881856772 -0.015487554112637842
P 5.899379836799422 4.174890124013601 2.56901186628427 -0.958348364352014 -0.2656762034207295 -0.7631646105248922
Ni 0.08632867717079697 3.752388853512542 4.16189476609286 0.030776104840592157 -0.8804822480021546 -0.6524431382079086
P -0.004317955239309624 3.0671312933369026 8.714269886703274 0.6185919939864185 0.6350699370367837 -1.0618879742085776
Ni 4.208378941927699 0.6120994302263456 0.3794194552968083 -0.6628311663104519 2.7585802904973784 -0.1089335271786253
P 2.632800134789647 4.298988692379751 12.613400986729943 0.05196276622053631 -0.3811020231919178 -0.004237178009799154
P 9.10180337277222 5.618579049146346 5.605278493022699 -1.527102608880699 -0.7259702608627819 0.334036951383315
P 1.7102993794240933 8.292391921293348 7.99974464871295 -0.6530308923905785 -0.040314897568962824 0.3520274744234647
Ni 0.8801823966930454 6.119528244430762 8.420886819059675 2.3491192565467927 0.4346956401476578 0.5553140598633791
