# total energy = -340858.3136708728 ev
CRYSTAL
PRIMVEC
9.33217154100042 0.00000000000000 0.00000000000000

0.00000000000000 9.33217154100042 0.00000000000000

0.00000000000000 0.00000000000000 13.65857636060971

PRIMCOORD
 96 1
Ni 4.907032983561756 5.357543553323296 5.655783883548263 -0.5736668513389539 1.134567661261491 1.1723988731766517
Ni 8.955795504349835 1.7833966007782498 11.771425439637417 0.21102483462443655 -1.1697290396539726 -0.7027413722418283
Ni 1.587131706057277 3.0338795591694923 12.023112233306083 0.39057448145872736 2.1500901608316516 0.650574460430286
Ni 2.6432255361599037 1.0640541722260157 12.731363376262014 0.24349015424199355 -1.0754158334916835 -0.2800635824906531
Ni 1.4619126314832662 -0.16155201711678852 0.9279743166869409 0.41323027118503025 -0.5923171194502895 -1.4001052822218274
Ni 1.2411227905720639 6.646950998228787 11.377443564340371 3.100932703724924 -2.946048163737481 -0.9423435042833255
Ni 1.4245652819196064 7.325073226125679 5.4740435802468 0.2591990803368181 0.3405284726449297 -0.2848751449466836
Ni 6.233059868669097 7.079571795598141 8.6171412730703 2.0684794898376957 -2.101829011832419 -2.7737703679742554
Ni 7.5162054266287575 8.854690760428623 9.180406869410543 0.09052237166128925 -1.1701977517602749 -1.770529771095241
Ni 2.3684490842477586 5.15119991359264 6.3751543086144125 1.3114227919827544 -0.6687940687621062 -1.105419064721993
Ni 6.844205103108119 0.93237070258885 10.760171759439446 -0.7246137468348876 0.9183628250980119 -0.22319592276933173
Ni 8.827599467129447 7.154107847813272 12.39258969318977 -2.9359123608550597 1.1082359653454978 2.2098968485766393
Ni 7.032043047140439 3.697555585885836 6.313567577302464 1.0839030450270881 0.27563537151597045 -0.05915517020391748
Ni 8.131718117238643 3.952575831144741 8.33421690239153 0.3722774829217524 -0.9514871184558066 -0.792130658739939
Ni 5.983125656771559 3.725150816435497 4.416255027835138 -0.979360447827307 -0.11112873505773119 -1.80111947095664
Ni 8.232048290941517 1.6040695969763283 6.711127407077947 1.9801117026255637 0.44787640050398997 2.180872693430147
Ni 4.1483367886152305 3.050024215527596 2.8382109901949253 -0.16375947387956957 0.027917552345874497 0.9328427638817417
Ni 2.297225952845996 1.3494039742270234 2.335398266353041 -1.1283327360953728 0.2796784312370925 1.9428548751566348
Ni 0.4636222704454347 0.8303150104116311 4.324564578326674 1.2231051412822675 0.24476850673378492 -0.6681001280188753
Ni 5.22142450266474 2.5336285163509027 11.439303728271565 -0.22056902666944592 0.4234861445850836 0.7064568734202027
Ni 7.038360927114102 5.579910531185088 11.976645485942921 1.2055653326262914 -0.772537824209676 -1.1212172080965142
Ni 4.5790538230383095 7.759401810843894 9.61134880916208 -1.968407012594126 2.515022516242243 2.933653132507238
Ni 4.576450147244142 0.9694166230193499 1.9432464298489585 0.8897050521520032 -0.8935359958623192 -1.5231122567743833
Ni 1.7341693971429908 3.478137574156507 3.5225876393006024 -1.4039987037389627 1.046848820487268 0.44056932531961535
P 0.9216060429882299 1.010926120985157 6.434897002876442 1.2841230757265367 -0.6922942087665753 -0.21797169825591492
P 5.049712550647913 4.8113502311689 11.245542655111795 0.8346901293687043 -0.009019944110423176 2.4855311916513454
P 7.010373745369621 7.640976556980115 2.1667416672215567 2.917924408918071 -1.448669564283776 3.666734293383188
P 3.406821121041692 3.7952354229380174 4.706717926494298 3.1853224801259143 3.3335123817020005 0.8301631880326282
P 1.5276017853010082 1.256203579401368 10.799768162287675 -1.1360090216937082 -0.4584570042333136 0.3032127669136069
P 6.578816815529067 4.732232082842886 2.064179238142462 -0.6185989359649539 0.4280094863767338 -0.2240256177594787
P 3.9320730507870794 8.437430717027732 0.9245596752063454 -2.524228865331859 1.9256027729444065 0.9208580807160399
P -0.10479935054096591 4.510313049203747 11.836276564471946 1.6261828974143284 2.0408223902420595 -1.3955402885589643
Ni 0.9054389894189933 1.032800730524692 8.62118396967974 -1.5671804507381912 0.09808989959590204 1.498044772282794
Ni 5.215003968806719 4.070394493873678 9.361300744774617 -1.6562912867639348 -1.0989859075021395 -0.3924680989370144
Ni 8.71322437561215 5.622969169587568 1.1066247380692311 -1.0367137889357954 0.4260850156605114 0.3575669161844552
Ni 1.5359260821053025 6.537559286188503 0.2588109732431024 0.3922870932744599 0.685876992386322 -0.2737258131980834
Ni 3.1150227886687483 2.6623098264791656 0.7370791533350158 0.7266896555273097 1.1278969341095348 -1.5682526007564475
Ni 7.969926263319308 0.8556163932544586 2.3890078576332514 0.15487425557479778 -3.2559008045651088 2.006177032254048
Ni 3.081221664201088 4.880818914365273 2.1272413857377725 0.306672186217117 0.2568586051290995 -1.95562631588969
Ni 3.9165816464203442 6.275903867131556 8.107034524136223 -0.5544851362041806 -1.1518246485697259 -1.1666133768431262
Ni 9.624268267117086 7.988263979934149 2.550383496712371 -1.1968359231730936 -1.1096102199852051 0.6527647832133855
Ni 1.9710292370418552 8.579018420071172 7.5093761436675655 3.1922950547890054 0.7169176637422106 -0.9885729675645102
Ni 4.435581021391205 3.2467837153277475 6.752335475910594 0.673796407072704 0.6641565699900949 -0.4230405724072327
Ni 2.7442369583680635 6.5486925665556805 3.556406494893743 -0.9889897433869549 1.3791819018055989 1.4701087079941586
Ni 4.123979821508495 0.4112043974409065 5.839095724497532 -2.182119935573687 -0.13505850640045128 -4.267348105624631
Ni 4.278119294957514 6.455800133383099 0.7289387003054354 -0.522104662990946 -0.04367918605550542 1.5014522553024465
Ni 8.165323266108892 8.657548641604956 4.977349027912647 0.8665296424768044 -0.23684359545975336 -0.6994243920534534
Ni 7.436732655793143 6.124816013699358 3.7024577754724906 -0.6668598278538709 1.1976347649253054 -0.7745849365466918
Ni 0.006943135451115205 7.965577471491056 10.15181871065496 -0.8707773620095648 0.9967822428481801 -0.937706005511314
Ni 5.175426230301102 6.797964194290543 12.188995311125643 -2.189407727484352 1.1698054014178627 -1.2947095929931316
Ni 4.244644796485538 8.426036135864006 3.457545204954315 -0.01571792495588906 0.31286803061518376 0.21804317492379868
Ni 2.5891829321311293 2.1244967941568946 5.406473993911048 -1.5685189670439568 -1.87998703198782 0.6258124229942578
Ni 5.5070449376336 4.213279368728551 13.513740889112773 0.1502053893442187 -0.30197452363113153 0.025878924649290917
Ni 7.8148909014249845 2.113802125841064 4.4779369472944 -0.2613840038032789 0.05659152324179931 -0.5307849643737632
Ni 7.35625201045656 3.547316960042417 10.428746228052967 -0.003917589886851317 -1.401144522119619 0.6634307475676638
Ni 6.059266842451195 7.640351301502662 5.067058257453003 -0.7241136672700175 -0.762296606097642 -0.816372047785807
P 2.0406938958356386 8.848456869996708 3.5152936142084097 0.06075002549486311 -0.6099775128445302 0.016618839503603634
P 8.787004521951555 9.183743120652174 13.730829590884307 0.6357777617370858 -0.726150238084072 -0.02849373656431867
P 5.298648220215786 1.4726819571695393 3.974181674150685 0.13455302751894246 -0.7254174736831055 0.962801515027361
P 8.018481550620589 1.573506735951594 8.985786303273557 1.124094272533993 1.8583172603238705 0.45444685463265605
P 1.1271023215643683 5.817208983135299 2.3720848981882887 -0.7569011461136835 -0.059933957351470966 -0.7860577130729818
P 6.7059676495632665 8.323970178298351 11.824625348597326 0.7667944939679956 -0.3586277533488017 -0.18631576191353075
P 0.1473671167327897 4.167803697958007 5.30179502837992 -0.3671512174387806 -0.3371520999735291 0.6257586869381868
P 5.997273228470338 4.899492589147103 7.6910483221185 0.6092028394620346 1.62054369685068 -1.3370178668430392
Ni 6.333558021455467 1.0009500298598315 5.925772931580809 -1.268649662681286 -0.288682948728548 -1.0971216005998912
Ni 8.298941294857638 3.9907164152693486 3.1879798374990287 0.9562043214258176 0.5460642591303371 0.10322567816057063
Ni 3.2633483193945887 4.869237689775443 13.275698663109532 -1.5978346852889385 -1.1170790175584244 -1.4465319491154829
Ni 6.008994435629746 1.978961582651328 8.20435133972463 1.5753092504929127 1.133665461162196 -0.6292631005470195
Ni 0.49562415228544043 5.636248849354957 7.424951722737379 0.09923326917172588 -0.21774158452297984 2.5981259697316417
Ni 6.460951491943604 6.299971536927828 0.38882585065088726 2.3515142391415305 -1.251248179375387 1.5978637387546613
Ni 4.957641348550193 5.967232969038698 3.3767687297873556 1.1832350445602073 -0.49698601354644734 -1.2546466635339748
Ni 4.630100800078094 9.245690073776506 11.922011222253392 0.33236342033563404 0.04679947685204198 -0.011682835654566976
Ni 5.998719715022653 8.450421099484657 0.764705180049984 -1.2131346603331172 3.357773311131895 -3.20896428791457
Ni 3.0228769292005877 4.954496406820319 10.74143182624135 -0.09560595683178374 -0.1048552433441936 -0.6437970324971365
Ni 7.04984882999088 0.9872037415271802 13.046002197904587 -2.274690962233889 -0.49043330002959407 0.13835080399847788
Ni 9.235200713229391 7.903891819163272 7.3405282350243235 -2.4211911348123785 -0.06012010522034807 0.3554899790507684
Ni 7.8268640772096365 3.509922949622231 12.77601314987204 -2.1363725541352436 -0.5710713226976358 2.372307264627482
Ni 8.552617707448585 1.9390385538074157 0.6707012852749457 2.1546579827079926 2.0150735634127295 -1.880178579173336
Ni 1.1144758937883483 3.985042455115749 0.9412726607969397 0.060613499916998825 -0.027615190614107277 -0.6682741917028943
Ni 6.36977617829119 2.51041007414341 2.40851209566125 0.8402943629293593 0.8012706733679943 -1.8967148862654628
Ni 3.153900614326471 1.5954093420050446 7.752894487792735 -0.46514881443119244 -0.8819403206049199 0.4260222807433759
Ni 7.764935788427915 5.730429122167665 9.725903078368436 0.9582810014491883 1.3544900554858736 -0.23896449845749815
Ni 2.4568620751938144 8.666292886117986 10.368074982746064 0.2753728618832032 1.1401706092705655 0.35848968510904067
Ni 3.1448670725029775 2.445654137456194 10.175079147633324 0.3660680116769308 0.493040655745454 -0.9706696049215284
Ni 8.562136522179953 6.0268282149941035 5.6949706040761905 -0.9186119649943406 0.7897472461094269 -0.45880410316008724
Ni 0.7463404001383582 4.425175650385838 9.809439076590362 0.24572624266136392 0.0945482049912307 -0.08035931508535837
Ni 5.035089038212567 9.11939779950239 7.5406949105680265 1.5789635594160485 -2.5051867610987433 2.6234469649949337
Ni 1.0379240925712812 3.173199544585754 7.3259000565033245 -1.6192895127286047 -0.10062603575419445 -0.8996724477773602
P 0.28961647072177354 2.562558247397216 2.3398917068365255 -0.381622157361446 -2.2948481539080543 0.12391688796133499
P 7.062269949998185 8.34341842329852 6.7431022256211675 0.5495810140343438 0.12778022757148316 2.2747804366239017
P 4.6339549868271686 0.9207269524512741 9.246501039462933 -1.2288749538865094 -1.1666578569278165 3.2995992738943243
P 1.7124254380017294 7.169552591323481 9.057588962513377 -0.3616413433641449 -2.3218030852303437 -0.5191283539714415
P 3.9622439606169926 7.428333701618406 5.610123435785875 -1.615534930782179 -0.35581856603478074 0.2373804417998299
P 2.8315954139566246 3.7403902521769905 8.192550809109125 0.7875263271987083 1.4485628635025827 1.5317979574738394
P 5.132040965902937 2.1181415854980115 -0.05747404341771937 -0.22358390223636979 -1.0303531368250902 0.5635282202430553
P 2.960286056256193 7.627127614763105 12.243615576558213 0.5274610422068529 -0.01846669134561981 0.5574524463626206
