# total energy = -381165.9460288005 ev
CRYSTAL
PRIMVEC
9.31529312995295 0.00000000000000 0.00000000000000
0.00000000000000 9.31529312995295 0.00000000000000
0.00000000000000 0.00000000000000 13.63387309995534
PRIMCOORD
 96 1
Ni 1.554489552449948 5.840809934084191 2.801256777861173 -0.7114656394887037 1.2917929335669687 -0.4294896704666861
Ni 3.5864903495329252 9.617853921279535 5.013079994842241 0.8911410132675814 -0.2861858933383071 2.8955630105037353
Ni 0.7270064684777511 4.233362939802464 5.021559706240565 0.5503070935670908 0.28004018545188547 0.6167315437389121
Ni 7.578503357863176 4.52055342910303 5.631866976119201 1.1175225328537461 -0.6923047502895368 -0.06358466673018083
Ni 4.159800069416264 0.4137508572792966 7.19961219079019 -0.07652142939650693 1.9671602846712184 0.1662472732984298
Ni 3.1881684123778107 0.3118117407527332 11.338774228125835 0.9224051134881857 -2.6674609086820387 -0.8973183457228869
Ni 7.529439708588246 8.598555908945883 4.019565782551892 -0.416370873696541 -0.14913246799501412 -0.05045867087118407
Ni 8.0347943645907 6.807113243413272 8.816698650473416 0.3370184026091422 -0.7108290343459694 0.46323102858318926
Ni 6.296951896120545 2.8462692061242048 11.233111788907953 -0.8234448954721882 1.3383730953193531 -0.5675579102277386
Ni 6.7517990324023485 6.290617496745767 3.748810265040914 0.3128551750993773 -0.4129693042141597 0.008881104539713738
Ni 8.544489947223518 8.396870495911612 1.0915138913233928 -0.42800177306725 -0.2704887943180245 -0.6807170454519373
Ni 0.40491902779808137 6.067199504680092 6.360256765636885 -0.2681588606332672 0.1852955481791325 1.20475055003448
Ni 6.0540928871502215 7.572616092561911 1.719599398270798 0.2520861234411207 -0.290226639066584 -0.9103746646862128
Ni 5.362860870670845 6.62279153690045 7.700315720898783 -0.46688970838169913 0.3068724751533812 0.8143956407857265
Ni 1.6490956701708868 0.2937391404189016 0.7646635412314825 -0.6154331366424627 0.9665134166613099 -0.0652769668309392
Ni 8.82460081369345 8.956803454762332 12.371431302435031 1.2169702320291234 -0.5515119125084696 -1.2057869617187944
Ni 4.478057061532833 5.624173475466805 3.005587734163733 -0.03244757900574412 0.3055869235727382 2.8120952316963828
Ni 5.475697017180665 1.4454260996853996 12.882660182328271 -3.238045778661559 -0.8293576614121976 -1.2921423464865873
Ni 0.47752801216078616 2.9190402765885586 3.2222838106575855 -1.1187936862566863 -1.2817836289600828 -0.5990755212200457
Ni 9.280444686347462 4.449980767833452 1.5654825299531463 -0.675167833498934 0.2542767033345363 0.01962265932693395
Ni 7.202500863210952 6.73002919219815 6.272631528638678 0.7720652554486317 0.6205527172572151 -0.36586540874782153
Ni 2.788821792970894 1.7379169908157424 12.873934547189515 0.22517927174794766 2.6462788752877846 1.4195929586327938
Ni -0.06015257429806918 6.264730296947964 11.071918092347627 0.08091055960313807 -0.398347697646243 -0.419807924402548
Ni 0.34376412795188566 1.9326811410037483 12.835964480584325 0.7578413985397657 0.13498625840161915 1.5661036727342448
P 3.6201744497376236 5.888923423452903 9.08877600808922 0.12023146868994777 -0.24144766989066802 -0.5001232736238483
Ni 7.672019586279925 0.6304469337731493 5.9763670122337444 1.3030214552929367 0.0473455791634991 0.61527989889405
P 1.4753468214380243 8.012605336192584 12.355792788213888 0.5801385751062267 -0.5246621393054771 -0.15729032121545813
Ni 7.23727485271984 6.603797654069316 13.540263058832819 1.2723062855972669 -0.8938491562273639 0.20346656266120441
P 8.380326535191605 6.409247755624868 1.9492074026666784 -0.41661178606275345 -0.1687263309665417 0.4383378648859354
P 7.838409353386208 3.053497218611405 7.315908968723142 0.06887882524958461 0.3246238855995312 -0.8926381666383982
P 7.481261012167146 1.524876235372864 3.404923175218812 0.4376346681713237 0.3606908065254176 0.2637851570456038
Ni 2.486251754600097 3.9353853409783803 3.2617545709970064 1.5086150915994727 1.0635337373421168 -1.5440752321792957
Ni 4.777925664876151 1.1007695666451263 9.704850375986863 -1.449986740433303 1.1125322787280065 0.10596004637259818
Ni 4.35709797935418 3.2448612867820676 1.9291795222905443 -0.29450495472696375 -0.9805799220567047 0.3476213749359691
Ni 2.780326245574133 7.452374287959522 10.511729894463276 -0.4840605637340309 0.036712782040001286 -0.8021888143068894
Ni 5.2737041994708544 1.0523952490668638 3.4114541272800714 -0.39356621709719963 0.23134014914302095 0.19798111406660096
Ni -0.34742038053217994 1.357191642512031 8.113149953327376 -0.4089293298168312 -0.05345246339218536 0.9924825870315617
Ni 7.528498863975227 3.9192326225726988 3.362467794938687 2.0463788012839146 -1.3280747987171386 0.7021675020162294
Ni 3.796419797047604 2.96762884591038 6.945136079672389 -0.882214657312229 -1.9431544086749244 -2.434367781403653
Ni 3.8219809615834706 5.477802273443459 1.0533696287353955 -0.9297512694406116 1.0414369054430774 -2.801845014723284
Ni 2.9010151842500376 6.110347942774163 12.273798645953995 -0.4192060291524909 -0.6204439595934926 1.9266726089698172
Ni 6.7444772119485625 0.604000816383454 10.536448024964706 1.0974630430997099 -1.2440925421672122 0.9754472288158296
Ni 3.725316164065729 4.167913689791898 11.31441007876594 0.16183088939828905 -0.5915547873629683 0.14333822991074024
Ni 7.2011408304040145 4.584940735689002 8.813358186332541 -2.3894333827848073 0.3514325211519431 -0.39459774368550754
Ni 7.1205449136531715 7.364484496634486 11.180757978075418 -1.0629428978356532 0.16655014925082928 -0.2498299804170923
Ni 1.0984314280523775 0.6129528131469261 10.554267249323546 -2.2196459575436034 -0.1943365753354782 0.6827273910137468
Ni 5.3738901778175165 3.5829505381176086 3.9535641356546716 -0.6865215679488564 -0.10942152255863734 1.5167179232122654
Ni 5.714364144211797 4.562863490809263 6.886046380328236 -0.26741478337839103 -1.6429909701106027 -0.24745762353017384
Ni 4.11101587893728 0.8777810095958881 1.079322967114906 -0.5237625103093432 -0.6153652595190048 1.1728094783515093
Ni 0.3854565857190781 8.366931143572591 2.997774997758401 1.2722852025513443 -1.8177161989730568 0.2747758517291526
Ni 8.74000863616058 1.4256124710528242 1.4874557710663672 0.3375362227858251 0.6452193667659597 0.25202904495094014
Ni 2.419069860054664 1.0140441869698662 8.81372614041387 1.1108469206057836 1.6273805172668554 -0.9989285997672216
Ni 6.4883532254639995 3.0038001293989978 0.45485831463364196 0.5231590723973893 -0.3042070125060761 0.3645189220222561
Ni 4.482379357576798 3.707440116418379 8.78449568188723 0.987620373843254 1.7026729593522674 3.0174626109247256
Ni 5.602338428210221 8.502589758418006 5.91448365645945 0.09419339275497325 -0.7769940602088167 -0.6679245216729593
Ni 8.290247649964993 4.195812992920512 13.072648381693561 -0.7672043278119046 -0.7665947192523636 -1.190250299535776
P 3.753970005943398 7.666476986826995 1.6405367787803788 -0.24524081838451314 0.5230929950461443 -0.25148679929422496
Ni 1.3123291904694905 2.763102268450658 7.1460036099638575 -0.17478564978674413 1.3698757939133246 -0.8749127243341771
P 3.2290904953975117 4.27348390760712 5.2190197022801295 0.46696864124875065 -0.5599070785507002 -0.5049016688490982
Ni 9.187655050800172 3.7488093335115944 8.984708347066865 1.744724637106679 -0.5080556410970475 0.5862068927874936
P 9.509423908452463 7.766318299325324 5.200313662008821 -0.3172065100895376 1.524405007443878 -0.4827976378612072
P 4.921353234248866 8.189689059890403 10.911107254337749 1.3573907740724362 0.2708459205471271 0.7115759398143229
P 7.5882192086689 4.545304163130652 10.973740491214498 1.00147296345563 1.271103009317785 -0.21180799264736425
Ni 1.5472795155145396 7.356911163264348 0.9362680094701189 1.2284491792030003 -0.6097756812463692 0.2598588254080041
Ni 2.2149717860820597 3.5403144411494383 9.121278929116384 -0.13138388576234147 0.3361889647293113 0.5676561263684998
Ni 2.6949608987058107 5.254309759032198 6.958020061694824 -0.21755697931599952 0.18115221543472027 1.2366525409493994
Ni 0.4147923070588556 0.8181221458373238 4.320178677821747 -0.47901066001494924 0.5296431374598362 0.8616208923212774
Ni 1.3253799162401714 8.347536703133935 8.763308047507921 0.8923802849913213 -0.9130519544080598 0.4517443680998284
Ni 5.974335346787217 2.140114089941309 8.088035922865025 1.4722545506925677 -0.37480462021898026 -1.186225751757415
Ni 8.554382788600009 2.1353912362898204 10.89305607917827 -0.24510969212328754 0.6811957848605688 -1.3654838354932162
Ni 1.032991493335009 3.7830616666013825 11.540991544401725 0.5919612787727676 0.5739573859961793 -0.5022596032405608
Ni 1.4335025243917012 5.888904792866506 8.97836929004549 -0.3364260204407819 -0.1641770210329624 0.16084924221131008
Ni 2.378464497003702 2.3114689083222335 4.726986847080424 -0.13122936246234818 -1.8020327267995289 1.5380197700138352
Ni 6.730867568585989 8.892863282249873 13.214591093330482 -1.6653225437282673 -2.585980592618359 -0.5697636596298058
Ni 5.494346234163466 5.4713747211367 10.27485502984348 0.15299786448769132 0.8465400867287549 0.2041561325290613
Ni 4.150372992699683 8.417923058539548 13.026224686511 0.20995705548155452 -1.1070442590302418 0.9896350902804375
Ni 2.9549414165744285 7.650687564856042 6.695049334709582 0.9460860020448932 1.1687409647090903 3.21944821816503
Ni 4.764371913272767 7.921110526399845 3.55139218782074 -0.4711975917284336 0.3862820247309605 1.4899496539794856
Ni 4.316753444512768 8.32579480880933 8.85376885975566 -0.42539441735139 -1.180747245141347 0.5814770914119922
Ni 6.840350209544456 8.761992728108334 8.170875893747313 -2.243983248737387 0.774851302834201 -0.3797444807227589
Ni 6.326164655590106 4.7388573252028925 1.7448224176635694 -0.2251013673221607 2.6790511846227987 -0.5604300409337057
Ni 6.4636583831955665 0.6741747831041489 1.5040211569607296 0.4198675739958898 0.45354696852620596 0.5922718680346509
Ni 2.160225807956227 3.9217198058566183 0.4548480678111239 -0.7341872494559355 -0.7121657508795218 -0.06046154772016683
Ni 4.560078218143 5.918732361687149 5.383770909312849 0.8676580996542926 1.2142127238886442 -0.17286272173241843
Ni 0.6248968820856606 5.714047424243058 13.208319106420133 0.4427982146501342 0.4384849319867609 0.19578102109148862
Ni 2.4023116475910986 7.145891826445479 4.781835293431436 -1.2561641286197658 -0.4654275220138758 -2.933095460231555
Ni 5.726567178301441 1.5837023119195093 5.62026384691152 -1.116492291817019 1.2552287612896897 0.5023457351964639
Ni 5.4227954671080765 5.340411014063179 12.769539919375907 -0.05295392648921203 -0.5743664485091398 -0.11444185859136419
P 2.144622691849239 2.0535563855436165 2.0059924984735975 0.24550512778949335 -0.35616849317503174 -0.15009123236385763
Ni 8.955899871322107 8.396553775942873 7.401679530845587 0.03249951528960209 -0.6552237862768393 -3.0466194349943403
P 2.9931993257394445 2.257104857217527 10.714343110700087 -0.7641891951346645 0.7927032434139574 -1.2230349501659645
Ni 1.4130461405284498 0.606907187861293 6.580157302990918 0.7341394269371356 -1.41252293915989 -0.8546004951393862
P 8.477466412662455 8.941815148006425 9.572383180591151 0.7392183841219397 -0.3855605731839037 1.1162367241627873
P 4.326394772972907 3.521730431219025 13.510554725765113 0.27256187479696925 0.08985697016314848 -1.9038031605708114
P 7.560422373765465 1.4375733075193153 12.847866630703669 1.3294886483455295 1.6248801194425047 -0.1457568666545619
Ni 2.8387517645132556 0.09503182662009668 3.1336366859955365 -1.807389106015436 -0.26976374322654184 -3.5227268053195653
