# total energy = -340890.2748747186 ev
CRYSTAL
PRIMVEC
9.10627384923754 0.00000000000000 0.00000000000000
0.00000000000000 9.10627384923754 0.00000000000000
0.00000000000000 0.00000000000000 13.32795225463136
PRIMCOORD
 96 1
Ni 6.617165080718668 2.2744467436158033 11.51357857156399 -0.1417397750753688 0.055151705471479205 -1.0161459920867726
Ni 5.015872325346178 0.5391943229900604 5.830766379367012 -0.5696672432612576 -0.27934341649517697 -0.45311862273953574
Ni 2.7451318352572676 1.6023490831590257 4.382737679546696 -0.7190370240780584 -0.32937631268285206 2.902278989071331
Ni 3.7529687126256914 4.4927533078868915 4.730756706976809 0.40612528470913284 -0.07910950183865731 0.004407385039076281
Ni 3.785678448912182 2.8781016485243445 2.697817456694531 0.34750001886675635 0.8510886253313857 -1.3505963768584224
Ni 5.464629509143024 4.751590040684 2.6312706273976447 -0.5734434224742382 -0.3756965359056304 -0.27017794794582506
Ni 5.4176047100941815 2.875633848264423 0.43174848517883146 0.03372413172532257 0.8020350623378445 0.47071268167221514
Ni 6.210233013504188 8.0844954389557 12.605963560715697 -1.5944408291160412 0.37259424283122283 -0.6015728337206027
Ni 2.428242605570855 6.6294494443741465 13.459366226320137 -1.734351521402471 -0.07271156873211349 0.35854804915080185
Ni 0.6960362336054211 0.26534225495832003 0.048897959615136426 0.503031962630211 0.49160058086481784 0.25938548531601135
Ni 8.272603741425089 -0.05756166871952601 6.82994956453247 0.1873722282025031 -0.04360848071857006 0.5989819330649748
Ni 8.920314800051347 2.827543615155024 1.315167251214099 0.47502802121811744 -0.6722995108122035 -0.24245914187431789
Ni 7.288525132979676 0.6751564579007175 4.804540292238862 -0.5206612456762001 0.4355934693715789 -1.0229810127307348
Ni 1.092233825002944 7.75290868299802 2.456088680902275 -1.3182480424347038 0.14863650219520208 0.031553092215932756
Ni 8.007729548951492 4.040417358399458 3.6139541546629097 -0.08367269572930752 0.33987798354512433 0.13949983000125654
Ni 7.80405862417876 4.158917302245813 12.585545473103902 1.1572969845382068 -1.1815360595912296 -0.2889254037566572
Ni 8.67412668187059 7.418690213848023 9.136338385534723 -0.5221213751614943 0.22731071626865368 0.5821352938212813
Ni 7.162913189122256 1.1704202937545616 0.26092662268512423 0.1363700261230232 -0.5994971821384966 -0.10161976712603144
Ni 1.9776277418735513 6.708856153844692 9.1907957254402 1.0753487276991738 0.45325000611107746 -0.591070391527382
Ni -0.0622076897254747 5.233958481895502 1.1551745697871776 1.7243147059917592 0.042703709516113554 -0.7009904509889927
Ni 6.5998904788992165 2.1720649047881264 6.830841979386612 0.17769228191057784 0.7547295923836616 -0.2603383361475839
Ni 3.906527811456175 4.637770721684879 0.44758611695763567 -0.17946505754028447 0.28351863091878915 0.09441219363399869
Ni 6.42260953624181 5.846692342003829 4.651801668697748 -0.8479086849415074 1.001092954408392 0.14074475815195114
Ni 5.414208069884031 2.8394728341236504 9.322889515146374 0.2002593685778164 0.3022424325805375 0.27732407207230303
P 0.5934567886314696 5.886122508518445 12.384866869974749 0.4090018349259795 0.19406712372417545 -0.45462503208173316
P 4.377039883891223 6.471920010070136 12.580974123544934 1.3824073507214318 0.20326627372494024 -0.2515834727730893
P 2.639890626386729 8.623177078718332 1.297554806628436 -1.2975282933888492 0.7912675394086953 -0.574798650950552
P 6.49584219192554 7.873521282417443 5.745147369758759 0.2744644911363209 0.6027300872534974 -0.9298055197173147
P 4.920201810472605 1.2392364065376942 12.542323454086585 -0.23712795946939164 -0.7882040699920232 0.12406369795184441
P 4.126544498098131 6.552210028120801 7.909060338042524 -1.1452508520069502 0.06670212931323996 1.2825305344284366
P 4.626597323460067 1.1525355715756451 3.641089940620625 2.179205847250686 -0.16070346066206517 -0.6130394395993055
P 0.36312360415015793 5.767850221522637 3.248181535399795 -0.5205393753863552 0.3252962290762075 2.2960475735327943
Ni 0.5241717027362118 0.17388612370206027 4.365903821389901 1.1588918398291526 -0.5279768055010068 1.010030366107338
Ni 2.061824351479591 6.308489710199965 4.793598193374205 -1.1113207749184086 0.9632481156464766 -0.4639571081159365
Ni 6.230967999451943 5.923212362609447 8.942389318907718 -0.08500349872558909 -0.42283694103685887 1.6791653631486307
Ni 8.876886979241137 2.726673417814975 10.017875795357075 0.4554693823598994 -0.5099790833720056 0.36833880998897855
Ni 2.4544322496576996 5.453137391327446 6.936972871229085 0.978590916651134 -0.3160040051410042 0.15989767693131818
Ni 0.8379556929811736 0.4421997558737105 8.933246619789779 0.24213466865536365 -1.7407551109359698 1.052503190559568
Ni 1.8644731808780235 1.404160135347448 11.465997379172412 -0.8276267947640198 -0.26955394120858095 -1.0743403410393175
Ni 4.296595059182187 7.214900907513006 1.622318231461544 0.9622980930283813 -2.274375487875999 -0.24043876901017947
Ni 5.6336237424405455 8.124799807776416 7.826867108721291 -0.1251034520702684 0.7717469528772645 0.01125757519169029
Ni 5.6428939293947895 2.945688414314527 4.398410487765705 0.24004539022650273 0.46611246389604244 1.9654906102782796
Ni 0.9550751256858155 7.3828479192980145 6.891644571030514 0.013920466735834091 0.7384581089171476 0.0411204241893937
Ni 5.093221016887784 5.00707566464107 6.917633877088879 0.9155394967166038 -1.369199079561274 -1.002548455907996
Ni 1.0162237557425489 7.98951700090779 11.193360998722591 0.033665510573245246 -0.7735564952821774 0.4727032297396826
Ni 4.909884402005847 0.43463244216155184 10.49950753900021 0.08195159927314273 0.14274327663921868 -0.46245635520069384
Ni 8.521514635538379 7.268236354458991 4.95555965124465 0.11372272103715254 -0.5641301154931123 -0.9466878972949502
Ni 7.517320267778697 6.607439580063331 7.190910428602439 0.6320316644310922 -0.8548231526731536 -1.460572229258633
Ni 2.3524692994350276 5.773514323964229 2.5348961975421824 1.553461558490202 -1.6426328154402354 -1.4811981330391006
Ni 2.9330306934241532 5.433886728045253 11.197372312429216 -1.3022200424375638 0.1255395111664225 1.1662791334321592
Ni 1.4891216719713232 3.5280346380119356 3.6735164717850366 -0.5047175778627502 1.0016298007484685 0.0731442853941579
Ni 1.637362706773045 1.2936919251883665 2.431285011721555 0.19182872131195994 -0.184518817914108 -1.5195960160910087
Ni 1.4004356692725108 3.618432620226856 7.931824201842348 -1.2832959518395513 -0.8161488760314074 1.122378318284151
Ni 3.731332205549772 2.9180508726582075 7.196161106203437 3.0976015824691623 0.22586549918169488 1.780489196300798
Ni 4.134758357265841 7.157367468242947 5.709015495694857 0.8679661178130148 0.5139768916774891 0.20336166165222394
Ni 8.36634372620603 7.370390536436122 -0.05477605949624162 0.9459618177622031 0.6812824310371042 0.30237741549650504
P 0.33480855570661266 5.552887516962809 7.9952657916977845 0.9239899414768022 1.741895395188 -0.254932077530348
P 8.73501122998069 1.7798121512968694 7.97796569231107 -0.46472072575483836 1.7101849514585967 -1.5819411539871335
P 2.064009857244835 3.618004625347829 10.214676036380322 0.6937846772691729 -0.5071961213102297 -0.2725605892453887
P 4.323595161656977 6.2762261813405456 3.662321218502572 -0.4728711227761146 1.1544973103058827 -0.17249402553909002
P 7.178248154575053 4.097440846324293 10.337200042716931 -0.19781656346427867 1.0568990056344183 -1.257714246715705
P 6.625060220295614 8.012756212211555 9.859073303944811 0.3738700242198529 -0.48525355560086747 1.4135819765520237
P 2.3726670152154945 8.59558506843212 5.577254995617882 -0.6963179852139879 0.241857503734577 0.6911348983511517
P 7.091010049445716 4.213172482868004 1.4076314470045779 0.4309652265709481 -1.6834081975853847 0.5439878362172825
Ni 2.8843030211332255 1.8266639311392956 0.34179033599916625 0.07025410833055643 0.3624406993369887 0.29076477095824116
Ni 1.6988573752426088 1.4405123812426794 6.80258703235161 0.1847450749923012 -1.3170951597771832 -0.13624404206812019
Ni 6.962019677926188 0.9210996173102872 8.911109267642658 0.10236692970470113 -0.5516232412753532 1.0852217638385118
Ni 2.823400260475082 1.8019768222660562 9.139829730994702 0.8376222154138349 0.11096058491098308 0.6035546400373217
Ni 6.611291533974574 2.195276797269826 2.4850766829960347 0.62506911707033 -0.6439374147297425 -0.39944555869611204
Ni 4.377695535620797 7.0541569584792825 10.116462139172445 0.3291276870071557 1.0401086735499572 0.3744359240256519
Ni 7.667282388370549 6.163554252868176 11.308394184048828 -1.2218884952663474 1.3874366856152234 -0.7525559817711104
Ni 7.80548830920019 4.195187591674848 8.024414064214328 -0.3431728522463122 -1.3334936557398647 0.06709499387628445
Ni 3.253544220171263 8.68784983682152 12.470618831183723 1.122670138492957 0.14010661034732 -0.6915398470990541
Ni 0.4044961389136362 5.221264335909041 10.278170442625083 0.5907281776966149 -1.2627212130119931 -0.37469869076873535
Ni 8.908057755217936 2.368305109959028 5.693341776848445 -0.4225176100242272 0.5058434639370772 0.2960306473428708
Ni 3.7906504745281135 3.0068006192751726 11.63078451387184 0.45871128633596486 -0.10341979644924769 -0.4225924291262206
Ni 1.3881057742469236 3.6044818084253794 12.368779726287746 -0.30828786744366904 1.0733214128564998 0.788849416885506
Ni 3.111795958747122 8.71164453084062 7.864611703914464 0.4263434115282206 -0.4439259004966742 -0.5656604360947097
Ni 5.819073012895553 8.41296784919791 3.364948555299791 0.3365134379482656 -0.8806786802836768 0.28035694536135586
Ni 3.2900694852729098 8.488741155333736 3.5918969377271805 -0.20253685175808345 -1.0292658172981823 -0.29867117028951146
Ni 3.947487832006463 4.6866532006341775 9.227487635356447 -0.6423207050619261 -0.0419172090590762 -0.7789725240914263
Ni 5.447491501433898 4.805872540128258 11.385029854334523 -0.5675589386690031 0.15102402859077216 0.1623188847783011
Ni 8.483969467746286 0.3055755948416647 2.1347382875725565 0.97533564293863 1.189422661428158 1.1969855613770803
Ni 4.602456591028138 0.3389309659563049 1.4060460446973733 1.5649803577630788 2.185732849735926 -0.37739654931587263
Ni 6.491234417270483 5.798019307357031 0.22203190508299175 -2.1327074465788303 1.3992023107915839 -0.40902343219253423
Ni 8.049736791014293 9.340851640654476 11.357588097569673 0.16089732184042613 -0.4640203572537041 -0.3988665462641905
Ni 0.2434052408396796 4.781057943418713 5.755689703193856 -0.35282811594788915 0.48977869716473077 0.10701111334493184
Ni 7.441037010297647 6.388224245535298 2.382584658252693 -0.1450922364873695 0.7975783121180716 1.372615304331675
P 8.930331701475385 2.002041662526135 3.51288817243139 -1.1208752513760631 0.1369364401494545 -0.1785947391201892
P 2.153961632032685 3.7260960979872073 1.4355266962157156 -0.6759679608027261 -0.48532451804811905 -0.40324050696217006
P 4.83745309843604 1.2152777995862025 7.986348928175587 0.2765704817357301 -0.4313799455108635 0.18729586643861293
P 8.839642318491766 2.1570213401040275 12.353199802063761 -0.014167035529001407 -1.7686130136885025 0.1975370845506469
P 7.020354469310169 8.28598996423721 1.4151350167985834 -2.939485680028615 -0.8240825290561872 -0.9335606158843728
P 2.3885665696576472 3.2868822893652623 5.8625135824893935 -3.708274321608504 1.193167473182571 -2.489123279877978
P 6.987744902037918 4.236939858065037 5.899977704442693 0.6881992127615953 -1.2724541240290408 0.07836799568694246
P 2.7550394613930425 8.792490031606617 10.077317909662113 -0.45306977177947133 -0.06536618411063581 0.8171634333388508
