# total energy = -381168.62697474856 ev
CRYSTAL
PRIMVEC
9.27585717132350 0.00000000000000 0.00000000000000
0.00000000000000 9.27585717132350 0.00000000000000
0.00000000000000 0.00000000000000 13.57615458824188
PRIMCOORD
 96 1
Ni 7.740257696647521 3.932750161125536 2.551570367488917 1.351461295961879 -1.942773885407054 0.6864927715934499
Ni 4.85565158568674 6.8700895209795325 3.432988302920791 -0.30936156012382204 0.4601521325475495 -0.363729079131109
Ni 0.6543625722422505 5.029221427954082 12.372071714050714 -0.07215929577306929 1.0693896819022615 -1.1338598365611892
Ni 7.209289071643928 5.917106491113018 1.7599993136937309 1.388591625155273 1.7720804034118127 -0.8586461259636695
Ni 5.313331661964686 2.655817090037096 3.3327830714091595 0.9434621912688009 -0.015887103543901673 0.529220705210437
Ni 3.727679507382141 5.888490471265073 1.3726441497260586 -0.39704491967441946 0.41081729086816343 -0.2013924537409951
Ni 8.307569130650869 4.311501967424175 0.10625494565906408 0.47905488298932336 -0.5753558090056027 1.6019096266892605
Ni 1.699235027528441 6.488016957758506 5.118156492815713 0.8329641478165332 -0.7441901263049184 0.053961284707803835
Ni 3.9315164721012974 2.424662725495509 8.006904274072152 -0.21614955744551162 -0.4562777371938077 0.3467788244300157
Ni 1.9089807133636885 4.387610376776651 0.5732535482058102 -1.001236936185424 -0.6027923079500005 0.6480954027621741
Ni 5.9170786635410435 1.620130516259956 9.913851719510177 0.7787884331050782 0.23877012305850492 -0.45843000765012015
Ni 5.036651389671491 4.224781977291779 10.363181669024065 0.4987320497032765 0.8480277270178751 1.1174821665341141
Ni 2.060511118626584 4.140241813630784 3.1705752267793366 0.5230873386191894 0.9204338486944277 -1.956951976679649
Ni 6.408003412472162 2.085175623254035 7.438049337409906 0.06124444863277839 -0.12834921270107574 -0.3756065472949854
Ni 2.667124360116398 1.4951754422334824 13.33758086164905 0.9583033700466915 0.17632034126371568 -0.14277001611209603
Ni 0.7224028408933518 7.897715374741158 3.275166083634277 -0.4418546197899423 1.2694878423118652 0.720189906735579
Ni 4.880074918023738 0.5186020520177637 6.790643658161484 -3.088663656549584 0.19255480084470708 -1.3295105027224006
Ni 0.8063623358857964 9.091889246775022 9.113822011420229 -1.0000524289590198 -1.9662436863942199 0.14703264804319194
Ni 2.3751018198074796 1.2071786240036595 10.9616182422818 -1.2828398381387391 -0.21717054251085824 0.316405611454797
Ni 0.4732124993688332 2.762480173418465 3.873982967042341 -1.2005915335607837 -2.0701566204298025 0.34350735276759553
Ni 2.3484522817124565 3.6296058678838183 11.75377367508847 1.2171700067447553 -1.649363706406166 -0.887355320972904
Ni 3.7521584948630897 4.88753270731312 4.497114655256699 0.49702612275576336 0.49689653915643456 -0.17808257537046104
Ni 3.9147457220575097 3.4704136044703873 0.45150328288516023 0.08954715223221352 0.7684196882762444 0.4912126013977799
Ni -0.12692155577939537 5.737043548718103 6.617519984631479 0.5063931657929601 -1.5129689976927945 -0.06941387181744821
P 2.1351724942363446 6.490864645957314 2.8851775037720078 3.0178827291812804 -1.3641180654939409 0.05270041571750924
Ni 3.498704969311954 8.090718138104592 13.10115224463241 0.8371614737273325 0.34263086369991314 -0.8119363806119565
P 1.567694094801144 3.8619846455923192 8.288433036989181 -0.4816357563426222 0.2202440392298594 -0.23495614862905342
Ni 5.670739720558261 8.423573002358618 10.312026243461851 1.188150993804586 3.182322774067642 -1.9842478362811249
P 7.879534694383954 1.9958212896413101 1.4833171862290695 0.17863664810171817 1.7429122664882888 -0.797828994676297
P 8.272228114242223 9.395701401744146 6.9392883442105395 -0.38338696257135263 1.117725650003488 0.3318278595471382
P 2.152722416295441 0.5588731865947018 3.2890817247933977 -0.3230560268917791 0.048492291173432615 0.25812461632571676
Ni 6.214778028532924 3.449654235776805 0.5650759523879987 0.6910371964310228 -1.2887366632391482 -0.9276779318513507
Ni 7.253989428093604 5.199071651434057 11.753583520013303 -1.005567445239978 1.31365322397517 1.496744565414132
Ni 7.2698511441195315 3.9255335441266053 6.328253301533849 -0.5265130764712868 0.6729489714707443 -1.8681604716665374
Ni 0.9731580195486156 7.177983053171704 10.647546989111111 0.6236089875850357 0.806884677120662 0.7467069791895011
Ni 8.437811443352652 3.7795222739721464 8.282119888493714 0.6457009343880686 0.7949719848434761 -0.3601570455091346
Ni 1.6372908523113978 9.254921715121046 1.0997716168648175 -0.3724983406833069 -0.7780196732598537 2.2456056148321584
Ni 5.397769791195106 4.136132608835762 8.103118104176792 2.026593905347503 1.2068611686195794 -0.5199086837808917
Ni 8.57738526852349 0.30189576284575853 2.502085523830953 1.3658257922136672 -0.40403420650805905 0.5387397004444656
Ni 8.07878938558451 7.083786722035274 4.9223607688116875 1.110523475828094 0.9151587163384175 0.5858405105870105
Ni 2.251204193516068 1.1268125961389601 6.109894054586511 -0.12913905559222275 -0.29410463396475156 0.32060962223381556
Ni 3.052128094252156 5.725420899489747 12.089796244619015 0.6346099666812297 0.9950128096525831 2.516386486469305
Ni 1.7110060904739979 3.677738291543782 5.51430795228478 0.35683518022475313 1.1320644352236633 2.0599637390572005
Ni 9.36917244979435 4.996709548029593 4.213034103989535 -1.5330693679870953 0.06485633435375282 1.1536123365977682
Ni 0.4627743771208939 2.793582123029538 10.115742609362528 0.11271279171539944 -0.7277162970196113 0.6305887613369785
Ni 4.069949366821146 7.210689726100019 8.265231335061898 1.078602201639465 -0.6748564729061023 0.29997523381291563
Ni 8.187632295437277 1.4637117341867303 8.665930747377464 0.6585441088993239 -1.6142840890942134 1.0439159631111892
Ni 6.075324789507314 0.618271138976004 12.112156626286911 1.57899929774999 -0.2265877220597001 0.0674354079348387
Ni 1.6615472192165444 6.813460412009774 0.3954288701834427 0.3058826004362861 -0.04548615735725715 -0.014052107217691928
Ni 3.7672966940176598 1.5667479573539833 2.0176473819272793 -0.7408415215476597 0.06141954075806197 -0.15604205063065385
Ni 8.665867671547655 7.021081926517573 8.615780824749292 -0.558363131102348 0.3436186815344792 0.44750976119319064
Ni 6.801921245497344 0.21233272244321869 5.399657428160765 0.23273934348339273 0.03920186701044217 -0.2821788290614431
Ni 6.9469863782046435 6.256111248773587 6.929920655897917 -1.256406840758191 0.09092783462982405 0.31128140285435424
Ni 9.102695620558768 0.6511614738793571 11.274385309912581 -1.169373713197083 0.37329126889824743 -1.0621132028455065
Ni 0.5790593073055927 2.419820727971805 12.796110110981976 -0.29295072286596646 0.06148407544741024 0.03150526969713283
Ni 4.800265441598544 2.337664459643361 12.220303846840295 -0.5464879769313168 1.975107307432437 0.11997307282223853
P 8.637733996280614 6.748455203875446 12.346033454953416 1.6869807454279915 0.8387673847618715 0.39577145227863453
Ni 7.651895879768582 2.68343131729393 11.847014592920411 -0.580435280411039 -0.08784559616007451 -0.5598281456836488
P 7.032259334594323 7.634373785281461 3.213924090816744 -0.8279306991576838 1.0749882590359614 -1.275535591167842
Ni 5.7396222370544825 7.375197055760736 0.9043636236969832 0.18058965806303093 -0.4386299422050575 -0.8348593079567169
P 3.2680329493512725 8.08104341891451 10.86161615204559 -0.6355841576690409 -0.816938204701922 0.25200307680901113
P 5.00230288999663 0.9015743733993244 0.33380007411545304 -1.2745575435252887 -0.47444386657987314 0.2914916218219367
P 5.469212444313055 5.418983676897619 13.223392275219826 -0.7138747631508287 0.2887842501931026 0.514060709640547
Ni 3.1797638910455843 2.370482442859578 4.319199073832546 -1.4518834432353833 -1.56760159743601 -2.3947614798659402
Ni 5.028785462659801 0.1743916832263466 3.720463817968943 -0.16861654486155478 0.2626394734769348 0.9779152307403481
Ni 5.158434120492777 6.722176700073428 11.26165141297668 -2.429717427115835 -3.855748685174805 2.602284986205338
Ni 3.739886535621978 0.21738713709966775 9.259589326527038 0.4510823090357973 -0.30277953603093016 -0.8758020689176659
Ni 5.493144156211823 4.66629423425207 2.296393387646776 -2.642607082863152 -0.3652851107643193 0.14154180013194978
Ni 8.761919174149105 7.66828631966204 0.7631943510662283 -0.3541090395428418 -0.6510431725365885 0.29928386417284586
Ni 6.4464240135127415 0.3041590720330838 1.893615255704654 -1.5635251133737913 -0.33643784751532385 -0.5476200336532311
Ni -0.06915615428731142 2.282139177695289 6.460647613135056 -0.1665097829311971 -0.12568400716408676 0.2820109360250111
Ni 4.679716399801495 2.8520849551789675 5.709099100940495 2.0296632883014465 0.8197782452538784 1.633650152325651
Ni 1.8583901875125721 1.5529176540822536 8.502392744807223 -0.11957583738381988 2.1142852353179005 -0.8072330615990162
Ni 3.389435370022231 4.835968216442869 7.24627284238485 -1.483486414852645 0.031001076367204672 -0.0891080078122659
Ni 6.8079783803306375 7.874432972855147 12.488636775126633 1.1371464777322609 -1.389691285977355 -0.15332645147170368
Ni 6.2720007923714896 8.68234159415704 7.996843679217345 2.249998601693531 -0.8280196593270642 0.6028427015719617
Ni 6.622312820111359 5.498533429317709 4.045775555046194 0.3637481052945026 -0.9403966649695998 2.207827110531804
Ni 8.14678141977752 0.41387484006014413 13.511437327907737 0.20754098984089422 1.5049913788039564 -0.1227110405786919
Ni 1.7035297494699642 6.4247556108012995 8.046478791763976 -0.3422485406598299 0.7059619360616551 -0.3514746872437883
Ni 4.007856777886902 8.420818072733061 1.7749733301736461 -1.7524232913025173 0.9282587440554853 0.7055870692207397
Ni 0.4559195185576422 5.09161084432273 10.009034074280265 -0.3279735187980545 -0.38126914489740144 -0.9920069329467237
Ni 2.9535164550289776 5.613943646156651 9.891857734206624 0.31468811454305806 -0.02715727714108226 -1.0285842178501254
Ni 7.4826485870147375 2.3773836807094555 4.4423082522513235 -0.33788512148481165 -0.021943079929994464 0.3216684025156331
Ni 9.156161662180665 9.787328098010029 4.8010854273860835 0.7309335184053283 -0.09743272562787736 0.13060741260763312
Ni 6.3455490651022375 6.286369095368076 9.342227011850657 0.552904421980622 -0.7600214369102202 -0.6146011276594706
Ni 1.300512300408854 8.802389739658532 12.530248271087048 -0.08691794213948256 -0.48026767235050183 -0.6286491211121044
Ni 3.2642576754199553 8.411301043117506 4.935122493319566 -1.1633827857209704 0.4372124930322406 -0.27699008577165196
Ni 0.35575695598970625 5.765910016713827 2.135190118365262 -1.1114387885535115 -0.9990556122633891 -1.8104633740653853
P 3.9965495078076 2.3995622555737786 10.297106026954422 -1.5720251804250025 -0.19277694415784216 -1.4306029365900523
Ni 0.8797519914562852 2.2009661502433056 1.6559789220642844 0.13305613125844182 0.3659739093012278 -0.49072769134156125
P 7.858524877542594 8.654783022044155 9.961870050125041 0.019850459067023877 0.23339883144426257 -0.5870805536416985
Ni 5.336345063988269 7.656357567141956 5.670352917307803 0.22757759677679518 -1.1463397141957548 0.5023074257593607
P 7.431445854580165 4.1409003995008655 10.075964022809552 -0.21097495522310764 -1.367743320951354 -1.5793456253458156
P 2.8413806158257975 8.504449202376199 7.191085201643412 -0.8301354201184864 0.639593278828434 -0.6386738523379583
P 5.169249770133849 5.128973997628249 6.036012778577791 1.8061886579494313 0.3899625589063413 0.3442956529968458
Ni 0.4561662563624899 8.022058242184174 6.458923231258319 1.615240796580528 0.19328807946630583 0.5985080787523498
