# total energy = -340888.5466134696 ev
CRYSTAL
PRIMVEC
9.09264350204322 0.00000000000000 0.00000000000000
0.00000000000000 9.09264350204322 0.00000000000000
0.00000000000000 0.00000000000000 13.30800286373456
PRIMCOORD
 96 1
Ni 6.73956736298453 2.1940185000205275 11.358913029658567 0.43062995471871646 -0.19324154249908654 -0.25934254789321787
Ni 4.816345970945947 0.7186716291170283 5.843517354215329 0.2989953863981496 -0.9515115439358387 0.19878895467987698
Ni 2.888596442456656 1.6027420801074959 4.7471909617300625 0.17066519986046735 0.18848088788564957 -2.0601635137728325
Ni 3.472007725763537 4.758634962808099 5.000522010860267 -0.020102941397462153 -0.7525025028253556 -0.07082977832836834
Ni 3.4703528646510287 2.6556792871928896 2.669519199826672 0.8582095526468833 0.3326896933268012 -0.4926138526206807
Ni 5.250237824944686 4.262231184916543 2.8162399134731113 0.015778860100811535 0.8551401696929403 -0.4373683018838145
Ni 5.797933204680514 3.1391442334190653 0.04252083794798088 -0.4859996897382727 -0.8682733646407886 0.48722764860810286
Ni 5.797442201932847 8.199182142147032 12.385159691086509 -1.343329410883364 0.01567473042277946 -0.10702679707421568
Ni 1.8752667903497513 6.747596167173237 0.37715557724144394 0.5433931400560771 -0.007968620027773373 -1.5386823432984984
Ni 0.5868228431388204 0.12752250621265124 13.463839990379226 1.0207302690233453 0.4212644543434164 0.6017476687355701
Ni 8.382689872765916 -0.27186913064768486 6.523423407139684 -0.34720948420953107 1.233516823533895 0.3826991924757086
Ni 8.834112343385069 2.6012870939235317 1.2054708477056042 0.31787191158767836 0.3540110805123967 -0.1383412909167811
Ni 7.006090928533074 0.9218576587451974 4.645477924022104 -0.3508272834677765 -0.7676319022676265 -0.5626270485850245
Ni 0.8961309332961304 7.617889444769901 2.5379959304848803 0.5235496229675887 -0.2414129599979907 -0.879933060366904
Ni 7.817372949974921 4.098427212708676 3.620934314717088 1.4462069616758964 -0.15487476979543005 -0.7350190013286115
Ni 7.824174247294459 4.2627221876642105 12.56023945046812 0.24546836101428696 -0.21532397622042274 -0.3359269693171763
Ni 8.67994657326104 7.534937258344567 8.957855946969378 -0.37795602136376844 0.7974950083756459 0.31546227370492125
Ni 7.101909205475985 0.6957763528461756 0.18245389324009476 -0.19192205235671464 1.633236461827 0.3394023294602865
Ni 2.13733496059539 6.643349009728706 9.182428783315844 0.07101566908692931 -0.2225472334417393 -0.543201078649929
Ni 0.33635506743899335 5.328470929406328 1.3964218162733841 -1.4004076439535946 -1.322921279540657 0.44486820980528546
Ni 6.668717485024846 2.2808168746359208 6.85125230279187 0.5176425134545344 -0.24322481639574886 0.14730338520607533
Ni 3.8468246751031288 4.254984348066714 0.7032668725411432 -0.679012661166321 0.47823315841897635 -0.5770727916967093
Ni 6.3063665498899155 5.691676573027938 4.556792825885582 -0.23914858944384615 1.580396178097517 0.9235981053550224
Ni 5.71098025512604 3.0422530245460684 9.1311262702994 -0.08787464962579705 0.9484437036437924 0.541313631819229
P 0.25230721747488394 5.835722230963939 12.32356976124209 0.6547370764484078 0.5225574342576484 0.14303689662023752
P 3.8856411700992646 6.106401134580704 12.529870930524902 1.8833112112650467 0.9289974219937226 1.270835100368379
P 2.4212527531122197 8.664352689700866 1.175051408958925 0.673118664279389 -0.02774271733090706 0.24463609492097868
P 6.55890562977342 7.803033851214342 5.688465960616803 -0.5393158846629099 2.309691389568474 -1.756503632019478
P 4.601677751137145 1.1986650040643279 12.59573167500968 0.9513832458880906 0.9300831988587338 -0.38605756742498026
P 4.531318875925129 6.455494995528619 8.1056379353373 -0.3189792857192442 0.24008318544297363 -0.049885057755901185
P 5.0642296173700885 1.3749168051899079 3.555272699124421 -0.31400240132994306 -0.5026671230916246 0.3649773497159134
P 0.7131314814475165 5.823729034219993 3.7929807682353336 -0.3578749343431772 -0.3824012016193156 -0.2914504841713561
Ni 0.8061846855095817 0.02481837036588269 4.518226378585017 0.7567350528494644 1.0672991179218199 0.12969389965442826
Ni 2.498203794843843 7.060337639506827 4.274623548709056 0.09409826193800569 -0.46425664163422625 0.7609737735211604
Ni 6.636011246444124 6.215449207780202 9.346090910285497 -0.6898418905713409 -1.0479474528680854 -0.8307645690620532
Ni 8.919665025844344 2.6272829616194686 10.067158450958273 0.18590952761404758 0.7181991015577953 -0.06205306057700281
Ni 2.50312291496399 5.69957808020799 7.037232323171694 1.776205995544412 -0.39662043054249113 -0.6495213365754234
Ni 0.8380962270505606 0.4536901759018974 8.834265099795454 0.6374947444281924 0.2672648880640881 0.4542275395329984
Ni 1.605169815915406 1.1997561212813663 11.180093466015558 0.11467788586157023 0.12208060608354458 0.1352971047738186
Ni 4.203410874274707 7.078995743918181 1.3039369024285266 -0.3192263687330438 0.2836528425038083 0.059038185010078965
Ni 6.028313512414667 8.156946813204177 8.09472585390257 -0.12454449424300487 0.5748364461670229 -0.5359860489587285
Ni 5.325006632242232 3.008719355409093 5.026379670375379 -0.6255018337323743 0.4260289656115953 -0.783096830672445
Ni 0.9285771222734581 7.213839646657159 6.141989741143103 0.07279153004042947 0.4753681781663555 -0.6829348790388625
Ni 5.535237642035078 4.811745093347436 6.998053031700892 0.27681962163205875 1.0375103166951616 0.06778919172983164
Ni 0.9647840285921776 7.702723808394625 11.131518746041708 0.40597461806388146 -0.8439067628709659 0.312902483397545
Ni 4.936250660454976 0.4872247543032207 10.463364025544857 -0.37833500196974196 -0.05334576261099199 -0.4261014707207436
Ni 8.346701189890604 7.459768374734106 4.315399508374123 -1.1843375335957669 -0.2819276322825854 0.9220366744051733
Ni 7.553504436321168 6.622026760779084 6.9684164695574395 0.42600633990377595 -2.202960269357806 0.28221379606443653
Ni 2.5985683935244115 5.50802336011345 2.387376291316224 -0.017897191995394985 -0.7389137083973274 1.1671625644783772
Ni 2.3482115480749837 5.463151164562751 11.40296234097475 -1.154491910989244 -0.9451267234554175 -1.244870043763185
Ni 1.2381452620341624 3.094144740859713 3.4140884960901032 -0.7783850270190724 1.9635232021392637 1.5852365369089536
Ni 1.6626353226794208 1.1462004512117385 2.391567999958346 -1.0171816324401386 -1.1108692892032868 -0.345761696019411
Ni 1.442575165289755 3.92102064586173 8.202507321865955 -0.3392444637261835 -0.7731001244710493 -0.38276835515074725
Ni 3.906881585257609 3.304293916861281 7.23498913538075 -1.3319224545980028 -1.1609551501160844 -0.25152408029006357
Ni 4.462914919060305 7.149618305790982 5.866593574091341 -0.1742539456529902 -0.05315730074926974 0.14133482632746627
Ni 8.349347149141922 7.293491203500952 0.3928094722485528 -0.33792934445918577 -0.389556067496542 -0.8336092375996997
P 0.4301693257599427 5.918810807041402 7.745683821022464 0.21556540280726744 -0.44841633216786 1.6481025803055551
P 8.695940533134124 1.6179358873547536 7.554607373974724 0.4104447380200931 0.9717263283208167 -0.08910286560594331
P 2.005118831820779 3.4149877585298123 10.228823833420746 -0.996386292961342 1.272976057970782 1.2671566230755276
P 4.451330891272749 6.263967553364504 3.679410014171211 -1.1908573369921556 -0.44013223778219684 -1.454495941157566
P 7.182206340006525 4.294310031097468 10.316976102649615 0.330193923488141 -0.3614220282644872 -0.28705749730998303
P 6.822064917236097 8.484181959237425 10.253683120682268 -0.6118796149632494 -2.0136653702112937 -0.10972079896661104
P 2.646459346708916 8.607932836936513 5.7574945820883805 0.3585835303744276 0.7438587111074285 0.3475079892865564
P 7.138779874768402 4.290336545898755 1.4350019025391618 -0.2569401090993123 0.41273533382648275 0.21865689724839762
Ni 2.5532051952260466 1.9412521040501396 0.2476390543146553 0.9240439346431892 -1.6460384986876748 0.36322385735991636
Ni 2.2927100523016377 1.355894995039541 6.885454281224282 -1.0462194144333852 -0.44227268116396734 2.375482062811038
Ni 7.182970122058451 1.0655850741595618 8.965149156300932 0.01888243872679974 0.02276866115508337 0.6585032283590595
Ni 3.3354725913381493 2.039334449218404 9.53779202193999 0.6983864377072423 -1.2811495949205098 -2.1393128677104896
Ni 6.675964321874675 2.2581307291650003 2.3432469647374594 0.13455739839431666 -0.6079645961795593 0.05893996886931784
Ni 4.405049335983376 7.023412414353557 10.326557930343906 -0.19324925580857039 0.6212068059014463 0.6595555808829738
Ni 7.290199666562886 6.587374696494644 11.526460443185224 0.9163169983125767 -0.4948561116876381 0.020901011818725293
Ni 7.822873999277488 4.362532135092786 7.910848961958588 0.4894292842451119 -0.7622508404613711 0.6154066542799014
Ni 3.132879402064571 8.633819592910747 12.420279117245581 0.39090563954590096 -0.3617030498400158 -0.5111065121082295
Ni 0.16538063658648863 5.443629259021241 10.07564825217118 -0.6748909256884635 -1.4401530421723328 0.15392577561859944
Ni -0.3023822236221597 2.369306480937723 5.382554882061872 0.7277862310255983 0.5381056664048925 0.9583349946155755
Ni 3.6979417308382585 3.0500363273609414 11.743354542116784 -0.46397793405154286 -0.5769313810228386 -0.19182717865006318
Ni 1.1965373254911031 3.5177800930182914 12.495668952092492 -0.6646713048429843 0.8944500230361563 -0.7889759151610412
Ni 3.724401323351436 8.75944355516575 7.821539199215311 -1.5512025872526962 -1.2997276150330133 1.1360362753872177
Ni 5.8059529162257455 7.984104753381841 3.456727538403263 -0.083699692312501 0.62125437130993 0.4623812789883843
Ni 3.5610883538912352 8.82515608956188 3.021009881594681 -0.8482339294914102 0.18606867889973117 1.5787972090415132
Ni 4.0336966838078805 4.778893372471109 9.352704899149446 -1.3183853393435165 -0.4961900000077132 -0.7846060682281197
Ni 5.214012733339016 4.658797737449098 11.330007516050529 1.4943323564282136 0.781667554425086 0.10655345698222295
Ni 8.154737300839674 8.949243395069557 2.0966626570659415 -0.6750750166748115 0.5052315413846912 1.5934946631526878
Ni 4.9487894158074415 0.5605396479090637 1.3948387870443313 0.20355398016868817 0.29937848076918117 -0.8579105333492257
Ni 5.912091343513141 5.781093628964223 0.14208255620967924 0.4742219803770543 -0.1211488382978946 0.5786663614360743
Ni 8.28607144319718 8.95388064324197 11.681499107082885 -0.590046321138242 0.45001118745880564 -1.4803144448825667
Ni 0.17226103990426236 4.86264571152227 5.800186361733698 0.29799239905493197 -0.6044717525349526 -0.689791754059696
Ni 7.426816634779551 6.443156278332612 2.4410738066240674 -0.08776229241764885 -1.7912443779347733 -0.567178672511449
P 8.683010794112223 1.609361524557528 3.2862513844132057 -0.2587123705083867 -0.10107237926299367 0.19415145590786564
P 1.7571442589618846 3.650832744992632 1.3510022435854716 1.4200382737003285 0.09104404849271418 0.36761221623559914
P 5.032341716702146 1.3272895386661878 8.032404875522735 0.22009800057029838 0.3711647094735479 -0.023986335612268365
P 8.863799824331986 1.8635190949796392 12.380621552727979 -1.2080137941667841 0.23258841972782524 -0.6085842320414293
P 6.281079908385054 7.810798968742264 1.2469314834243628 0.892580059706953 0.47771199580818363 -0.4296737614530342
P 1.8422514018908687 3.151910304858413 5.907875084733636 0.5678723561443639 1.8352814615503295 -0.37262792428263564
P 7.129350803484496 4.111702472182641 5.670380692744394 0.77900414866031 -0.9267795884067974 1.248049212822115
P 2.5651892993265166 8.55763233323105 9.93659354623878 0.9130488690842663 1.4994892180388046 0.6020662284172534
