# total energy = -340889.6658376884 ev
CRYSTAL
PRIMVEC
9.07769044307261 0.00000000000000 0.00000000000000

0.00000000000000 9.07769044307261 0.00000000000000

0.00000000000000 0.00000000000000 13.28611755045008

PRIMCOORD
 96 1
Ni 6.794297320504277 2.065101970625268 11.636087804685372 -0.9009266318994354 1.5180597819521404 -0.6625249479239428
Ni 4.611339693923512 0.5051516906993067 5.8596564895477075 -0.9156508254834876 -0.8569854504317951 -0.5917825871030583
Ni 2.6882854244760614 1.707922081933831 4.6371875098957585 0.12357698812341299 -1.1555180382609131 0.4718028294126003
Ni 3.6185671484473545 4.294446595737388 4.645224897077688 -0.6383172403294878 0.6367699504470259 0.2742030099448181
Ni 3.7328552720304793 2.5702482147102654 2.8141857297659 -0.24799112743614066 0.7515067145709896 -1.79187352687834
Ni 5.078722745466349 4.612301929118095 2.4670457667839893 0.5675275712104354 -0.1674397509446342 0.006710322140640056
Ni 5.474346653488567 4.626227106368017 11.879968130290763 -0.4704586566798801 -0.055178444944356586 -0.5371121921433717
Ni 5.744217314807289 8.370874298377405 12.0958410573504 -1.1927879783559652 -1.0190472248939675 0.4592003101572414
Ni 2.089448336586343 6.653048456091773 0.05775680590132078 0.6381467761898945 0.44001885213278413 0.6058256954596857
Ni 3.06567225225376 2.1656646261497996 0.06085411390501912 -0.18380045169084475 -1.263898778259862 0.7704693717164214
Ni 7.8776561396290425 -0.2258847119285683 6.801588521525878 -0.2573262887941375 -0.7060997471911 0.643300295366376
Ni 8.688548077947814 2.6482800423767103 1.0490342557496664 1.552735478957455 -0.748442473823369 0.44781186581464166
Ni 6.882550627690546 0.7686007937477579 4.819738050613146 -0.06914467731646157 -0.12483451467959791 -1.329839089706413
Ni 1.321049067568017 7.595240110018671 2.4528963705783484 0.8769485238172832 -1.435285429667386 -0.17062894730589323
Ni 7.647963336529457 4.000601753768704 3.7385805714382534 1.4669629632763252 -1.3734041187815573 -0.3609962535809783
Ni 7.811688562656956 4.3115852754296 12.729960404964544 -0.582870629325409 -0.6763047753168546 -0.6628939012275873
Ni 8.178545269437322 7.2640133385094545 8.856459934940805 -0.26050108697769325 0.7748541310476784 0.8519239767484877
Ni 7.308003826744864 0.45617028821878064 -0.060132437509081205 1.1813949060276752 0.0905236572128699 2.098562425266005
Ni 1.626005002726991 6.773309700033729 9.23091557645123 1.3602035609308831 -0.5437183846059798 -0.30743271853222537
Ni 9.524131334467228 5.092439135834427 1.0172596156402136 -0.05338947136473386 -0.3280851046752543 2.3009488674891534
Ni 6.234103961136667 1.9230905802095097 6.798905156209661 1.2414576756475264 0.9753834654574298 1.1225973762734924
Ni 3.4626215030911593 4.502125999338239 0.25069313233685425 0.2721289010246088 -0.208968209205724 -0.30054910403851465
Ni 6.212825854569642 5.520543020519108 4.6657386621033545 -1.5866719838038994 1.2099881442843354 -0.013672612391086131
Ni 5.479956666226801 3.256430840734759 8.844874078536584 -1.1930412320173518 -0.8776576340691659 -0.19432963335694273
P 0.37477517621654993 5.727223878163317 12.218126626277188 0.2967736961564824 0.7132291591470297 -1.2353099108785757
P 4.304704386019273 6.38176167505272 12.747326026919628 -0.4802792423147277 -0.09325416877015552 -2.753958989675283
P 2.8611972734046835 8.707375208075804 1.293925836078421 -0.9712337049551143 0.2853407717291925 -0.06548162664257753
P 6.313842394619922 7.780334219618346 5.596259129335191 0.13916944324503128 -0.09292815288930446 1.023132964927567
P 4.896006990781588 1.313215020653622 12.393569335321377 -0.09092474930603049 0.4208175966139849 0.6622439263484142
P 4.00669288410423 6.352213792426583 8.010000697415439 -0.4228402834709686 -0.9708578096729344 1.1446271023800223
P 5.117693270846996 1.1150127259503704 3.4947138623686356 0.04070827635263957 -0.18682381189820083 0.5833046315390341
P 0.5204712012123234 5.6673746645983005 3.348938861465382 -0.8132887808747928 0.45403599234748265 -0.07078092736830391
Ni 0.21944499827726818 9.029079482234847 4.898697618250218 1.0619851619080742 0.785280468587325 -0.2305197101242546
Ni 1.9532012796475735 6.537326057407288 4.7873070934794635 0.928130446007737 0.10655268565127457 -1.4007593708660586
Ni 6.164623317935299 5.819852632177788 9.277416953883074 -0.7984208626240249 -0.15367226484689664 -0.37554509792943064
Ni 8.468250684531192 2.3403284693478055 9.913223844163946 1.0047611472885987 0.10312052004127403 0.7115936804261358
Ni 2.1892938545601943 5.003305292668208 7.067138202159486 1.905846930473718 2.3098927069460027 -0.76833895563698
Ni 0.7922463620010798 -0.09438074828385574 8.626184344110161 -0.46041052841525865 -1.1559201587953383 1.3721229380762885
Ni 1.892335364744885 1.3844839688864345 11.443877693491034 -1.3804250301840806 0.7293160374065634 -0.5601310216360483
Ni 4.26190307524132 6.957559584415514 1.4559725972297086 0.7750536486529943 1.0973110909028778 1.1604522423377368
Ni 5.5863744321334705 7.896737445091451 7.786249242757882 0.3528795380111149 0.5357968157660579 0.4589773955131579
Ni 5.517738014149991 2.983945804547734 4.7512350746802365 -0.09834572436044997 -0.5907531173972793 -0.5598775108643455
Ni 0.9623441268700698 7.438050821061929 6.664409185771223 -1.108232108690756 -0.280275184280827 0.9056399782147048
Ni 5.113381367852399 4.848231105601447 6.752483662454349 -0.15157681577044865 0.410828346611757 0.823734401688149
Ni 0.9193340292102729 7.714430186479864 11.36711038811332 -0.3974442119953671 0.07367444686601506 0.41528381127994934
Ni 4.4694100027223875 0.5936401100699132 10.341303219084239 -0.4007923025319936 -0.2630667908223405 -0.4863706999244462
Ni 8.154925118717442 6.9674088786242265 4.614427924236694 0.8544264314553672 0.08689403088008261 -0.8758396070238207
Ni 7.511607347304507 6.197902131363078 6.810849581389221 -0.5472816764772057 -0.6208671631738405 0.15981668718173767
Ni 2.6693130512998318 5.3702981648062975 2.3024572522885176 -1.2546597761600973 -0.332487347508008 1.2191600405915908
Ni 2.5409726627995766 5.355601383862606 11.23729215159723 -0.09428955201320535 0.10367305011063437 0.17375180920559108
Ni 1.2104737194055042 3.586005472570257 3.576476620836721 -0.39904523793389984 -0.5994005086596322 -0.15492773452055253
Ni 1.4984906840635956 1.0874619352375203 2.4698226323125096 0.033750614087883817 1.1521771468131383 0.21842498374324962
Ni 0.8777028327396956 3.4488324911989623 8.11254319724128 0.5886424988121798 -1.4624645611853395 0.44509909486916893
Ni 3.673105913061128 3.1158628031108764 7.181625127164889 -0.23009573521295856 -2.352980282164096 -0.9169206933348466
Ni 4.1239403347952255 7.000478905170162 5.898610675085428 0.2021812681908776 0.40383494601305936 -0.9012688457302026
Ni 0.9757064873080649 0.054064001399842236 0.25128318222032553 -0.0925921097061244 0.799306607663088 -0.4489932877172525
P 9.375438763832472 5.664878299706692 7.912839452526856 -0.6393868192445826 -0.1646544748900132 -0.7814045305716866
P 8.62864439823971 1.3797817251996942 7.937259347781103 -1.3452765073074056 2.4070348979166547 0.05000615671479775
P 2.0376056460555074 3.33969141813781 10.304474120896066 -1.3187926020842642 0.22794912118360097 0.15002361235071582
P 4.173658845745565 6.212798621498098 3.7251346962475202 -0.5633029916061267 0.16607423805567528 -0.06709267988343928
P 6.784547880891228 3.911467910602485 10.317786554036228 1.2717241878415517 0.3481571928347811 0.514864436488765
P 6.269624964121638 7.951203588181105 10.081784756028755 0.1540198779943025 -0.3314733044211968 -1.0965598145591502
P 2.3088470386419853 8.77659259825224 5.509540859614998 0.6963704357184781 -0.4635871263710274 0.619568756077391
P 7.067889834934124 3.937747824643243 1.5755475677687354 -1.256870667768487 0.40876195100103146 -0.4501374286240247
Ni 5.274437752968506 2.82941627891187 0.7872100593033897 1.1862640611945183 0.7080499289389354 -0.44727759057772654
Ni 1.5100465840891173 1.366283199403975 6.938063428496572 0.5425711583754139 -0.05707463352580494 -2.2262583206537983
Ni 6.538152127244147 0.962634612966548 9.223475501305183 0.6434617606449047 -0.4812565186263324 -0.8605094044246534
Ni 2.5045075800010532 1.5916822548899938 9.016916284713876 1.4514941782167647 0.44265731819689574 0.4253221693525578
Ni 6.9851103751283645 1.4251429447028612 2.1094764451694608 -0.7244368549373911 0.8886077053227665 1.6247970728103953
Ni 4.079786448130546 7.127739048499139 10.447418697896758 0.28207624204530773 -0.3343254291580113 -0.5231413317855765
Ni 8.617596848883025 7.241146636102314 0.31288257451662144 -0.38687389267868855 0.7193638112898579 0.20935464601086523
Ni 7.6890580414906 3.96191263679402 8.212002913368245 -0.5764014766612976 0.26724920433480426 -1.1370611171073064
Ni 3.206494465212061 8.664728218036606 12.280119082572782 0.6729499999120089 -0.5026699513051021 1.0093557086378164
Ni 0.12980552774936682 4.891341057856908 9.889893271771491 -0.14621323746569012 -0.10350669973609915 2.42328966921262
Ni 8.67434149229193 2.6091461185667937 5.845067733121144 -0.517742015146876 -1.1216373263530683 -0.02663842852313477
Ni 4.0398446098648 2.9818579357292974 11.131720426446556 -0.053778993493668666 -0.5095898183533869 -0.38171703106809746
Ni 1.1804084084200153 3.7332183796510767 12.449477923433856 0.2584372624701291 -1.543996299312244 -0.3957958777586667
Ni 2.9769015167081387 8.308655807587991 7.8072014602354205 1.2440945990497412 0.8701854940618368 -0.1561119846366408
Ni 5.782815654876823 7.766654140012327 3.482291042898937 0.04314645348048698 0.6061283143017691 -0.35924867476225225
Ni 3.3689578923579844 8.57521311186876 3.5553646360061197 0.6141992642353615 -0.0700137101849762 -0.014729850011006889
Ni 3.3971804321689403 4.4370208029650735 9.10023314379812 0.5769738042249999 1.358805652142092 -0.022195048039800484
Ni 7.557903568930713 6.580563097329958 11.31217220511689 0.8409412524847388 -0.29178112803789746 -0.8395392299308897
Ni 8.560716040116397 8.763030528622917 2.539309629897239 -1.7977888639215103 0.16100556528351626 -0.24943403053025429
Ni 4.926970993128057 0.4912864262067837 1.2470686131783915 -0.5059987585680189 -1.488760775877707 0.0900631726366836
Ni 6.42024200514556 6.183976954113156 -0.0696612892426162 -0.4848540061696037 1.1534511284295552 2.515772249924074
Ni 7.937941082338775 9.049095789820294 11.066977429924936 1.1770062900416762 -0.06308201606214942 -1.1076739221944407
Ni 9.41873934758875 4.855266315750527 5.575904223893535 -0.9440607440847483 0.6655920168850408 -0.1889801961195713
Ni 7.218706585149376 6.017691819260442 2.346753658694282 0.8285886444566568 -0.08155873471009825 0.1463839587155995
P 8.621000982826127 1.6687790804333993 3.707690098384956 0.3573008070072621 0.3409804725806837 -0.9254385009978706
P 1.8135410110751855 3.2923966505549607 1.475515957139328 0.7033491810291564 -0.151961452803377 -0.3913383562079454
P 4.6321094498217 1.070822528523631 8.037104865754953 -0.6047401757049908 0.7288239282614932 0.25720004762891835
P 8.949377359513653 1.8151477622963301 12.31144800807795 -0.33808155376633386 -0.8152711014121443 -0.4047402314361482
P 6.758004713825536 7.982231134361179 1.4270619684777202 -0.132772538579752 0.06695049787862019 -0.5426274655346461
P 1.9172536252084018 3.277999433398262 5.727512548721692 -0.7181188831391633 0.5574717296363303 1.2355238266615949
P 6.984057363028631 4.0390003846469105 6.064342070816731 0.696338039818646 -0.3200064414321779 -0.17581100572746497
P 2.4058330841036297 8.740890041456971 10.14407042172798 0.09384732226946418 -0.4686614555701412 -0.3021257044970152
