# total energy = -340862.07139304955 ev
CRYSTAL
PRIMVEC
9.32331937072752 0.00000000000000 0.00000000000000
0.00000000000000 9.32331937072752 0.00000000000000
0.00000000000000 0.00000000000000 13.64562031462590
PRIMCOORD
 96 1
Ni 8.340026043123649 0.2811521500034969 2.977078476578689 -1.5087148504021308 -2.0929823600750663 0.1542816162961214
Ni 5.061984295511929 5.05635301069766 6.2052227520091465 -1.2997754375518134 0.8546655440493668 1.8782836761434687
Ni 3.962653078591392 4.77397764121133 8.477792069709801 -1.6259113889204968 0.40115405674678656 -2.112456409639278
Ni 0.9270036459527752 7.501813027847503 6.014443399955427 0.3333206420425808 1.5879678197971876 -0.2822150816160172
Ni 2.973663344745135 8.618728024833786 12.829802808943624 -0.44135813976949795 -1.0666185469150276 0.2657829042019229
Ni 1.388493962805523 9.312765231553897 10.154278701837079 -0.9398976138459941 0.15463951385617236 -0.4867563653986391
Ni 0.7710263799167719 5.818786087281135 2.045614554706798 -0.1897265873672926 -0.005193885496113636 -1.3571748014068885
Ni 8.603810714067512 1.5967769143796189 11.11596789231721 1.6258028883670905 0.46627187229204214 0.22622211119016522
Ni 5.298106678303583 6.5573328200001155 1.0387650705456202 1.614095370122175 -2.2321610592914785 1.665085488016797
Ni 8.50030322398803 7.252022659066251 10.454469069706034 -0.2228537089385646 -0.5604256700583315 0.5948519700570014
Ni 6.902705857516266 0.6070534353100462 12.250273676661198 -0.4016515652084954 -1.5636264148383456 0.6457911801090297
Ni 4.967044935803826 2.80909743703545 8.5488040629488 0.3240307321002226 -1.8382726829681697 0.1415410288010014
Ni 2.8819685001286968 1.2053093865956825 8.16690319302566 -0.6506971020510793 -0.07127380784432241 0.4452369059986138
Ni 4.954822064294711 6.626586435232541 12.000353713742664 -1.024832464117177 -0.06302776578544629 -0.4780120435471058
Ni 1.3817065864068685 5.979529434106964 8.643122489596257 -1.5832020229774282 -0.07038163504735621 -0.2543376384794588
Ni 3.9952567259349285 9.111875672128335 3.365856226765082 1.3398378527903376 -0.30131169323615203 0.05122485961324727
Ni 8.43938465614626 9.186760572175029 5.751109977662243 -1.190592770476859 -2.7003260348411753 0.42862063759817143
Ni 0.7859119913976673 0.30848346032307894 12.635516956527908 0.033743157888716076 -0.5426462345877235 0.22030497437478186
Ni 1.7270236840076458 4.912009382395505 12.818367757909352 0.9812705203658261 0.9752626236088495 0.6831428812846106
Ni 3.8440884279572027 2.189161971546804 3.037064712497567 -1.2986847755907958 1.122852686817408 0.06166816643375831
Ni 6.717031955072303 0.13037729609723175 9.76672976512506 0.5451607734794611 -0.4611515203463413 2.9281522572936667
Ni 6.73875528887569 -0.016175026530255102 7.6758523602256945 0.7065460906998994 1.2060209321064712 -3.8129012509919753
Ni 3.940165232611234 1.519290808268056 13.110588552501424 1.9782052296314705 0.6255699679661485 -1.3445203458676716
Ni 3.4218912399947428 8.599382137433773 6.361519807894702 0.3218838609605489 -0.5003523589155189 0.7874113988873988
P 8.088501536965817 7.064269656434239 5.083388771797686 -1.0122911371170566 1.5512352402628444 0.13447075221778132
P 1.158832640239511 3.9289026629826975 10.856004849925283 -0.3687946665794746 0.3728739788551707 0.04459912676661351
P 5.522556265420628 4.779189376660296 2.8556189353239203 -0.11023990469487466 -0.7461331089639022 -2.6663414503656147
P 0.8373934955159235 0.31666746994222583 4.529813895584731 0.4405420716261058 1.189975962828467 -0.197893182338485
P 1.652008257491747 8.665493794086053 7.782861689007559 -0.6070729376032254 0.47679796863434654 0.3039121069734766
P 8.48544185313713 5.813182772424555 8.099712828338594 0.43449535121139365 -0.15767290136585746 1.3691214322458034
P 6.149297753946386 8.236164266913468 2.0084173079791716 0.7393891053718492 1.035575304455978 0.9078164170407333
P 4.827847779716034 0.926606472553623 7.327848282023143 0.005642800108074153 1.8942417421346214 -1.551985488165308
Ni 2.3587065317247324 6.158154907213861 4.409323047197846 1.3465792852792293 0.043603595622563614 0.9833783107374484
Ni 5.759583010177487 7.3208380782949165 6.3626656438279365 0.6393652219780278 0.6321563629344145 0.9567617365911846
Ni 6.064250435940169 6.132161493203629 4.318087842219394 0.9814980629955998 -0.16664065208210654 0.04534860333812835
Ni 5.137726940927684 4.614642115589068 10.454346001892212 1.7674449615223304 -0.7257494031012275 0.6128432644280994
Ni 6.438954635750505 8.62802337410502 4.367444561885379 -0.3995635723312151 0.3324348970035178 -0.9579788968277372
Ni 3.1007588324737867 5.42446562381315 2.22785188168298 2.278921712485785 -0.9576521096159378 -1.1254644134086422
Ni 6.986447910830435 2.56516211272996 9.755158593630044 -0.29014847753048095 1.5340618138073514 -0.11157327879431753
Ni 2.7490179679242828 5.561993905758964 10.511412174228592 -0.45330811304252255 1.0878818271691781 1.7634808346682596
Ni 0.012395352914850515 5.606298318734797 4.24861885831278 0.17951519405192956 0.3518133015301296 -0.7488620778592909
Ni 8.52675348064048 4.540214058184592 10.160337927003955 0.43664505056454483 0.21074432726954026 -1.987829897205428
Ni 7.664803294607501 4.156447592083744 2.989769378713096 -0.3550359222324853 1.0601676490833611 0.47052344847954447
Ni 7.101963836076767 2.328303187719221 6.999384016260564 0.3338837136349024 -1.0687631040618562 2.2896290716009604
Ni 2.8456634950512782 1.0327906875837276 5.0076834196588464 -0.8835192350562655 1.0337295094964907 0.42338510023084497
Ni 7.007602522160857 5.425659008674452 11.677076010467134 -0.4247179601096556 1.228276401070562 0.6404733674405422
Ni 4.1349853112187684 4.210727956634522 4.254403977894326 -1.6551080650891106 -0.12406781171690245 0.15891731529591985
Ni 4.958383572240159 3.372887874127534 0.9766242155529387 1.0319040262519776 0.5391017117695748 1.09027321021949
Ni 1.721075406339594 3.6486157170036444 8.600684605130054 0.45868428975277126 -0.31798401168551044 -0.5915951536826005
Ni 7.2536449166120835 2.2915133700418986 1.698210898262588 2.9412664260781214 1.3623607164832021 -0.9594130581711025
Ni 7.91367065478509 7.028710516895135 2.736301892827957 -0.45827471301917855 0.16996328869743632 -0.30661459350630416
Ni 2.841458678079035 7.552168275002906 9.235382614285774 0.25442094222188444 1.3064021988397114 0.8286259254524955
Ni 7.679422259158449 1.6575369857944973 4.759196450905797 -0.9705050543192059 1.6729571774553897 -0.10317348476639653
Ni 0.6516356831989008 0.9591737589521672 1.7176155225737415 1.8094462456547804 -1.4072475496935635 -3.3339283861934965
Ni 0.37524029066599934 3.500011331813872 1.0076951092152409 -2.062754928649093 0.053288684120811454 0.030636493938934337
Ni 5.613878177267909 1.0233368418856017 1.748563348422222 -1.754443664166656 -2.2981322239759643 -1.094067901375232
P 4.686935132890122 6.410677008529188 9.456004978859347 1.448821259370292 2.151675503040901 0.7615458439745465
P 8.636899174010953 1.473606544046343 8.95193599542004 0.6085101842703842 -0.7837012970256632 -1.257386688172957
P 1.0974945230324396 7.560661818820453 11.47819096467579 1.0664971908458147 -0.4404937348866736 0.18818289702925656
P 2.754033913669442 1.1524275199292422 11.333383035076034 -0.961413376430583 -0.04657039156037141 -0.41034292233490616
P 6.689826509562312 7.863790896910363 11.625890987900357 0.050848450110435005 -0.16252097348677816 -0.1571589378439164
P 0.20610875352991154 7.801800147357267 1.137646329623711 0.399639419874473 0.5075288220593002 0.34747456494545964
P 2.878761278313948 5.652299575810293 6.802027994822763 -0.8929778093660041 -0.4642067622328973 -0.9685625858808544
P 8.675768091876323 3.870538684609652 5.132868559277492 1.3528774595831152 -4.624677194766668 -1.1472974501233337
Ni 7.546117440823336 5.0591033898701925 6.200937754491535 -1.673419461803789 2.206992273335335 -0.06173090135089369
Ni 3.1994741364696027 3.360236129933888 10.316921208789838 0.5405690403437207 -3.3773160091505123 0.7871468323721024
Ni -0.08642437225632932 2.3387732752132995 3.2300546235404637 1.8186335685810033 2.411651056532427 1.5069155924098627
Ni 6.787963767765936 7.114941896443424 8.530341093879768 -1.8066362870098112 -1.1944399121370914 0.9209570681877495
Ni 4.784084119255479 8.552812157885313 8.470177714895541 -0.5408410630581848 -1.5204401092588589 1.3118022868093602
Ni 9.093564673162733 3.3670701229286872 7.55833658300476 -1.3600523800649997 -0.08361227480501729 0.2819281465032177
Ni 4.610670381597548 9.213229475465935 11.223726815965078 0.6189090110062051 0.1588088147425136 -0.9649928662517252
Ni 5.902667990383739 3.1258292378803554 5.457416098632002 -0.8238773550239166 -0.047646912454001815 -1.657713878143074
Ni 6.619724472280056 2.7581082041724807 12.564655068728491 -2.252270428446844 1.0466058512385266 -0.03994440160342153
Ni 1.73640294315194 2.684463305583234 12.664868630124397 -1.6014334583837904 -1.7658387933774748 -3.2513520088521615
Ni 7.514082515952763 7.686824974626212 0.19650200539643128 0.9788999632511205 -0.7345472038985156 0.1478335466779325
Ni 6.569620954743834 4.635591613896454 8.176756076786784 -0.45016931030322477 -0.239214152574459 1.6402368044042333
Ni 4.087240593447463 3.918702951746258 12.55691764610041 -0.08011300340250718 0.8203731985254 -0.28334225324192497
Ni 0.6515079537254646 5.339670035426113 6.515073943263109 0.9223030406926827 -1.6901851112979023 -0.2141250708163151
Ni 2.561749777892175 2.934104501256823 0.916964295807073 2.180838240647786 -0.043612594483628114 2.5984954372559184
Ni 1.365465364310088 2.944052482874082 5.550478674179324 -0.18322221058987154 0.8677200632404798 -0.8463390264615424
Ni 0.5452594077926805 1.1835394361961518 6.755741444178862 1.0665964354278406 -0.14121886957489227 1.800226269718409
Ni 0.8831756545895402 7.795693373262322 3.422266969759668 0.012853201813584316 0.9356257259435177 -0.6713512879663213
Ni 5.443680984743956 8.513775420273822 13.544287919396604 -2.0569717463084123 1.7637376878740723 -0.4236887475141929
Ni 8.644553619097897 8.288663877491523 8.404651562690837 3.3140619862868728 1.2727567428711242 -1.0198928607237145
Ni 2.9518188077917733 7.648039966633901 1.958392106324473 -0.8794039273363112 0.6738938518825168 -1.0953441969844941
Ni 8.502839166818296 3.8530481377361965 12.39800073751153 2.8343725550373446 -0.6117364045171658 0.785630395727576
Ni 9.203635779979376 6.194916754933497 12.775657632521664 -0.4915992953132372 0.8506836765834832 0.40415093459158136
Ni 3.5026032145595125 3.1202632163006894 6.6146320753172185 0.03526010875387476 0.04371749549260858 -0.17877163101768567
P 3.498771330356426 0.8985609959811057 1.3177402255091641 -1.8959756941065928 -1.6561514187519608 1.331970534227119
P 7.393270945384405 5.2333469029394974 0.22943756290451772 0.3661292039321694 -0.03506290514140414 -0.1926509601029392
P 1.7585178563629411 3.893893599278099 2.7190537522544536 -0.8162326939944653 -1.2229853278749518 1.2044777559890676
P 5.1525789884593545 2.052463465012363 10.767240324542492 0.14083320410069938 0.048908809885560935 0.5494614577373441
P 5.769614901667806 1.775747350297987 3.6918087903273897 1.172913350919225 -0.3308058460405271 1.5490055796013775
P 8.495203368369811 1.512559371784775 13.517883347008377 0.17900225897125302 1.3178736898144205 0.2357429061964069
P 3.7181770017706244 5.865803586152585 13.665133053914188 -2.7609145950575096 -0.8336958837762352 -1.1765728020486834
P 4.351621956821977 7.400449901190674 4.7552256492462 -1.2817103525199862 0.4778732039763963 -0.7013257228412244
