# total energy = -340871.95512849616 ev
CRYSTAL
PRIMVEC
9.24221011665397 0.00000000000000 0.00000000000000
0.00000000000000 9.24221011665397 0.00000000000000
0.00000000000000 0.00000000000000 13.52690872264087
PRIMCOORD
 96 1
Ni 2.0104856943576177 3.2237198592154495 10.28959467415761 0.4094252956166432 -0.1603422206679045 1.4637776235698081
Ni 3.5461158748833106 6.490693261799462 1.6884695335257498 2.3420458946397793 2.2439601088089356 0.6191828334928821
Ni 3.926053890767555 3.3752828629977287 4.085248187447147 -0.11566338970329114 -0.330943657169972 -0.12593854637705407
Ni 8.870072530946146 6.058361156736503 2.9293739512663044 0.3228868483037665 0.9595912356201797 0.7455327563757419
Ni 5.106237912230946 1.0919393992234256 9.66411054398669 -1.5469666947944778 -0.8192737948136342 2.245253887919694
Ni 6.319573741400115 1.9677497147558576 11.880386061572393 0.679352818114559 -3.409599294664251 -0.05533733911972405
Ni 6.276699128646532 7.592882272047619 0.33092472716796983 0.47522085395521385 0.32124905559002737 -0.2836268743618793
Ni 4.803537046331976 4.051387502225051 1.9601165734165207 -0.1935577881879247 0.11220397039978094 -1.538719624294337
Ni 1.9551895512007555 8.860516085680528 13.049584792085383 -1.8377702894104544 0.5500643814286655 0.008047810005140979
Ni 4.285289355979666 3.3662347392887924 8.955286632487276 0.5431445143803808 -0.2216632881748892 -0.18754603477620602
Ni 5.9554953580843435 5.8833506658760095 11.6900085479429 1.504172739557403 -0.3146053250212646 -0.28921696685514703
Ni 8.395965636134063 6.693947946791224 12.540797428013429 0.593593415059552 -1.465153163761096 3.3742026603325117
Ni 7.723289856861812 8.875118777672478 6.554557857959956 -0.020247951615758677 1.3786211442061225 -0.6389543596928544
Ni 8.606392276180097 2.429268719382475 6.332473094066675 -0.12658312193958846 0.13656568707359706 0.5293618587739916
Ni 5.06930604058548 3.573482059053036 11.040527943412547 -0.32474292767589874 1.3289358611658533 -0.013851046950479371
Ni 6.422633626464826 3.874611749231353 13.172097681013803 -0.778762207852833 3.1465060214793485 0.44333274699736547
Ni 3.4166140266610223 5.448661797232071 10.684066989678907 -0.5301869257784482 -0.8452805032900409 0.750647709004804
Ni 3.2426571477543784 0.9869756188736879 11.36921790417314 1.0763936240239205 -0.4628453631089965 -2.4979125960348334
Ni 0.11790472296184486 7.111871446274783 10.625752340696367 0.7577665794377724 1.531271138436092 -1.4007668270652263
Ni 0.7051501329761224 5.549854755852241 8.799645965599396 -2.5545635117596586 -0.4129541347055082 -0.38678004741330163
Ni 3.649332877520087 1.1062648249117317 0.047532686654812036 1.8367104806873722 0.5214647154141019 1.3803260427123711
Ni 4.147016650352086 5.303318800861553 13.247686020713402 0.37791591215445236 -1.0721870421417405 -0.2952346338041367
Ni 0.49710151359434573 6.106901244294558 5.851402193928051 0.0425260462876687 1.9013958366808996 1.3118004870371471
Ni 6.055375922867262 2.2104963635967363 2.89873510049256 -0.05457706391493181 0.8796350695105107 -0.21270633609191752
P 6.104960380169046 5.732129623868225 1.3120638903499382 -0.549835553247311 -1.5769455005447552 -0.11804705944411928
P 6.96905157326743 2.297641162832245 9.892918091522342 0.5329032962683469 2.4049037105062645 0.4764210449109021
P 5.31515807202718 5.500760135686898 6.149751827301824 0.010750553648284712 -1.6313824393373968 -0.22805685040605883
P 2.2175296854991884 5.288642171188631 5.045361322602729 0.7804866467431074 -1.0969321102969043 -0.6491546972646239
P 2.0832865834845773 7.159219288727165 11.677618441054033 0.7785732317704784 -0.8757892134018594 -1.4191119052313172
P 0.8253959077617401 1.0551461607297825 0.9642850688044231 -0.025174956603730838 -0.6107796970308513 -0.20457573656498318
P 5.290804848357059 9.146996872816286 11.985842451721604 -1.2971207735377854 0.3061710782109824 0.7469239802963136
P 5.702878028833716 0.36720779566290684 6.180512675249172 0.3133927927704022 0.7193609830763805 -0.7945433819464897
Ni 6.524991103560304 2.804271395061845 5.189273624846441 -0.36976551513317607 -0.5690712615484715 -1.2259930043530243
Ni 3.913669329204761 6.65709001282673 4.537695962839524 0.649294565276598 -1.09216528503588 -0.09228152044424107
Ni 5.167975875842485 0.24361541659229835 1.8129436194419482 0.614270226682613 -0.07628874456041056 -0.28391818035005295
Ni 2.5036500264402095 2.2888518210067104 8.089970846547793 -2.2788170685871205 -0.8235649659898202 -0.2671810701010302
Ni 0.21858658736229708 2.829114455868404 8.840619455730987 -0.9855588633285349 -0.43344788378348575 -0.16433205855358793
Ni 5.007466412662605 8.324283054431802 8.102482950610264 -0.8184243023291454 0.16342008826227986 1.1099079537312821
Ni 6.581923117908669 1.4394834686318547 8.03833831548309 2.3932249886167556 -0.07319056525106105 -2.929098680367336
Ni 2.2443967903223534 7.147768190386642 9.200516663187798 1.9809750790671237 -0.25498812757926403 3.4250271991835466
Ni 4.551816211463133 0.7011242262472023 4.295320850845529 -1.0642384767186253 0.9934796608375084 0.29685417168543066
Ni 0.44878693596325586 8.199023380655278 1.8963508689043274 0.41148346369725264 0.07017877500793075 0.29936896768748444
Ni 4.541705233590225 7.481467429033082 10.720034898808702 0.2231856383566866 1.4949098261982383 -1.0875954062770108
Ni 8.844573273220961 2.770620508009508 11.437771997749278 -0.05458966232042211 -0.4647767758037544 -1.8065051607485856
Ni 7.5597304643418415 0.17583027489826997 9.72522558263604 0.8660357335595215 0.6380719570879011 -0.10882451240458678
Ni 8.46024520752901 7.735609722953755 8.368408138214821 1.0375524827870066 -1.0371578184517494 1.7582815498555073
Ni 7.89422453305873 1.0783163815043524 1.8748562608247832 -0.18387167124841236 1.287562440425389 1.464060959138182
Ni 0.06322411099907412 0.5582350366639393 3.8600524956269733 0.3359706780709181 0.28659829828537736 0.8027313170739208
Ni 7.706219494767423 7.53164338778264 4.665200569454559 1.5449175255749328 -2.5078648221515394 -1.101194228007368
Ni 1.4097327942507853 8.406344638100494 7.702100241716276 -0.7232073534056642 0.7428282129603851 -1.6496632399244555
Ni 1.7379514022951834 6.5991783242054876 0.1850891209979765 -0.9259439798793795 -0.7984321754779347 0.5812865726677408
Ni 1.3206101620492778 4.076997666471694 6.881206214504713 -0.6338404355050568 -0.2723340750568794 -0.28501295607612853
Ni 1.6524517164612995 2.058877906553728 12.62470468104338 -1.4881344551476179 0.36811563823457893 0.2729719657511944
Ni 3.680063226174034 3.9819877464227993 6.486545357896938 0.6616844543005185 0.327990488078919 0.21556874524137715
Ni 8.23910684595217 4.751170683783625 5.083655496020103 -1.4773982996770363 -1.7304079633736908 -0.8410081011669323
Ni 1.3803055972239682 0.9982603574320246 6.3213001862508085 -1.3321926775402542 0.4224800719180724 -0.8094560373922641
P 8.05504823138274 4.72864741771756 11.839183364629786 -0.9336233508015082 -0.2161395301431826 -0.36386329071612816
P 6.538170495193545 7.2741184449575025 9.330145129688752 -0.4012185914361348 -0.7336794565815816 0.8107498165030231
P 7.486088534093826 8.325466057327352 2.2608331368024075 0.37032627273265256 -0.9880744306615371 0.3114719215986055
P 3.270975279566617 3.482011905480671 12.164654263605069 -0.3864085230064958 0.19055782501933632 -0.39171039483538345
P 8.40383999915757 2.846693139519474 3.8011833140371447 -0.42850648061781044 -0.5682217690639828 0.399369454042538
P 0.41489482722674775 8.24904222183277 5.565889990413023 0.7109372777890596 0.8396269045486894 -0.5455217563633057
P 3.7232890429122327 8.351094705994239 3.0259421079416824 -0.45594272245189216 -1.8666826015694302 0.5536289588514725
P 2.8826915479426694 2.9568602841676093 2.070198689731538 1.0507386424599774 0.439318740741966 1.1447631137372543
Ni 7.53835323233084 6.241800543227795 6.9767198350052295 -0.7714584751025682 -1.6507513307823118 -0.041136622139309804
Ni 0.6810104043598082 3.0013707681126944 1.948037004787736 -0.6371617865688058 -0.12758250973838028 1.3958480496073704
Ni 8.280641338238135 2.6017930557202886 0.16234958721506781 0.8119057844843371 -0.1722870517346065 -0.2927064680656443
Ni 1.0095358537802397 5.0841767566709555 11.69858439471463 0.09664313984704646 -0.3836114198773329 0.17263852153675427
Ni 1.1951656440703233 0.7237583988347259 9.78934249113285 -0.7667461572285633 0.37468146437755473 -0.05943104957312346
Ni 2.8144008573549955 6.435997862300497 7.094444334869705 0.7022202096310358 -0.7926225107746929 -1.049497828074341
Ni 5.754505014572347 7.516033294887446 6.096171962564523 -0.7105554689696085 -0.15849385460525608 -1.5228883136890354
Ni 6.10393449484556 3.677660251542447 7.251289261736415 0.2937130549532877 1.1239477196537997 0.17739583371608156
Ni 1.6392630826179362 7.276068551293136 3.993955484309114 -0.110666450709332 0.5381774001830925 -0.8797294289965302
Ni 6.7828949770004225 0.2588290186732795 4.232961810713826 0.6581587005354472 1.189076333832333 -0.7919743356677329
Ni 6.947794489988009 4.573757218291545 9.408492269109615 0.779778050711857 -0.36873270299328753 1.4305777397790718
Ni 2.7425981269211563 0.8730810908835567 2.413227939495621 -1.585350950999631 0.007202945506342434 -0.13546294092772154
Ni 8.423803173019984 9.025748318232488 13.588862207348127 0.11413512598422279 -0.24454636342064984 -2.0176816904595376
Ni 4.41886701886553 1.497607728085892 7.368188432237042 -0.4976776402968332 -0.26879829398947896 -0.6375022006273601
Ni 2.97835766491019 8.537158880160032 5.670642124150979 0.215866478987454 0.5960143657962187 0.5410328673540166
Ni 5.798618083482209 5.029656959164298 3.825383117019248 0.8627308375560044 -0.07937124014047621 1.3133937996661962
Ni 2.137103973022001 4.098790797938163 0.4510956400516035 0.08376499833279767 0.8389015963468907 -1.1404791416499198
Ni 2.298796439097431 5.1435117456509065 2.678368463460864 -2.132391458000308 -2.1307541795072016 2.0229069434142195
Ni 4.949323668788326 5.534475718210086 8.680217202188519 -0.14930730300998155 2.2634711822586695 -0.5848668338198314
Ni 3.9437342387299608 7.6103870180177156 13.174465535246927 0.35466388360504725 1.3238052248075072 -0.9360108771970782
Ni 1.4223391688564948 2.819622706073636 4.481235301207355 -0.5231547015220153 0.6994287629288277 -0.13376909816506638
Ni 7.665156355197653 4.204882127922722 2.116568706353067 -0.8411127450655965 -0.29972660813721924 -0.24404114164945717
Ni 7.18186270352481 8.198588996779568 11.55453623198213 -1.3283388510118026 0.25367532230511153 -0.0714121331943996
Ni 5.739523391965416 7.213267733517625 2.9030770908076353 -0.12811884185782452 0.8109138528847132 0.0745427084035813
P 8.91754976434023 0.6970123669641524 7.988005239161466 0.624407315116615 1.2228886543960875 0.4140458251077902
P 3.1003086274632223 0.04535614617120165 9.065963947134119 1.2591707766565734 0.22257191603208765 -0.0003532695743606819
P 2.5495468419035183 4.659894616623812 8.774648559883808 1.4716128033435107 0.2415821385860033 -1.135037144698742
P 0.25688815454776703 5.194131330486296 1.0998784577177836 0.10668921122913884 -0.46198815731502363 -0.046248232334262285
P 8.290964886943838 4.262849269804693 7.745832531569133 0.3573548001736491 0.47696817566362365 -1.829561528347417
P 3.1110111067839052 1.9820104449733134 5.642858192083762 0.49400404809998794 -0.24350120998558708 -0.3404929914213039
P 9.147782460676613 0.14367108055954084 11.42266283264267 -0.2649298121730082 -0.4863269911707044 1.2399841764257935
P 6.038823124539678 2.013905312102568 0.4623813028309523 -0.1702715639664745 -1.2080860421656163 2.8603031588601766
