# total energy = -340858.05871802947 ev
CRYSTAL
PRIMVEC
9.38349540542783 0.00000000000000 0.00000000000000
0.00000000000000 9.38349540542783 0.00000000000000
0.00000000000000 0.00000000000000 13.73369402408853
PRIMCOORD
 96 1
Ni 6.2909766496240005 8.874768955095439 7.393630225686604 -0.3310660416804492 -2.6246304437800734 -0.1653371027793346
Ni 2.677448970507158 8.93217717838855 11.721940955676445 -0.9114676406400755 1.1134018258171534 -1.5330295158880953
Ni 0.27448318491387075 6.131429081684683 1.1776764964406803 0.2902667482759001 -0.19804230632183956 0.13539300692173456
Ni 5.117214009008027 2.50548703849187 8.559456306109489 0.32867183041665976 -0.1995921673074627 0.4091833548091663
Ni 6.879762819446289 5.146940921625316 8.891989545384344 -0.3236044431960814 1.1686666598277293 1.0714429648868644
Ni 5.4487516594480665 7.423508212575717 4.615730001309706 -0.5997373231737607 0.6086989032424227 0.7430246452419075
Ni 5.22465502841079 7.078993188351047 9.016815366241037 1.2525985227556944 -0.5041303379007125 0.6595792350320576
Ni 2.557884475377899 5.877295882690356 11.26465039505945 0.32031651647342896 1.9351068557800997 0.6288717786458718
Ni 3.678320713088553 5.353058775966024 5.774235078820973 -1.120318607541645 2.4052271552839546 -1.2085231297030348
Ni 7.661623785358645 9.084002129824071 12.563885379347562 -0.7161787286936568 -0.0984493398178498 -1.3031798352476718
Ni 3.0760035432681168 7.922503717361757 9.329160954062345 -0.7751387521676328 -0.32654758498480535 0.6303938717173531
Ni 1.4226598493197553 0.09633471454991549 9.1234437749643 -0.25482229142536117 -0.4307582527664646 1.05117547288708
Ni 3.938271679072375 8.034148542589188 7.01089997913707 -0.12579790703413174 0.811017725452429 -1.4870363369874324
Ni 1.1625962813942012 0.2694085907398084 6.785694218973734 0.7796572088632767 1.0026451293868603 0.902035034472266
Ni 4.656090290624568 3.4559694121481264 13.307578040410776 -1.1103383564004812 -0.8243982605243931 1.1743233438928744
Ni 8.670724853181632 0.8702938392012173 10.621872532526108 -1.690618856401211 -0.909649356484414 -1.4721802458112065
Ni 8.467572183306538 9.043859537596557 8.568506687176212 -0.9747815702073727 -1.488694955636778 0.09333824384352957
Ni 9.065235139535378 1.8807620822667352 8.588145404163814 1.2534778400368543 1.0506129155153905 -0.6129692484830025
Ni 8.589923576493668 8.26741284838249 0.7209067198041974 -0.00828460860629541 -0.9255822256645866 0.6252506369535167
Ni 7.864382348437677 7.791697795049572 4.529028382874976 -0.20951199752433594 -0.8972959771253838 1.406046587406927
Ni 4.319063295525087 4.802069324585162 9.559570800632736 1.9856958815815609 0.5971875601687134 0.8484393606339968
Ni 0.6582015135021042 7.4666910572299985 7.690387951374124 -0.4742849724045058 0.48908141398738997 -1.4779402882234354
Ni 7.686818469821215 1.1504258881919844 4.433634832888039 0.6943935144977654 0.2350440803571694 -0.8921416866179538
Ni 8.308071532842941 6.475587533093868 11.95633409593561 -1.1667792129970294 -0.4078353254217041 -0.40791914338476193
P 2.0460898832149703 1.9947621647753968 8.492957352720538 0.49674715806276387 -0.08949161640392975 -0.7781531135139244
P 0.336715463060689 5.224045101226408 12.997622428802734 0.6580517426439376 -0.7856080271300727 -0.32835558472782156
P 6.843120270907618 1.5855667085207494 9.503907907436474 -0.6255398860591614 -0.12694487615438138 -0.5708414660750168
P 2.310554310363223 7.810399100872253 1.4585179376643598 -0.14854754202582157 -1.4476076986781652 -1.443526843740572
P 3.4204434995316317 6.191079960317292 7.890474095036046 -0.42647582334102685 -1.4895909850884863 0.6533383963286684
P 6.137584654499373 2.0837083152486544 12.887450812312965 1.7819853212303502 -1.3313100178249846 0.40202848893193993
P 6.8927120427454875 3.486174883017777 5.459720026922293 -0.32131024784526596 -0.8531249390351243 0.4902016436347622
P 5.357403334217856 0.2531995412274648 5.625993684181077 0.41580523100105804 -0.7620369246783522 0.1842730204518891
Ni 3.6547306062956673 1.3585048930178605 6.600330779193291 0.3878807366766481 -0.4079685085654587 1.1384114604876137
Ni 8.571128435719542 5.003795703198316 5.885162066669861 -2.166762993501642 0.2864859410772292 -1.0110109848530524
Ni 2.848069062716804 4.935136669227134 13.64497380686943 -0.7264438580650908 1.149055570465021 0.10438216036251699
Ni 4.846274970210176 3.794647902393012 6.676429048114909 2.0447335523710075 -1.3825454189611932 -0.0006198929721860292
Ni 7.89096579018161 3.2957368490632715 10.39299970246036 0.36444101759646913 0.13495154850894178 -1.3780331329131363
Ni 5.544078586619479 1.815237135673766 4.175193671272942 -0.7151160917570974 0.5414262461376934 0.14022436687210688
Ni 1.3553051211736387 1.8031418104327037 10.989385565000056 0.7788046310549942 0.5371916392310555 -0.7248901404247258
Ni 4.857901120694021 5.393501640038156 12.212989578424738 -2.401193094423897 2.234118183017849 1.9775750522466398
Ni 7.6802500232201725 0.9523309221996924 6.691838623840955 1.1944411976886717 1.9198694700050545 -0.2651401284116014
Ni 3.21610850926835 0.3177382824807633 0.6411441960287116 -0.6645892866521393 0.2061667352011869 2.394250858778109
Ni 8.937488236640249 3.498176373307395 0.9825579751081748 0.8248520602323601 0.19343566078776364 -0.2591517720386505
Ni 2.429959286075028 4.086718572255932 8.770679720158236 -0.8140012335607851 -1.09472019024725 -1.1575913758501741
Ni 3.9340866402379966 7.625835134878109 13.552889815619903 -1.1390385525486513 -1.3393002351193128 -0.9142516311431157
Ni 5.272529620637245 2.095146795829612 1.644870397833017 -0.3010383849701074 1.2092144993431047 0.38309617080381114
Ni 1.2771781406018126 6.83675826119975 3.2050866558718005 -0.3831411651091337 0.19472789723662592 1.786436929243801
Ni 8.772488858022067 2.1102166890314322 12.406318667233217 -0.157102116464052 -0.7976618729708134 2.4202873920511863
Ni 7.626773484392544 1.3420180920492446 1.2365804488597987 -0.8410366404120226 2.4645538180687296 -1.570663009970153
Ni 6.8501203582853 7.705350872731298 2.520860956936367 -0.2771556648152388 0.2670910814903852 -1.9838575428212413
Ni 5.537425688562137 3.0392202423022803 11.075647097512515 -0.3256027045730328 0.08967853560375523 -1.0989033750906623
Ni 7.14905974659388 5.9535461642333125 0.1946915723034376 0.28498184572787694 -1.020231732120372 1.28920408979387
Ni 0.4999132106111575 0.8438061091077569 0.9438595027833768 0.7494176932524449 1.1809138526261984 -2.394534965677431
Ni 0.526183243617269 2.2185772909583417 3.000619358326983 1.3368846836992847 -2.016980807737771 -0.6968003241670451
Ni 0.8537544906597927 4.325575441155263 10.64097545194097 0.6618981129732213 -1.3863066857758384 3.4513038734918884
Ni 7.580053062068845 3.5017421014622467 7.644462311089151 -0.30604766525924065 -1.2712873574144494 -1.2209161040507488
P 5.918010868121674 7.593781115465023 0.39660749751850727 1.6819802068896064 -0.48898371206726104 0.3968734270935617
P 3.8900592810207244 0.9110848309432045 2.8774150054312324 0.7429709091858365 0.9904480731000364 -2.2079957748991843
P 9.011758600707749 5.7938109263911075 3.932945607228444 0.16363426115561497 -0.2635748408070106 -0.04266899962343619
P 9.134363348263777 4.619766780920804 9.035561712840412 -1.40990761302423 0.42778657173265033 -2.7934688748444474
P 6.323246489425408 5.291803319663733 10.984702262573512 4.064041465580059 -0.6729762251642539 -2.3251308640519954
P 1.862098310424631 7.863425231932954 5.11067840463999 0.056678169418334645 -1.3503559787128423 1.1077371713322082
P 0.6000107067139558 0.24357113685985118 12.337073164815514 0.035064447803300904 -0.5350522242905495 1.146145853017394
P 7.2607233388116 8.095291396949747 10.455584800024607 -0.01336845088710601 0.10450017399762003 0.33005714079996057
Ni 3.663166368430434 1.528712111441156 10.172354320937176 -1.7641642338885295 0.8804840477743674 -0.2871863095783635
Ni 3.2153672131519464 1.507252058046036 12.575970382743966 1.0830178142086573 2.5583882848223873 -0.40146567444993436
Ni 2.8673709122287243 5.644444450683405 2.1989151152328787 -0.4246320852640687 -0.4719735506625098 0.5739131630218052
Ni 2.58154965013194 3.339482703426213 6.192975426336449 -0.6996830450314788 -0.3623021168765954 0.9547557619047492
Ni 6.000576241896775 5.992741023451246 6.799359402952446 -0.3225276651921348 0.1448202137729054 -0.19310990201722872
Ni 0.2017864329820777 2.709437305454234 6.301362302049763 -0.1407730402867253 -0.1762612058910061 -0.6558567918751479
Ni 1.6769807182169696 3.8949199315054956 4.078206803810495 -3.1550533968287278 2.1373781125816222 -0.026882940433773053
Ni 8.311496508570627 3.5306526500019775 3.663187950469266 -1.3079554022594442 1.6296194338997032 0.893811618121209
Ni 0.038764156790808454 8.010042343563363 10.811177040267177 1.6751852954549604 0.6604215284276949 -1.4368098367317126
Ni 5.709153033198817 0.2633243324882143 0.2823606290875494 -0.6463439672887062 -0.016011802047224036 0.06993580575918923
Ni 3.3373526500284463 9.323056052121434 4.627512856162462 0.24741777143117388 -0.05669153915477333 0.5799699107388463
Ni 6.885205246630011 5.630819615733815 3.5036572728212083 0.49622162457659696 -0.7269166839364513 0.9854845584471738
Ni 1.3963672959252975 6.218695586527102 9.352466740952357 -0.5739005646163149 0.03330941278540715 -0.48282103489997497
Ni 1.5133607133850056 3.0939917034598285 13.02992417248763 -0.4973215425089951 0.5613780066692718 0.569735891715664
Ni 4.542362329475092 8.16552685810518 2.113409892429053 -0.768812809949605 -0.36810303982908865 1.1325889402685656
Ni 3.6384033247445045 3.2548717277096437 3.975616113047844 2.4438888335202105 -0.6797515962148746 -0.9023839331712524
Ni 4.899404319717464 9.392034124927521 9.083973040989124 0.9925352946463681 1.0258107688700462 -0.0873768840537721
Ni 7.904543707655479 4.084560368372732 12.49145324197884 -1.3879673613077128 1.7021427978804102 0.8443469357321781
Ni 1.252415096915883 9.097204707492166 2.735957877780699 0.30249440069034356 1.0454275146597094 0.8226928477975121
Ni 0.9485118396759437 5.021164552710499 7.078263152428817 1.3461540248163526 0.08484846120496356 1.2530291825352098
Ni 5.155667572109558 0.3038957504438238 11.608857640643384 0.7877806093013594 -0.3846455175688021 -0.25599317180501074
Ni 1.330429475545977 7.5521559310047035 12.842816340959855 -0.960217556350269 -1.463303769257183 1.8902418769466092
Ni 4.877296805157385 5.190621091522248 1.3667830124342026 2.581005250890955 -0.5983391572746535 -1.9122713459428227
Ni 0.21767738200902795 9.134400882244353 4.859777819722891 -0.6635796144407023 0.9082802440510293 -0.7897727000307238
P 2.209250096784862 3.4117262325425344 1.5695959997850721 -0.5802254783930781 0.31244714102768123 0.3831776747740239
P 4.8063481983709835 5.853611940946026 3.308020782556735 -2.1715575866768084 0.5702634820843598 1.7100116591055259
P 7.151330552418812 4.259224746989591 1.8813100783831649 -0.877420064137063 -0.6637855598039214 -1.3917728510967322
P 8.199354358100546 9.404232668615172 2.567060595279555 1.7759571127583993 -1.5002731473926807 2.57809604766396
P 3.1492041888891613 3.9026613149995817 11.441952474161386 0.5530728292376862 -2.193696327557377 0.380604514730209
P 1.6540099221036102 1.5604940094950563 4.970333221164062 -0.04302098364621623 1.021920946897337 -0.06852324168237876
P 4.142653586811379 7.561774013527658 11.338743411068723 1.1820669923940352 -1.216373478985389 -1.045810866141057
P 7.861257644554611 7.025666785445728 6.952077663125707 0.8441363623832688 0.8024490099468116 -0.13192073210241798
