# total energy = -340865.2414870244 ev
CRYSTAL
PRIMVEC
9.24193403413074 0.00000000000000 0.00000000000000
0.00000000000000 9.24193403413074 0.00000000000000
0.00000000000000 0.00000000000000 13.52650464795894
PRIMCOORD
 96 1
Ni 0.4548445490249986 5.100983749856421 9.58585490106371 1.8645912662580404 1.4834375638925805 -2.4284832975984174
Ni 2.0926048812662996 0.37641472544593185 1.7675485066459613 -0.885813687517397 -1.4418887939165166 -1.173596750139495
Ni 7.786329303154941 5.419192775656929 4.805033921832352 0.4716429067959684 -0.7941302056684711 0.03178037773539043
Ni 6.8992884882981915 5.331634693973736 8.587775023086943 0.464174366333065 -0.14161867611647225 -0.5964370551559341
Ni 4.459778376499876 1.8061696241829988 9.689684331555373 0.25466468280157434 -1.2726713822461695 -0.20430474229178364
Ni 5.572941587867358 6.210727445684238 5.059737923094344 -0.41847429319278895 2.091352023560495 1.5053150806919624
Ni 4.8062862038745795 0.27943818893443617 13.34585807236631 0.13959984591423055 -0.34472142768035474 0.3324220414877114
Ni 8.658010023884874 6.692832927107475 7.428282921317343 0.6492063764381658 -1.190975864847891 0.6272458130066747
Ni 1.3959479045638434 7.791440092596656 8.747468247176053 -1.752092647435976 0.07804506512988495 0.377773215929001
Ni 0.46918525784364024 0.6952013721146262 4.769634542449712 2.0373264612736595 -4.349787700277787 1.1357897065940505
Ni 4.1163481131108695 6.054668150001064 1.2637383434797451 -0.18324226519452957 -2.978378500439071 -0.11925059283391722
Ni 4.290928244311578 4.311750321367968 6.134039726643623 1.9138862558384264 0.49811729893741313 0.9841198168891632
Ni 3.624991455862756 7.804840896738584 6.116252700677032 -0.54730995861198 -1.1143713888192746 -3.361248157054373
Ni 6.6827222514307385 2.674477039042721 8.513149179497406 -1.1292218235685454 -0.38817178555450566 -0.416542880498031
Ni 1.9728848696424788 6.467274288564094 3.122458527960274 1.1306017346352075 -0.8769248696681993 -0.26181029270742007
Ni 5.468821960651519 9.22332063612865 4.638982247226244 -0.42313673166546484 0.23663302211084408 0.3491046443497149
Ni 4.728173378627974 4.552890860451551 8.726570386261757 -0.8830009006589502 0.22524792020235399 0.22968050205241092
Ni 7.326653995285124 7.822021651841925 6.002778387976739 -0.8218484975193459 0.8177401317779271 -0.5481849050177656
Ni 1.8690517423772612 1.9190875724630547 3.4812488854760977 1.3253849105898012 1.0101740907740537 0.03205394311175125
Ni 2.9978338220205076 6.675957155822537 12.570937626894827 0.25524652344697335 -0.3117483151884437 0.012016307734585757
Ni 0.11008437134907985 7.78171757814334 11.141740940964775 -1.1129477689988703 -1.0871367214730372 -1.4251552832119199
Ni 2.7610185079979055 2.328791743784315 0.8535221690209245 3.1006552816938218 -1.126265312043383 0.1458774513928262
Ni 4.602409142239448 7.489321273700353 2.9677559481722966 0.6696273632966789 0.06177743831811296 0.9511029956435104
Ni 6.475998674157183 5.240999048304845 1.6840088178185688 -1.7273043847477028 1.1112752663924539 0.06667333295783356
P 5.640647995552714 8.563049153155001 11.4574222978461 1.1781290907922097 -0.4330575903236025 -0.08480166712742813
P 0.8718276674787987 8.293877828580062 2.9207782740110306 -1.053296890105457 0.39837238023659133 -0.07802295364269789
P 6.3343013437405995 1.818424428522445 3.6554029635244314 -0.00705047908887818 0.9082673885352228 0.3734231664904214
P 0.7553691343251063 6.829179177801179 13.28674758739296 -0.1725858139219479 0.23994100343815453 0.33827978582006907
P 3.229325782121902 7.881761512513253 1.1773918793296607 1.123716320369284 1.7379194412593877 -0.777598526562035
P 6.6040271843489995 4.515054383101857 6.6506573617959654 -0.8592775889000814 -0.9264170628610561 -1.5116124836648999
P 6.906321599989231 0.5090457187154589 1.3358873487864984 -0.17466480793816372 0.35866786255811783 -0.8206843020079158
P 4.623924364337662 6.472819448898685 7.392829938718134 0.7638138140731168 -0.7718762793662771 0.6881681024133439
Ni 7.8759668199636055 3.7009971201822176 2.761706107879395 0.3720795079783334 -0.7714075672599747 -0.26163700035434945
Ni 2.727045159014644 6.3092557028960305 10.05226203357972 -1.1300281215199248 -3.3320352829358426 2.409373059131528
Ni 8.396130585149919 8.723590786775304 8.638418048229374 -1.6446081939990513 0.07289206017403575 -0.34588356630925593
Ni 1.3214024657991577 0.5306921762749243 7.426375386162243 -0.7669960684558403 1.7394271361531657 -1.8823850999063516
Ni 5.541981109332557 2.3085241827613845 6.217890868643141 0.990551945667752 -0.0946173676662693 -0.635508567236099
Ni 1.571138003401357 8.67373979536733 12.458140747948743 0.4827765548152847 0.8420218871434272 1.9907486135141201
Ni 1.8179253640923316 5.04898862978574 0.6201522479528817 -0.21116830218083635 1.846093721674485 0.11800206513879678
Ni 3.639806275890005 7.748936438632016 8.938990691585715 1.301138636447927 2.142446271133149 -0.9607346051960035
Ni 5.795709162375661 6.8609344626506035 13.253810259198879 -1.7478004478185254 0.25431912653669747 -0.8855372939275588
Ni 6.484667608146927 4.054898494669709 12.801158821086212 -0.5462745753689302 0.9062033069173425 0.22319695121059624
Ni 5.812899159412894 2.6597361544866 1.5276426899302136 0.2880383731660136 -0.3164153816468099 -0.07167824237159269
Ni 4.272980408695285 0.7938396083397209 2.127854541319906 1.228968027820948 -0.5184009888871136 0.8276075114903101
Ni 7.4967795143503775 8.426610483122388 12.773226924287487 -1.3361632321522277 1.7339941380630521 -2.0396970183883645
Ni 5.960215585635196 6.119056703419558 10.615681746149402 -0.5686776256544787 1.1795200576024654 0.7372823434414915
Ni 0.12718010066062407 7.0572423804290185 4.62362954664654 1.1726544408308834 -0.061183513487855924 1.1269749365158979
Ni 9.088185078774666 1.1820433446569936 2.4127768938252525 -1.2061114349377486 1.612225921013604 1.8880050171962903
Ni 4.301075887723879 0.09257183081905218 7.311278189870693 0.5073856116132165 3.3253421871863824 1.2431288927023623
Ni 2.778679843663578 8.724459528561056 3.9842180326582337 -0.013897326807382515 -0.048687952124006464 -0.22857672746527088
Ni 7.915272764801965 4.770843387402652 10.871184250499576 -1.19327777350819 -1.5285737941095867 0.36108135709561684
Ni 1.703001916157932 2.6511688817696566 6.002210933235832 1.7633059996532923 0.22526077571816042 -0.005318069778803744
Ni 6.979979813100383 0.864259447815471 10.371379541481712 -0.5362467588192829 -1.0111374831285878 -1.205326220032292
Ni 6.6524087082683065 1.7583056485615869 12.471585913373346 -1.9875406480997835 -1.4114603022233305 -0.5595900615309137
Ni 2.452051416088383 4.9116534921657005 5.2126281596463 -3.271134076575095 0.2135565999073548 -1.2144086419495344
Ni 8.736279962007625 4.413254481292657 6.809850597261573 0.6539220367462802 1.3024696965545246 -0.9036057213934955
P 4.181328150298386 3.8494040946036563 0.5737789962680858 0.8477726735842754 1.2438580575589029 -0.31002259074658867
P 3.9807227332606634 5.4234902749162375 3.8955925076106324 0.5471477220025028 0.4701331550196613 -1.0243596382458167
P 3.184964499445174 0.9636656887469067 5.406340942388126 0.435613781086553 1.4412550169872598 0.7107709274145243
P 6.911423147497055 6.801444134194332 3.319566797213648 -1.2168311353480978 -0.8809157359951475 0.2677315432878615
P 0.4476108873685246 3.000772756997841 10.715075048373391 0.2642345858781965 0.4587693932674099 0.9031609205465929
P 8.196735861451916 4.536976250291274 0.7276340907182602 1.029845343950736 -1.614605219879058 -0.1634835945103636
P 4.1798864086113925 5.033536116320013 11.298485988142659 -0.2758541723949959 0.7511022800437194 0.20983132853696768
P 2.0931778811675406 4.0584289134160665 8.330771628672874 0.2639599920605712 0.6248307758072787 -1.3187051845767803
Ni 9.135374393222035 8.967882825315712 0.8333313160492893 1.6452777092622504 -1.0758475217124632 -1.5783662921516817
Ni 0.4092208181787616 1.0541627054074327 9.68189338128527 0.957828744403118 -0.0013120339432041918 0.1688957666648704
Ni 8.966542744901519 2.6898186493017566 4.533259144480319 -0.7448239032341754 2.6901552649557607 -1.2819386664807082
Ni 1.739082426068338 3.339508117970227 12.679907421016653 -0.32500260909518863 -0.8364299948779466 -2.4016808326935926
Ni 3.5377660837996387 8.78333064744663 11.417843715957956 1.8449233555154678 -2.2129641746480533 -1.8197417140435177
Ni 2.989488355716948 3.5441152923827453 10.252765789344641 -1.863116481484727 1.0336390066652135 -0.22311981811575768
Ni 0.9437215954101608 3.1133857214594944 1.6564558403093748 -3.2203414194032605 1.5198675245848405 0.16819642660500067
Ni 8.931312492909084 3.175851952628663 8.646344854927673 0.6964105449277942 -1.687303418874733 0.43006251225102055
Ni 8.900342772440393 6.105027447773042 2.323569126942519 0.9228476003422429 -1.1969130562679322 0.23876755195534358
Ni 4.392580275178523 2.7588466535335243 11.936382749166233 0.19820120049720705 0.7650623417682372 1.970755972442277
Ni 4.1287045787231165 2.4609606403592927 3.92647350551397 0.5832310979886214 -0.1407499003582737 0.8933004828127454
Ni 2.5104696802133 1.3826764874963888 11.341162466271062 -2.000147795340833 1.6614422348372546 -0.5894678229269525
Ni 3.680812736564306 2.563925025838757 7.558732818188597 -1.6927664988718332 -0.28893465972803783 0.5534237848192017
Ni 8.844438314333825 0.9150466471266013 11.798453355197005 0.5683626655172211 0.6128131825211124 0.3774294594363371
Ni 0.8336982208247615 5.262477302667494 11.783722636768163 0.46076816886499355 0.6788694507202374 0.7878083772155013
Ni 7.994254331834324 8.574740199527097 3.50643500371581 -0.9577783507811568 1.3396180234700477 0.23787126539331938
Ni 5.87956122856857 8.00764589404236 8.77262756380748 1.5745564314872884 -0.17399452134401647 -0.24351072306728383
Ni 2.8541494758173624 4.146097898305951 2.5756225415645773 0.6393058294950023 -0.37662341859527393 0.6320925995760146
Ni 2.3403349192141554 6.295115544042822 7.153694899288896 -0.8822773922293644 -1.931898376145131 0.9799075785800285
Ni 7.506594448142604 7.597877029183864 1.3139497703094674 -2.683299418376192 -0.862010157339896 0.8605662258045178
Ni 7.632423378068366 1.0090158583499704 5.4959137656595525 -1.71358703516161 -0.289534755205882 -0.322839797115915
Ni 8.212031262041496 2.300640813152374 0.2979913712205887 1.2705283677612376 0.6381871425095267 2.099699624194242
Ni 5.89270325856155 4.1806904568599075 4.065498992842669 -0.5292572148753272 -1.7678026019720652 -0.5279094425981812
Ni 7.924718021238552 6.123437380083884 12.849909098167767 0.9712617299795724 -0.2572987779903117 -0.3870803522625398
P 6.415953829667454 0.5215740842980784 7.220636999041467 0.4986220064879735 -0.7444431228559889 1.0505200986912684
P 0.7667228501101816 7.989004913384244 6.429512670878917 0.303778923829722 -0.40930008289268865 0.38115138837261453
P 2.494684457127497 0.44106759817370716 9.11666132547957 1.930902845001081 0.6371664145544962 1.9204811354471247
P 0.725689587827597 4.414566835905177 3.771122141966845 0.18267173740304024 0.8885310864485602 -0.8758833157775626
P 8.95088690889019 2.3448542248868467 6.556851732802467 -0.2632079443858951 -1.7114005690332525 2.328812940889273
P 8.09930739437315 6.747212466122032 9.678632827008531 0.12743595685818698 0.753850532212818 -0.18877553630793295
P 6.151791633261427 2.9827787117120925 10.631358838608678 0.8318287486605093 -0.12552382743713866 0.21253124396663398
P 0.9619004793737286 1.39816596869768 13.37449328033414 0.9790778835898817 0.3679770557741856 0.7745103745550145
