# total energy = -381164.00326075667 ev
CRYSTAL
PRIMVEC
9.24380448992268 0.00000000000000 0.00000000000000
0.00000000000000 9.24380448992268 0.00000000000000
0.00000000000000 0.00000000000000 13.52924224907578
PRIMCOORD
 96 1
Ni 3.263922673764583 8.277068966807429 4.029901292538754 0.7806139163495911 -0.48987922729833694 0.8055225066658126
Ni 0.772147933919106 7.161545123444455 4.176070800468498 -0.19413911461269145 -0.14117387526956976 -0.36764846879017327
Ni 6.121570894524923 2.068671016309516 4.820292799083037 0.8877564130660646 0.14281783863089598 -2.1295205642104165
Ni 7.949126513410883 3.5175541825250303 0.8950313738512395 -0.133094440695545 0.05329228366523726 0.6282814533600406
Ni 2.26617414394913 6.947569536128075 2.361515668276928 1.7116360820828262 -1.5218606437554694 0.5899254792896614
Ni 1.391016949842586 7.133212862552598 8.390092040444832 -0.4037601269110659 -0.2514279210318315 1.313061870248074
Ni 8.352276560483169 4.65708418625869 5.105259880827924 -0.45651556423622675 4.860656899564229 1.6129219186393642
Ni 0.761881764605404 4.64783113792174 2.6090471904264336 -0.07294373934757761 -0.4772430265915652 1.7289478338883966
Ni 5.922736659032641 5.285376336522515 1.9024147211308304 2.5854928543486637 -0.55141292503676 -0.27654039982874307
Ni 2.1589552551776294 5.063525027744516 0.9196161963856548 -0.033116065827678454 0.8707423950065714 0.11062634150001592
Ni 0.8489463863548765 4.166875988100103 7.497432626836612 0.04544939058205076 -0.20017529350444235 0.9182692369429412
Ni 8.791948879263034 6.113464077949994 7.556244484413206 0.9766947280696856 -0.32207772213890984 -1.7493526227969936
Ni 2.609110048297254 2.756299147866924 6.666344346457911 0.22858315522317404 -0.8123896660992913 -0.12873025018957832
Ni 4.4763031010182175 2.7496343647990518 3.2042252597137835 -0.31169046536731476 -1.2109484513150757 0.3130912023695834
Ni 1.1592100635831741 0.8912876330156109 9.509190463020492 -0.4691139697265275 0.03786695024910253 0.05109270491075716
Ni 7.954839184611917 1.1921272515231098 5.872407840875446 1.4717902094616395 -1.0144835167826851 0.028711509002079586
Ni 2.225492160201964 0.2472190815563099 7.475420355103568 -0.7839164983602628 1.5731394965351035 -0.3778691180769169
Ni 7.022555278495039 1.6385660352207032 8.313719727398007 1.6418470863141463 -0.7838077406965404 -0.08791527305574538
Ni 5.977617126541598 7.098493132728842 3.430285272695391 -0.7189863733457811 -0.3897136761203288 -0.8042870915968148
Ni 8.923303341668674 3.008839887692546 9.834662971845976 0.759215396069157 0.18811836233990828 -0.5154442202516348
Ni 5.760526377097794 8.98341580254298 4.746978336575534 0.6434864432352531 -0.6652130362790674 -1.711011304014634
Ni 3.4685897499168195 0.875880984001432 10.448431256428467 0.5971489936212941 0.7192735655688968 0.2125070755969179
Ni 2.742341003022975 6.155061198345868 10.449756817998415 0.09721032520442613 -0.973973986704413 -1.3198796645008561
Ni 5.223757135509426 7.933273388637789 0.1917618006445296 -1.9797707743463777 -0.1708513477293445 -1.190892561105465
P 8.812303736843415 7.6617551181071155 10.040944016269572 0.08101726038433145 0.2437305523875738 -0.7372787438970657
Ni 1.0563727381600394 2.651104652288023 0.8440046484518465 0.07940029360619873 -0.09844522605279174 0.6328366768308907
P 7.82991841016084 7.484449703370832 0.5139999022641198 -0.4565353617305685 -2.1482163408477066 1.3387379348579396
Ni 7.40135714442894 9.157670761783566 13.080937373997267 -1.2888649612868963 1.6465362642597 -1.5897447091919525
P 4.242037362753183 1.2609196448533544 7.1965560331109835 0.17192684018171034 0.025698433207368643 2.318765069734968
P 2.2390158462328897 2.7984786279483407 3.8420477724505298 0.9256454748023542 0.735841754340223 0.4540640173719406
P 4.12214521796774 6.1069934147773015 1.3384548285103586 -0.8908939302537818 2.3955099279961907 -1.7976803633681042
Ni 5.544979343010904 5.54538607041033 10.051401532337094 -1.5223404116053654 0.9969329094934315 2.0135219026548934
Ni 4.186935043935447 3.914880632741894 1.1064686124430179 1.226485113498094 -1.0678164238778705 -1.861035944806614
Ni 4.177913090711809 8.416428563938142 6.771683045387517 -1.041271840620123 -0.5751771173358933 -0.8805604095382576
Ni 5.227334487863471 3.064792636527264 6.512354579893742 -1.0694274771187324 1.1313807788930774 0.7075565342422847
Ni 4.969543267063436 2.3462162473953256 8.857419049244328 -1.3792065843959471 -2.195913904033986 0.6679047241786175
Ni 2.3459296894548203 7.4443778107228065 -0.11704412860900605 1.7724231314632117 -0.002069223824202888 -0.0868652345246762
Ni 5.885095886976641 3.5556756324167167 12.817049864108103 -0.5529049362012541 1.5026519320375022 0.7975783121180716
Ni 7.543249544001535 4.926439406528777 11.466236068937905 -0.631501502959235 0.11681421547828269 -0.6839332383963899
Ni 4.255598024002238 4.329040051012289 8.449173817113774 -1.4815532023856743 2.0436290064529192 -0.6950920832266868
Ni 7.535595673848693 7.085450124533601 5.242987022078212 1.3050513412387716 2.050606466212017 -0.6475796394680201
Ni 3.8377041087007475 4.86543954041936 3.006116662877296 -1.3102555111475305 2.078535588522117 1.9218271079520577
Ni 2.542859701213424 2.7354728562553894 9.069841677399262 0.7546935969394034 -0.7492315453835677 -1.9741002063241615
Ni 5.483129046884504 1.3613535810980608 12.555014812647237 -1.0833451156410892 -1.8546866055498186 -0.9746015929860827
Ni -0.19218331813120781 7.032113372381557 12.161652105813872 -1.1480872930144808 1.8055237706719227 -0.230316592974513
Ni 4.305967514899376 7.42270108909429 11.43560579823929 0.1316260836801346 0.8860458581328611 0.44362122477206184
Ni 8.140769068976946 6.34548357171365 2.876708945706183 -0.24108334457271385 -1.9353827351493054 -0.6053050470695253
Ni 9.053197282958193 5.71055436979555 0.6723934173075319 -0.44739277599935207 -1.1355940456434765 -0.45978240791295655
Ni 1.8541962635483855 0.48558259837056467 0.16068690294790466 -0.5870977800328793 -1.9852091717531295 1.1912116350077808
Ni 5.760720496992975 5.860646023988399 12.84490606906654 -0.2749270325950362 -0.5423302460092015 0.49037519309814903
Ni 1.4967475860843673 5.695126460030947 12.263000254326837 0.7548679177337387 -1.6340211625118246 -0.21019745362713474
Ni 1.9023564851622763 7.584560106456904 6.193267691239253 0.8807815244101282 -0.32909451977637516 -1.054840837553809
Ni 7.559407714324199 3.347126158360865 6.815856414106577 0.32325708715899165 0.5083567172772342 0.20079595780757678
Ni 8.117511656773384 3.4131638979404495 3.5107572130523446 -2.815190839902571 -1.151534885243449 -2.7681766759365614
Ni 8.219369138916083 8.52019951361905 3.334565676762217 0.5043450250146797 0.7419553234371287 1.8297011392490747
Ni 7.16539054612994 2.3862511648252216 11.363833202327793 0.7306062169728965 -0.510735759032372 -0.09924869579069359
P 5.511461307776361 7.941934833484663 9.631034899323183 -1.4399920911144362 -2.647645416618008 -1.6915092294259642
Ni 3.407303325866897 4.333606490451302 5.137323865609518 2.5234765605468668 -1.1001493316826214 0.5250812291207667
P 6.784471848958116 5.675686739099274 6.426336356817339 -1.4194093818670779 -2.2317591958673693 0.7662738455778351
Ni 1.4648564604475298 1.6969499046474463 12.014129304900584 -0.8692958923680318 1.1863198541331184 -2.459553793750977
P 2.849818718321383 5.877266384537684 7.222342550234612 0.026465393280380223 -0.9643236080988425 -0.2388714245230596
P 1.8448322895570477 3.511961680782918 10.714307108672553 -1.213680248423942 2.1353705952332898 2.7100700016018164
P 3.7063311586860426 9.33892328105519 12.576445649075191 -0.522796546851648 -0.7732747023757005 -0.21420374657305047
Ni 4.945324499188505 6.489474314915104 7.600308776238783 0.6156069432161656 -0.5380789269320152 1.9012690812950483
Ni 1.4849617353055362 5.131568672907634 5.306858938255852 -1.4859076226996282 1.907717150913237 0.40362617243636295
Ni 5.816174080382942 0.5326890262677598 10.256640799989887 1.2068490844347217 1.9095901995662339 1.0564459772574
Ni 7.115113493278126 7.322452028940232 8.277325944573429 -0.9582856294348786 0.9150311896216176 1.7606611058312773
Ni 0.581891949032907 7.834937796021941 1.2924225306998303 -1.1771513002599727 -1.3570369902774435 -0.38461569277213115
Ni 0.0057339319514580316 3.7989448362963247 12.500072411647912 0.786140245484459 0.03749465451134833 -1.0008101330606507
Ni 8.599178579544018 0.42486189515802636 11.081220517597313 0.2491779486553902 -0.4726214686591538 -0.4019978928043206
Ni 6.9732303375100635 5.03202214189804 8.492846171627177 1.3500968115141847 -0.0966732217540335 -1.5307672022164798
Ni 6.346962580438837 8.916684777623464 6.870676796886074 1.0737919247350154 0.7325931654959383 1.0587221748860862
Ni 4.407889703673802 0.6043673353730248 1.9935475412550194 -0.8048658469184203 -1.56878173378704 2.164952165545149
Ni 3.213691839935431 8.208692544681142 9.086414894545431 2.075447179404781 -0.4861534417073176 0.7897127933270657
Ni 4.318271018732023 3.0654674342581303 11.002940283294997 -0.14136542245508557 0.7892381676834924 0.05786704752011325
Ni 1.4797204981356558 0.9579262198898023 4.986743214156904 0.8360150188277151 -1.6256529930527872 0.7927631501176153
Ni 8.7731192494305 0.4653876586085941 1.4679226304109325 -0.42221062030676965 2.957397013091397 -1.0000220899417165
Ni 0.39501087718149336 1.9334156683911963 3.2041300485270994 0.69371911413856 -1.2276413385897245 -1.3847275142141764
Ni 8.796413636852192 8.961591180041944 8.066540394201187 0.30936001746192526 0.06436448231899883 -0.46960839286444284
Ni 4.837181229963763 6.454375589105519 5.312527239195129 -0.3756625973439014 -0.01496870549469035 -0.3596345973467613
Ni 6.0633071945571 2.0404219496584513 1.0566703886659832 0.7709010599372014 -0.0849325362783376 2.2078299387452818
Ni 6.085732664352744 4.580721117016396 4.2551358337756175 -0.4135452313222878 -0.03410748320667029 0.7727255147404498
Ni 6.377744449531785 8.775393225345477 1.801094304031465 1.91891610495285 0.636612084712923 1.1805235591663152
Ni 6.730497274293335 7.335226966804031 11.323732653885717 1.1572905567803038 0.6953569068522991 -0.21303466596561374
Ni 0.42015679865102634 5.5945631105227855 10.103029105031094 -0.5422649399889047 -0.6007040579624042 -0.36900703970059673
Ni 1.962746260172554 8.58147669386444 11.157525350871053 -1.2222829024912887 -1.31615696423363 0.8215685043850819
Ni 2.6433491002853255 3.670224858182423 12.852469349934966 0.464014186606117 -0.6307828796256556 -2.1327802087982946
Ni 3.6062577308181 1.8520054818742029 0.4914792212817933 -0.3535161431538492 0.6362336183275817 -1.2609551222505058
P 8.584333029464956 1.762858230963577 13.04566671342338 0.7644208515294963 0.21070858893559838 0.4456374838711422
Ni 0.46958527024676444 3.0558816089580145 5.384246221040336 0.9709585969168567 -2.057069962449173 0.5118876132486282
P 7.276029642578434 1.182966641231485 3.0983448738385766 -0.7894091460437179 1.412526795814632 -0.06055256477207636
Ni 3.9728485309646784 0.9331250923293284 5.272345345273167 -1.504962068227918 1.8537119003413751 -3.119573972975195
P 9.309990172868726 8.586477592116477 5.7649726470778875 -1.1122404585192007 -0.49979777196362957 -0.40137877116308296
P 0.4827900450213216 1.634036570999819 7.273686338129466 0.03468186765290156 1.412560991486677 0.39175641758197044
P 6.595556215729117 3.427528770183825 9.6147861397161 0.3748187612863674 -0.6340474093095403 1.6469520116408798
Ni 1.9180709528673845 -0.049147459937952706 2.3786028409551 0.2765730528388914 2.0059662017948225 1.4212536341646684
