# total energy = -340862.5643969294 ev
CRYSTAL
PRIMVEC
9.37094959005655 0.00000000000000 0.00000000000000
0.00000000000000 9.37094959005655 0.00000000000000
0.00000000000000 0.00000000000000 13.71533195514773
PRIMCOORD
 96 1
Ni 5.831851059852197 9.294257561110157 0.5792999103593816 1.3936291875791806 1.829367924279372 -0.16033116492431096
Ni 8.356159928414117 8.68107885734486 1.7984501206979062 0.5799202884478335 0.8511073943844634 -1.429076472643197
Ni 0.19839518126702074 1.5673756275495894 1.6633950606903285 -0.8195015945537241 0.18969290591587976 -0.09054474025879244
Ni 7.841001355488827 6.999583807867009 -0.22651740044970342 0.40688170325918316 -0.3232028368822885 0.7963878913543962
Ni 6.345332232832902 5.302336192429116 7.460317780802568 0.41588930607443214 0.5473685797640573 0.39358447192964474
Ni 4.339902204112476 1.441027116639856 13.152948393633958 0.7785791453077494 0.06288301267746589 -1.358169046999358
Ni 2.729017258447193 6.719429904273047 1.4551828728202494 -0.347887227002846 0.07503456043833528 0.07169778275561846
Ni 1.4891563128152168 4.876173526060953 7.706466383173565 -2.563370311418011 0.6464249570382867 -0.26425669736538354
Ni 5.156805348074881 7.119250831846635 10.012219409905445 1.3967895875850331 0.9754449148229846 0.5603122844089189
Ni 2.1610346436915853 5.060846826105314 3.2599968052632273 -1.2846285546080456 -0.5904849513375573 -0.8129200846814646
Ni 5.524980579487217 2.6920957177674962 8.438330035420206 -0.5202267292419428 0.3101989684234529 -0.17934344436075564
Ni 8.723070081655957 6.190711567549909 5.334660345327732 -1.1609878031262328 -0.8709023176232034 0.05865817596284091
Ni 0.8101120169241879 2.9908322140436505 12.687244069130756 -1.8009919442398403 -0.9200376416972735 0.7897469889991108
Ni 6.321745553165187 5.239344670487766 11.63900873091123 2.3738008184538733 -0.2998808743268965 -1.2061075782830069
Ni 9.149307715619408 7.067354514008016 7.830548998515697 -1.3538611636526232 -1.236971614851715 1.072240006866863
Ni 8.257933636687067 9.51657396493887 8.290958736601631 0.8445806490095391 0.028545929958492776 0.46511744697262475
Ni 8.153147680372252 3.8528189956228123 3.1539776320059136 2.9506321835637377 3.405993579590863 -0.559264816981011
Ni 2.3546478294741267 1.646738198112115 2.6237571320921775 0.6977364628280693 0.7953774478120108 0.41206813255612906
Ni 9.320430622815332 1.6349589147023742 11.092891352416519 -3.0660549180111327 -1.8161054028425112 -1.3629582408578849
Ni 2.5372407787492253 5.7077140930034815 5.440172550221906 -1.5632392067022562 -1.1890225977762618 2.316184196381669
Ni 1.8286470680802043 1.5720892151033679 8.847060861693858 -1.774916587309027 -0.0650774492256234 0.082489988275116
Ni 5.647964919558368 2.539630370849053 11.014865079240018 0.33074002579959816 0.5593514631575464 -1.046302718175811
Ni 7.590290974944511 3.860653109330484 9.078520500862972 -0.0388802220049653 0.6423484729760679 0.38639206794626363
Ni 2.161990480531516 2.956468942553182 6.889060019227784 -0.7411420835072139 -1.2772075795536262 0.5557020393304172
P 4.598540407858574 0.03570238016131378 11.121762310457148 -0.20081806929476384 0.21237697777695683 0.221370953745451
P 0.21761874688893185 5.44364073859895 13.975648406902064 -0.48228830232495645 1.2795390559002802 0.22735699612555682
P 0.7473266558698812 3.0284659468785904 3.3412195092838544 1.1677058385763566 0.41257823942332816 -0.2883505050897937
P 5.251789291305694 5.1300138037085725 2.0628683260407654 -1.1796498983121104 -0.2513520734885736 0.6003243060254823
P 1.062974904548231 6.852403676416421 4.129398819111384 0.5322885455024832 -0.9809637877586849 -0.6695787694469307
P 2.5026338625740676 6.656241592394063 7.57933914636777 0.9868978938549324 1.9600072185662052 -0.47519745691644616
P 8.493509933932472 9.488367407211484 3.934778256267151 -0.23340448787121737 -1.1062549303597269 -0.04931221597156669
P 6.612835354721892 1.9166683958985775 6.692711453312146 1.0527240483211227 0.08938388718147186 0.20578826881584558
Ni 4.1965360490722015 4.642640095787166 12.065377558166437 -0.8479431377238686 0.29439156907755104 -1.2286252997695486
Ni 4.314347625068431 7.319686068800451 6.309779787862166 -0.1725408196166254 -0.7319922986871459 1.5156696844534092
Ni 4.165649399813247 3.680637171143435 0.5041964363041966 -0.4655848735273465 -0.5175476397478829 2.045326191649684
Ni 4.287687273993879 4.562256091738831 4.05810651018169 1.546531407029272 0.20966729215527763 -0.13714829904994444
Ni 5.543188334192965 5.659856654361042 -0.04028290023345482 -0.3545921498268474 0.7927716347580476 1.2736594571910516
Ni 6.804508753976338 4.082913287462729 5.4250169137393485 1.5782958439250625 -0.754384550339417 -0.4406186905003121
Ni 3.5041915646820114 2.3181667234167507 10.051089170967707 1.0461584792884628 0.01516745176905775 1.387725677610552
Ni 7.290823544614292 5.478032122937653 1.7116460792080335 -1.1929365881186875 0.41399825969930637 -1.2113600849311976
Ni 6.2018536263996955 3.125942562652754 2.8199407692981806 -2.376211741888211 0.07294631045073889 -1.331962563807319
Ni 6.2351486096573 3.0780757530609035 13.19807138923824 0.32909066312163326 0.4525943748049496 1.6670163864909227
Ni 8.478563269621782 3.610795485182577 0.6808013489056086 -0.7549139404803257 -0.6495313638777523 -0.1347592299924776
Ni 0.5296769848478928 1.436472835226066 5.235347960563935 1.3085315864778884 -0.7968889993605308 0.26980770909059987
Ni 2.892409132378967 0.48610300718126304 6.3542580621469655 -1.4015654117071217 0.46944872735812704 0.9386827676022865
Ni 7.939855500826422 2.07987285084213 4.2101539127563985 -1.4889237838181324 -1.4412629874070597 1.4897449941678471
Ni 1.9229469320040082 0.8853682374547736 11.602800319481718 2.025784007851698 -0.482831062202304 -0.3033796315087743
Ni 0.9409089175193659 7.697953812728531 6.110468127742741 2.199893457507024 1.9250816103336135 -0.46915947825248233
Ni 4.001610930372108 9.272591926071716 2.3121168384769506 -1.9120515166225327 -0.9652880288946406 -1.430940008214497
Ni 5.574749691809518 2.099223861376032 4.7912314922190635 -1.1548626640651014 0.5440693401874952 0.7680360796845804
Ni 2.613717096893135 3.008280921847101 4.702658215480378 0.12391328841690918 -0.21512163040162952 -0.7483344874905951
Ni 1.5289922187617628 4.002679218604972 1.144729878495408 0.3934158075622644 -0.5518831798049592 0.4511242180173263
Ni 0.2815923443285646 3.6554105753287796 10.241347556861077 0.32791078388091915 -0.3522205642708772 -0.16853041290565168
Ni 9.030718350822058 5.341066326345153 11.9062241646533 -2.8923738141424766 -0.16831418312978755 -0.21748601686874802
Ni 4.875086495929266 -0.0029452893999057507 5.448991550712683 1.4506122898324436 -0.4937477091148077 -0.36685245525143917
Ni 5.843442924273716 7.792862788364054 12.356745676920653 -3.0190968040940396 -0.6077843618479533 1.0048611632015727
P 5.655667839974284 4.954833275417647 9.609812100294397 -0.6528794544143789 -0.33865722376414575 -0.5258335339057589
P 5.689928031021231 5.811459873933664 5.403195720940684 -1.1936048178303058 -0.7686536586639214 0.8179764161584493
P 2.2336313887793033 3.8762932238975942 9.382918924773307 0.5664675053770374 -0.19279417054902281 0.4123298708579479
P 7.75810593699832 1.1798119018057078 0.4718020012849978 -0.27156942897671293 -0.11616115527531608 -0.16654552126513897
P 8.618349721987018 4.7017707865711476 7.08119821757302 -1.0742403251263435 0.4693363701499788 1.152110812351577
P 0.8161703357184579 0.4699175033584275 7.1866007823590845 -0.6117819130431207 0.22982859759450094 0.3074003226323932
P 1.4505105174438797 8.89582353404941 1.0490815349513483 -0.09870259347923646 -0.7049586916081214 -0.2993653681430586
P 3.0611237055762404 0.2144972836400976 4.158680224736219 0.3378131305962957 0.5844811683456386 1.5089218242066142
Ni 8.01040000799311 8.515025633780335 6.0755903911296025 -0.5545206174278063 0.5648834487193691 -0.6455266135937334
Ni 1.203642226158111 8.916645783640853 3.341973870711447 -0.39677881049722635 -0.6981889769844556 -0.6691779344640862
Ni 0.2785777099030168 3.9408215815423637 5.367398694190318 0.36008402617935403 -0.660625931129017 -0.4192304546325231
Ni 4.037042490095441 8.747584485315368 8.603668255544664 2.4511131191827915 0.3835108897437266 -0.07354794859047979
Ni 2.833072280707942 8.027370797376596 11.075541976676826 1.255725241310134 0.2212727376046899 -0.6237845939309514
Ni 7.629611478673447 7.489412704534122 3.5789333200899285 0.130813100860536 -0.3201949032939002 0.5363082081848376
Ni 5.933685167102518 0.21651110066854096 3.2681307893520537 2.8227992483774482 0.42789378673447603 0.05671545041417329
Ni 1.9001474120868251 8.505326701139856 8.684616390747545 -2.7244422111630886 -1.0778509252957371 0.2657703057964326
Ni 7.442923424505702 6.396469503769223 9.593243324640646 0.29626513195118004 0.5593234381330883 -0.18242388305829227
Ni 3.5126629029496375 8.529887959546324 13.659880210071252 -0.22903721204145716 0.423738884025838 -0.18020399258883804
Ni 1.7901137241018001 4.9380311631235605 12.21551890963093 2.2758343318097127 1.9416485135533592 -0.08809422183577087
Ni 3.865226132643096 4.797260761070159 7.257070321930485 1.1018012654637477 -0.4152563004761235 0.2558039386123401
Ni 7.7104452882935135 8.236605355827425 11.503734390687432 3.1567366980684213 -0.30774485045600547 -2.061576592070275
Ni 3.556322156255908 6.978405462197945 4.035037106921467 0.6278109414815252 1.837935611343725 -2.4440603261010683
Ni 2.202088773061573 1.3782323846361384 0.2734958440373824 -0.21141769918748105 0.48037540157295977 0.42871833951830035
Ni 8.90175534502663 2.505557598790328 7.646708775873982 0.4044404408075422 -0.2631606360877274 -0.7683132446053671
Ni 6.391596610075457 0.2771889352002932 9.891470041268837 -0.5700770771051666 -0.1218072978174999 -0.6074182367577862
Ni 3.247296357526376 6.11243602711907 9.591405681461133 -1.6103055640624397 -1.7253758002664221 -0.5435227236554058
Ni 6.727976210135961 0.809538514820229 12.242182071990305 0.38097501069575035 0.6172010271761629 0.4351522680691021
Ni 0.4533421680400906 5.829189710219447 9.72074165104312 0.9852179350493483 1.706776954218312 0.30269700361945284
Ni 9.46812615648353 0.17722433235748505 13.070121383074152 -0.8504059974420644 -0.09998171730197619 0.7762062742001986
Ni 9.247271620762948 6.0612425304862825 2.4471578420604123 2.066973080495498 0.3925814845864271 0.07394338425668555
Ni 5.4472672960210415 7.4742505083869775 1.634277646680188 0.20899931955397555 -2.612146966601082 1.9299361102124373
Ni 1.2060693020555835 7.406189302814227 12.554027589397634 -1.2057746204236202 -0.5855006107490884 0.7498128718083344
P 0.30610393670315406 8.470307463190611 10.479048248337977 0.8370182632812487 0.13792914308002696 0.5645898287383503
P 3.3137176469521856 6.52645394305046 13.051921125127931 0.28552846225996636 -1.0329815755868725 -1.212150442042977
P 5.667615800473425 7.556630524659875 4.195094797052776 -1.037403873024284 1.6958477089003179 -0.42950355442375704
P 4.146720082002845 2.3507776273673464 6.687554619851222 0.7173236409313775 -0.14547430241713655 -0.4189494330569946
P 7.791972548170001 3.168374221586172 11.852377752242232 1.1847843913251983 0.5242859869129809 -1.432812285536545
P 4.935482264883745 1.7420220117240837 1.6872057060489685 -0.37967480382708807 0.16848310460748403 -0.5554888948783465
P 6.455337807969694 8.346863946598315 7.956743825855089 -0.5899596749617064 -0.6806730795878793 0.6575048690015322
P 2.8728332190591988 2.985247128194641 12.463450803674858 0.734565972951593 -0.9060449269626073 -0.7705737585047696
