# total energy = -340857.63429690513 ev
CRYSTAL
PRIMVEC
9.47865590731836 0.00000000000000 0.00000000000000
0.00000000000000 9.47865590731836 0.00000000000000
0.00000000000000 0.00000000000000 13.87297103758493
PRIMCOORD
 96 1
Ni 4.507157811048559 2.794497368809934 0.6836253169111027 -1.3680284562919407 -0.32962853790297425 -2.0284798095163064
Ni 6.026008173577339 4.357916371960599 13.568320742675581 -0.9866076163080235 3.0094644232105976 -2.100986204216149
Ni 7.58066889856241 9.264324653369526 0.35592732513995157 -0.5118217930076993 0.07553566844446992 0.13850198486436147
Ni 1.1240738178114442 0.5278644582102687 4.642700696451545 -1.3588671015076468 -1.5498339890399437 0.33157537721669994
Ni 7.943682466945434 4.425385445534946 5.221730939875965 0.2177737233124959 1.8914418107919815 -0.4281596388013529
Ni 3.9987037446429476 1.0982539588037845 11.113456889301427 -0.305820379739783 -0.14155388431680782 -1.2590177960184767
Ni 8.246032636778889 7.369057902840677 4.402809182618484 2.2574067212321447 -0.2054504258604526 0.2670802828571077
Ni 2.8604877720446353 6.928518406842511 11.04575653652011 0.38350908997151373 -0.4083875983807483 -2.5075874001204363
Ni 8.061445289379783 0.23047636480504777 9.172281216188988 2.9619589214304667 -1.3787108757064515 0.8919627378379283
Ni 7.3228494547267475 8.746799513149547 11.440456304123655 0.06489644356306887 1.9232797812381843 0.14380051425913945
Ni 4.957773118399568 0.995808644503202 6.648552083208243 -0.27875900474661663 -0.3754152572197857 -0.18177776483386113
Ni 7.508507890256495 6.478699306597465 6.545267907849593 3.082516920221898 -1.0221266351502398 1.7078192794398974
Ni 6.901997127289121 3.3214632504291863 6.962233986317638 -0.1488352484695695 -0.3009746216117075 0.7943032409112256
Ni 0.6316519502037605 1.500812480116307 10.449121585263484 -0.7280083743387332 0.5756759113491827 0.7599710432882589
Ni 1.5713336809301797 7.573948531441842 4.137821979097948 1.8552381071779147 -1.8466531937223811 2.686663706862734
Ni 2.139493801626999 2.279029096947028 3.819881315837254 1.5395966275826516 1.1810758321253594 -0.5702004900569083
Ni 7.052707758060704 6.542651798787142 12.112629508827322 -2.2477614848328966 -1.0612703952292366 0.5564597434320481
Ni 2.4095217544207626 4.4449493915671825 5.918639645338218 -3.880022470120505 -2.1254001142841394 -2.13305146018181
Ni 0.7233370941866135 5.79227399469706 9.867164332859048 -0.3931252729050391 0.2950096622775242 -0.02103625184500893
Ni 1.0853629866120014 0.970187837272033 0.23894364823072414 0.08460472062527365 -1.4597895854563374 0.28052046752241366
Ni 0.262454506631091 3.5795386179774806 3.7369762509288487 -1.4556786486117577 -0.9931323048004186 -0.3297483513102902
Ni 3.66641997908769 5.53989529941881 4.371387437901013 1.2213331369835094 -0.5655645339467936 0.5765516290859167
Ni 6.382671042424704 6.297230437030048 3.6202352276138194 -1.418469386551312 -1.5867504024503187 -0.2684799914181118
Ni 1.6354852248963474 7.512526840410404 12.78001694010479 -0.592884047697353 0.989531731933354 0.9017534986761051
P 0.24465548635040688 1.5826038029419665 7.927154534437484 -0.39532896542457724 0.9904156772002038 -1.6522626252205157
P 8.536961026104184 0.12732109916831474 4.009704672823671 -0.547777642277018 0.2950366588607177 0.7688025255369598
P 2.298062238241955 8.357767033982375 1.1880244142699168 0.11299766994566991 -0.12706648933391018 -0.16721786474181524
P 8.938922392087234 7.3217499306280365 11.521932935569339 -0.8865407954914087 -2.7452951433526978 2.2824114708065983
P 2.0388778679389263 9.583584745548672 11.285287861424283 1.9841316224182348 0.15394762999547035 1.679357681665095
P 3.3036054624811575 0.6082301911700133 4.9026661080109 1.7738539503724677 2.2476573551548644 -1.2372508366550306
P 7.520024457324889 7.493142988842613 1.9459614465386377 0.7298060896691044 -1.4449748890410083 -0.9996186838557106
P 5.124749122907253 7.94594786573502 12.882843296377512 1.4278384864710378 2.1026270822536826 -0.2309889364511893
Ni 6.431770480625761 7.9993790497387565 8.285285647102869 -0.9576438820858217 0.9933745027182118 -0.8469537772274058
Ni 1.764413904126226 5.079535933675778 2.8693190358616087 1.1176683144029913 0.5432044210840387 -0.46631172439104207
Ni 9.589840658524096 2.8885256365617638 13.041730215834853 -0.0779393927899561 0.16083638669550365 -1.6144103302594328
Ni 4.6260770295177585 8.80316908052053 1.0365403251668273 1.8577960977130779 -0.7401051576022672 1.433589787132518
Ni 7.183958708016308 3.8316898255111687 10.826730388191292 -0.4225366361876207 0.7138058575861062 0.49883695071225703
Ni 6.486045265015577 3.7327516139392327 1.800822369777592 -1.3947067369140755 1.8569471194492215 1.3171499242745188
Ni 2.410327440182749 2.4684031656379366 12.54414911575365 -0.07249739583877837 -1.166516703364262 0.38959334849238064
Ni 1.009751747513579 3.7214151413352825 8.267014589752222 -0.602323338733382 0.1178100037326487 -0.4991621952621597
Ni 8.947386831916104 5.538378714455072 2.576321455926413 -1.265744316109033 1.6529138856512695 -0.34544133656551473
Ni 4.474608106264307 6.206197424581602 8.558624494445596 0.8337869008281447 0.4587727357015195 1.5021425965012516
Ni 0.3981310410840064 2.604620931349786 5.912993209945097 -2.2240602845612147 0.3570169572182561 0.03166030721775838
Ni 8.961794389071626 5.216758436926105 12.617037136976558 -0.6663651476056395 0.10978147700121738 -2.3357281799518677
Ni 7.074470752290361 2.5325357522920577 13.396809201260714 2.9454879203586373 -1.6403010819832655 0.878167740936365
Ni 2.35362611985095 2.1906216722170564 6.7363405516998895 1.9053553355492798 -2.0413209271450325 0.9579292745367245
Ni 4.110277004694035 6.171467628911975 12.876920084228509 0.1383405195858327 -0.5622187574030124 -1.5623704309440576
Ni 0.5686937690309349 8.432923297591675 10.368187132942337 0.7167960505626817 0.0063624518829180745 -1.6865367159120375
Ni 8.733254513692152 3.5932447545872734 1.261081155570041 0.25142946369372826 0.021291048168292363 -0.050067348970036354
Ni 8.263198482837213 2.5341186878479602 9.09632684974252 -0.46245609809037774 2.0016158952459273 0.1170345590192049
Ni 7.597493513003894 2.2690765081224895 4.699954622429507 0.1889989651726487 -1.1313432407869224 0.10222629036177878
Ni 9.298665824142194 7.176916066590944 0.4774313731067242 -0.7485288628895883 -0.2915016491242657 -0.12682634829864609
Ni 5.541250747230152 0.9345405076993432 12.963375853683269 -0.5371813548184103 -3.9420462201214685 1.7815214942200546
Ni 1.6642339886152286 3.1064683745071093 1.0974852398002892 0.9141112489105095 0.6011822831504033 0.9876594546113054
Ni 2.0232665214684364 4.873365686511457 12.879902069413461 1.1161174249761037 0.029963893351941946 -0.8479189693541527
Ni 5.560947394446715 1.307665906328097 3.933070686740327 -1.5564736058436486 0.5086539368026789 -0.23187339593867165
P 4.049452468992071 4.964910546385165 0.6522983587538651 -1.0881962730858035 -1.4978298280585107 1.348424051797452
P 8.134535205975988 4.946465081763687 8.228239303691819 0.07059349394784617 -0.5591732857084692 -0.7139606379964155
P 5.663534888587649 4.029916958927905 3.8716963889890064 0.6743697630776708 0.3903034871855278 1.6579907859535445
P 9.614864310425792 3.6996426684496018 10.791590166715853 -0.7158478277167993 0.5110072675262037 0.21097007012710117
P 5.564283881366942 2.5729243056076374 11.849695382201448 0.8226329410938542 1.5264274371905453 -2.1261560186135577
P 0.48145980191665644 5.634160533571224 4.594006944728289 -0.41866198372356284 0.12672813215788495 0.8721608726206528
P 8.8856144306118 0.8431510977844193 12.752021729539766 -1.5148929541883847 -0.14281269642457342 -0.4888392160695968
P 6.844129932266448 0.5078171007208413 7.603581653767703 -0.8797877930382912 0.7083980563069735 -1.6740182717300525
Ni 3.8906755019446004 3.894770281346696 2.652998095961862 -0.4725247951802894 0.021747933200052867 -0.1872552430086646
Ni 5.440795950694477 6.458964744756809 1.1023326244906406 1.893803111935306 0.9932968554027409 -0.04392421218677597
Ni 3.1549990933467633 1.154680398110906 1.8605739216177117 0.061323638610146 -0.3608162763596883 0.5137681181007926
Ni 3.9013484686269146 8.497453987798778 8.326071356105826 -0.2476967361241734 1.1898499787735637 -0.04387099035133735
Ni 4.988597707787567 8.057540083098155 10.532540393328357 0.5927801751296372 -0.3513368761143433 0.547417944944754
Ni 2.5460049225012664 8.775842115205155 6.282000132531697 -0.5050875596076592 1.1351196771102192 0.8116748994204538
Ni 3.539879921175701 6.832480664013726 2.519539567018415 -0.3698408484558018 1.2853142678211604 -0.7842137178857075
Ni 2.6756445009328975 6.6044242000914455 6.458117352908319 0.7616651431612302 -0.058778503590789094 0.6327705994796456
Ni 5.974235754377693 7.776270444260673 5.912826385599085 -1.798533969617651 2.760755700882142 -1.3625502067861888
Ni 8.875614448507145 9.026495695087148 6.232557566982594 -0.639593278828434 1.5520762481069013 -1.0162154118721274
Ni 0.5070938792662582 8.27917001823659 2.516585069935931 -1.8025299781509216 1.7867781146333033 -2.1697177052545924
Ni 5.101336842529529 3.622647545571767 9.10107186494782 -0.42217436775219547 0.24351303706012897 -0.09976805862927333
Ni 7.585322918669886 1.963768997609743 2.318229026797277 -0.08172328531242055 -3.134351388394686 1.0240701320298558
Ni 4.465555989761988 3.2519657444658385 6.042122836682671 1.1084838196902456 0.23255088162167048 -0.8894520556009328
Ni 0.41301821823431123 5.728985008429018 6.936555359284726 -0.3548016947344922 -0.12476226668076579 -0.3570352120507012
Ni 6.2039035898239465 1.2344527672035874 9.820385269652512 -1.6708434735464968 0.8991016628755547 0.610812864261632
Ni 9.196902973075295 7.873237095379749 8.036653864550658 0.13678423084230637 -1.5423559354953438 1.35429902252099
Ni 3.2400415951884387 0.20728304138146378 13.48744126655937 -1.4850928401078165 0.26886848510578215 -2.54857566960734
Ni 1.50847123418319 0.1636499441090848 8.607346682136921 2.460674280508665 -0.6924968116956848 -0.6004310068066756
Ni 3.9038603124731077 3.7874624165061244 11.38546398547287 2.9135329647185952 2.0972174812023363 1.472859017045786
Ni 6.625447859151279 8.689017626031085 3.4078119110708824 -1.0854755317205305 1.6204046001696544 -0.08184489849194937
Ni 2.217977073500502 3.4811217324868307 10.25412382995391 -1.8992093705525417 -0.40061875306860684 -1.315447082650799
Ni 7.02780732868731 6.34361897960842 9.536849284159842 1.199498300496605 -1.1796648107104457 0.9262759092975015
Ni 5.504501997827547 5.577307554743052 6.288091116892314 -1.2839927207962596 -1.5849380318319286 -0.376395618855184
P 5.629241111095096 1.3120071307868006 1.584112804980887 0.14239129261643865 -1.5429778853500589 0.555177791395831
P 0.575112714889961 5.068436427472411 0.45327312249996116 0.21320924387026505 0.46666062309002854 3.002268933903423
P 3.5994153596584875 4.749546002878176 7.431834093817854 1.7432992175140622 -1.157713246140019 1.3918870080770933
P 4.099916833660492 7.635360743817256 4.667949940366598 -0.08709611958855969 -0.080252614304165 0.12174147757657097
P 5.3084549552961855 5.6281605443084315 10.657909837221458 -0.560612589258157 -0.22747500976065985 0.08452553064790604
P 0.18894373770744755 1.488926245463001 2.123577242432556 1.4221771744202023 1.0940164793120062 0.7122768225360894
P 3.6702209201530613 1.3524999493186372 8.420394410059984 0.20155314768857546 -0.29969318379612253 0.7132394435596748
P 1.9305273509357843 7.399692919108208 8.458766853239393 -0.2251124230657542 -0.6529874407471528 0.27947814230082835
