# total energy = -381165.01261792466 ev
CRYSTAL
PRIMVEC
9.28335328342582 0.00000000000000 0.00000000000000

0.00000000000000 9.28335328342582 0.00000000000000

0.00000000000000 0.00000000000000 13.58712590602324

PRIMCOORD
 96 1
Ni 0.9210636615269137 7.425336410005669 1.6272891801388312 -0.7337715020747556 -0.7231693010788771 -2.1233769132065237
Ni 1.6883634319817107 4.103650546692271 13.035474647688762 -0.17534640738622062 -0.11962006035819397 -1.3512553505986598
Ni 5.51360621859738 7.4128688667651605 0.4839792599069539 0.6124707115800291 -0.08361098925343664 0.255213870436825
Ni 4.431612845724821 7.702917951654569 4.770303915958456 0.15167760301437105 -1.5870481361963957 -0.2648655345939761
Ni 9.025823621350998 5.435626052387195 0.5029655737085099 0.21048233185740522 0.6785884291447087 -0.8352575718364001
Ni 1.066712973636611 2.172750231090644 2.5591892997630246 0.3319319892251703 0.8796839204705754 -1.1894118627948806
Ni 8.332468543505009 1.411236774635705 9.417562556319734 -0.5515031707577212 1.07392176544466 0.18044696183757955
Ni 8.2957621652675 3.1566185614820537 0.9704919468804267 0.20114768472004066 0.45254835205836247 0.11780691840885518
Ni 0.4602751460496816 0.3356099253330203 6.120266846659195 3.1724906184685686 2.363027381987453 -0.9631511850572961
Ni 6.992045186470648 3.134264247168467 12.408307092584293 0.5846169225925545 1.3817074964409302 -0.4167035744456114
Ni 2.4974076564123813 8.869482671452698 10.831819205725461 0.06958587861893822 -2.214271323495251 -1.644983317950283
Ni 9.056876437538268 1.70119302599391 4.377975488066582 -0.639981258295472 -0.99326703060607 0.1182082676123319
Ni 0.21791743114498638 2.9382462460341743 6.660545001563968 0.7214523183877704 -1.4306512733294845 -1.6099954890211885
Ni 4.270036084666693 2.4805305204397485 6.086217364084705 0.04602506057986267 0.18191634729425443 0.14361719460373976
Ni 6.814538191458155 6.619188591748521 6.79891616482738 -0.8366619083830946 0.2944352778312929 -1.6047023589430494
Ni 6.301168763907769 7.591916898395618 3.1550933065643947 -0.5818257330006624 0.5648325408767757 0.21823935009500478
Ni 3.977062743544404 8.351016683039289 1.8607980028492945 -0.6909361520767843 0.3938647221742249 -0.3582166339533121
Ni 5.719585257629712 -0.21464412083478268 6.023023722724471 0.7602389522376648 2.4862786113403312 -0.8008698383851497
Ni 5.3808264189183 4.647515789242711 10.73718563235284 0.3842341410629963 0.9718281440060036 -0.03083035511729529
Ni 6.828194003898057 5.546246488168214 13.164009169985949 0.9913888397467506 0.039047600820765006 -0.36354550236539324
Ni 1.3255699920419446 7.087292389484517 12.342436132184176 0.36282430792865256 0.13803250142711068 0.1555386286316741
Ni 7.996327610373509 6.808244078042618 8.706480915690609 0.42961796851443423 -0.7948567994218505 -1.2193718994920806
Ni 5.115396786503822 0.5916271660188663 11.086728014048747 0.2434996673236903 -0.22734131239627298 -0.917163405473272
Ni 2.5832693894216674 7.2656441696309555 6.218841203431365 -0.25884401099024457 -1.3053488178745327 -1.2537670891424988
P 3.297567711906963 6.747261731395629 11.404163918978236 1.09596743239079 0.05158841360025309 0.27023862598043136
Ni 2.5957183659559364 7.22623633563545 3.2198632612844498 -0.9434709330195493 -1.367049123097807 0.954799213548175
P 7.9798775086444085 8.378393291390935 10.26954321726692 0.020148707033733042 1.1528029533225952 0.36405740900480527
Ni 2.5454582921628477 9.1137091253405 4.677966115812476 0.48291359461378125 1.8162941218145494 -1.790119006081078
P 2.0880117838089096 4.542725299221215 8.913983352969977 1.7886773885385454 -0.9403650404007159 -1.0746779268843942
P 5.511777398032689 1.4820501922370495 12.924617486403177 1.4343500623373104 -1.924526252050776 2.2903422956179007
P 2.634912682829674 7.997488029513542 8.403447204791894 0.3665686054624332 0.05667405565327659 0.7299305310621107
Ni 4.957013498919063 3.924435414705649 3.326182719564853 2.187058253415569 0.503699678121197 -0.26573662434501977
Ni 2.6571184634933362 6.413942937612688 0.5522388270649146 1.4274096264637353 -0.3659967921193632 0.2825876344640875
Ni 6.249943221390174 4.8708825486692895 8.369465490695182 -2.000856134261767 2.1080117436043633 -1.204830511342796
Ni 3.8804973043874575 8.862975040915394 12.756680700122358 -0.23656180255327647 -0.5642021063816284 1.4168573048691857
Ni 7.338704158687402 8.936870531752666 7.889187503677276 -2.0024365913750093 -0.3953796161568546 2.251171281845394
Ni 7.50530321378359 4.078529793148847 9.904457717441764 2.5173205682478 -0.2934243200682753 2.29011989519445
Ni 7.713463840799183 0.40431509344075356 0.20469979297236 0.46782019061576846 0.14995804922010306 1.3130765255360934
Ni 2.8213409801907385 3.4549669640609735 3.5709819563401766 -1.7120212333363871 -0.4658730941917267 1.121578962311307
Ni 0.3548060429150942 3.827452224658291 4.09670845522894 -0.9214856869977097 0.2339127949662036 -0.13082698481760696
Ni 4.7356148103539795 7.6019522031186195 7.278093146165223 -1.1310609336598134 -1.1815520004308295 0.49543332434734677
Ni 3.0307548598775664 0.14965786398702566 6.785437664432075 1.859404065630146 -0.6969890431390835 0.9802847594137892
Ni 7.639661183493115 6.199070446291148 10.77551474071577 0.03072545410831482 -1.021725800167395 1.6425621101033
Ni 0.7600364749735053 1.8867486881616697 0.28206725787660797 0.4894282558038474 -0.6984453159696359 -0.9153569483921526
Ni 0.4613018849047824 0.5335328705275905 11.775839671183466 1.0806467428733197 -2.4398151776714694 -0.4047664566883932
Ni 4.540014560110098 3.1676750350482834 12.43034484455648 -0.7859476698576786 1.6814413036670008 -0.7143745856053826
Ni 3.7625708697007934 5.258146907434061 4.830549164367696 0.40603915275322977 0.740052707097777 0.846142337069704
Ni 8.970429853282406 7.806640856067235 6.723902029939119 -1.2174785391241096 -3.16631945666085 -0.9174680811978845
Ni 5.715082831366386 7.305414054398149 11.547969557158249 -0.42717387784931593 0.15803645535286331 0.7301020236429684
Ni 5.653329966410416 0.7048432273323109 1.5898020719039088 0.8015308690079163 0.06517129449101035 -0.8438244875698049
Ni 7.932495274318601 0.0805980717900985 2.9798737297607327 -0.26266981249423793 0.01616426846468829 -0.00913410109078427
Ni 4.406854142953087 6.076316667981948 2.4850988585102285 0.6371730994227155 -0.14281835285152822 -0.709018977720424
Ni 0.6059402398596834 7.2264312860509765 9.974471838339452 0.5711379142695131 2.08977439466073 0.3623748790960598
Ni 2.9393880984679663 1.653764374902501 11.413987563250094 0.027303058690327175 1.578006594819418 1.4967875028369255
Ni 7.780174016321372 7.467352866227968 1.343742155774854 0.8162728032037813 0.3005161939180502 -0.5774414878900378
Ni 1.6060200898050032 4.502129196026317 1.6359440502528497 0.2911679199339308 -0.4804777314787789 1.8271135810275563
P 4.8555650160208605 9.404408044948326 3.621321866970099 0.22981677051995905 -0.6347531771273133 0.22054100164498794
Ni 6.079185224096109 2.5031169185813416 9.953140549539718 -0.9764913538096279 -2.1369348543966162 -0.5224376208503324
P 5.582349448452907 1.1676972888788009 7.862774507379512 0.0018015719851130262 0.835468916516258 0.3077476786694828
Ni 7.7605304411189024 1.1716798473673922 6.394617781422244 -1.3863071999964705 1.2322161024446006 -1.10087798231853
P 0.9696833668236521 9.011592241017638 0.12697491897298202 -0.5306088438072152 -0.4744166128863635 0.042030594708488904
P 8.87529405050598 4.599845770970175 11.974523851333897 -2.7961011702609717 0.29071566288786066 3.1389009554385807
P 7.594776171156658 3.0064231913493646 2.9482564857037508 -0.6401715199294071 0.05998255120121927 0.950232163002783
Ni 7.351487335934001 3.173300747039161 7.575569841886152 -0.6166551819750218 -1.4898578655966277 0.30474694416994613
Ni 7.537572149229615 1.067214274705105 11.656829869187666 -1.492391430651759 -1.1482772975380997 -1.5475541918668314
Ni 1.041053785612212 -0.04669062451834834 2.7257400814229875 0.7544891942380813 1.5370826029115465 0.2087319248252018
Ni 0.7037691433762967 7.829932789045968 4.481876632859158 -2.1863419440748344 -1.7817698627854346 0.5187784268311904
Ni 0.23428862437256515 2.6668752676227303 11.42150058093032 -1.129919878076835 1.5113072937196552 0.9237397731392093
Ni 4.5810562642547685 5.565156678474185 12.888067996833401 -1.5359549170650064 -0.47600581175035445 0.1397944784235399
Ni 1.5242708822279925 2.2391819060192253 9.739074781604328 0.04718848476034453 0.37944880385921104 -0.7754403425684516
Ni 7.428307083004152 3.4331232341690017 5.267918564928448 -0.3584837715717697 -0.4988510917796441 -0.9689482513550473
Ni 7.113889196174063 5.6132908644027335 4.399783012881385 -0.1440511968173648 0.796247252011474 0.9792054103066813
Ni 2.215249421675195 1.8803988746274118 7.679307599663811 -1.4611255306589417 2.8481120161106244 -1.3869882852238953
Ni 5.916113843185619 3.1777381898306456 1.046736126057123 -1.0642243356512382 0.18812350454623084 0.32345223388893324
Ni 3.4711292818433463 1.3527609333311863 2.6510248705051978 -0.9604926643885263 0.5160132053812274 0.32210163339830983
Ni -0.0068019128312146 4.074974268903787 8.56791944368823 0.8459687876063172 0.2698113086350256 -0.12429124058161818
Ni 2.992080410778563 4.464104581645731 10.978954782669712 1.0162953731804432 0.26375301825608766 -0.3180966260039747
Ni 8.326239413561314 7.627490707552455 12.495916880986123 -0.559198739629766 1.0544490014320291 0.4173296380653845
Ni 1.2140212209488987 6.392656208907932 7.742052855068337 -0.09036142060339276 -1.188106770830212 1.767853766924975
Ni 3.170320790687557 2.0527628920112817 0.3974166337370883 0.13490526865203864 0.29728843100937186 0.36006988511196697
Ni 4.212627828971004 3.334701124388004 8.796576786058045 -1.0768402246430357 0.5198986564785627 -0.6006989157560816
Ni 6.82437854576563 5.51041274512401 2.1666705631321856 0.06773262746028334 -1.5499625441980083 -1.370359932638595
Ni 3.630533738271333 1.047477865971432 9.177179410623719 1.5558799381237076 -1.3355132572730548 0.05076103260295129
Ni 4.073516782463907 5.863319413990699 8.871387615512974 -1.1890351961817522 -0.6587690804259364 0.3142353432763556
Ni 4.819192838495681 7.958432962936608 9.547198084296983 -0.9071523010941731 0.7715047549594712 0.14489220466142144
Ni 0.3921390474882203 -0.07796345617456865 8.41999571006407 2.085879430481698 -0.4877614096243858 0.8536792688766974
Ni 0.8526369940127883 5.09607812866056 10.529465036275148 -0.20710338808284331 0.301629481586887 -0.11611513252872906
Ni 9.22576848085516 5.843870789203754 2.8811499110033263 -0.4058607181938365 -0.06206000255553828 1.1354855450900703
P 2.074634471962615 1.901360685972959 5.354061583537278 -0.07623603694560419 0.6302609456839146 0.06417242091285077
Ni 5.826399518631425 1.9584997244281601 3.989737305559495 1.0569625118825023 -0.6773051915569109 0.22141029162381867
P 7.4760235180422905 8.227910137311518 4.986665457120486 0.7145360508839114 -0.6336833411019022 -0.09879258208988147
Ni 8.736025186995837 5.245874314609078 6.4746319303010775 0.41042339786385446 -0.13451806051594897 -0.6109452760744382
P 5.769436863885509 4.731214500974977 6.053893656855272 -0.1496829411818454 -0.14128211871265992 0.03709767618324579
P 3.7966500590052683 4.207484851342381 1.4811459936431361 -0.08676496150138606 -0.22442876673516832 -0.9431631719711434
P 1.533962702885544 5.3334627512987325 4.738659750177424 1.0276084842004174 2.4122856047926327 0.687374659977771
Ni 2.3282649625612417 4.322635563446087 6.721388097914152 0.11535434310330456 0.040984669942477805 -0.29924324074289754
