# total energy = -381165.49547059776 ev
CRYSTAL
PRIMVEC
9.21996751241272 0.00000000000000 0.00000000000000

0.00000000000000 9.21996751241272 0.00000000000000

0.00000000000000 0.00000000000000 13.49435442301457

PRIMCOORD
 96 1
Ni 1.2048376558707437 8.744401306893568 9.872537133498607 0.12400327702755418 0.6233341366570941 -0.8508276583605152
Ni 1.2722448361861092 5.943485906313041 4.728502598517934 1.4257684913158866 0.7653230516287917 -0.2752358220847066
Ni 6.759729603935706 0.5017589138591807 1.2527833293868105 0.0810447711881572 -0.8080455301979825 1.4124056968557352
Ni 0.5227509352163171 5.354348441152157 0.5029833255054508 -0.7125604152147792 -0.5836170205731304 -0.16893716142576715
Ni 8.704358989274962 7.126057341357412 5.817037743934008 0.6495149088175202 -0.3957740233817958 -0.5623393421412767
Ni 2.612597570195991 5.535742076157561 13.037961171969148 1.581298378196812 0.6323895619911432 0.08183924206499453
Ni 4.219305937105695 7.166118098910451 2.3077642481141 2.375230608921864 -0.9809331916310656 0.6505430929717184
Ni 6.328640816789593 6.880437414726126 5.350875279501932 -0.25942713718722415 -0.353667581130049 -0.9058767768158592
Ni 2.845457062200487 7.463259202344126 8.827169874587327 -0.9773323616536844 -2.7442407339462545 2.9722147948305198
Ni 2.1666185359962182 6.6626064692835305 1.8718285242025952 -0.9206102263712919 -2.4074645292549057 -0.7805660938307912
Ni 7.870200895351824 5.955388883988754 7.749010880276013 1.474918727788292 -1.941510445313598 0.4176615674835065
Ni 7.96095303265782 4.279143524336815 12.009516240885908 -0.41358791163476516 0.5327544293953083 0.7031946577291631
Ni 2.926122555372301 0.44214721582484956 5.047455378394237 -1.5341826556559321 -0.06435882589204399 1.2748406219833466
Ni 1.8732668390882738 3.9148810595714676 9.265493570007747 -0.44600746561605126 0.38454781564867324 -1.5016764554981106
Ni 4.414280583820101 3.0273762353371954 9.49142886663311 -0.9906712448544358 -2.1333497081485193 1.6937620300158829
Ni 3.3059483247980697 8.589026419371404 0.6808835149327532 -0.9694223627779884 -1.1352402618484836 -0.5815660515813725
Ni 1.881389630205472 2.2062643950245415 10.905138425802772 0.18003070023576737 0.7472196571598615 -0.9534810089573837
Ni 8.198090589450489 2.8503344248576923 1.386423066194237 -0.6012103081748613 1.0016917643346555 -0.5969445909199719
Ni 7.662825392732046 0.9293265955255448 7.976850100131458 0.8611138707778718 0.17830394735264773 0.2684167422803441
Ni 2.8971441984127613 4.834545129454761 7.0512456053709665 -0.8171194674747927 -0.8327121797067273 0.3484466990507418
Ni 8.096458890829744 8.842437218300118 3.097197203069681 -0.24621655203422108 0.039733056923563825 -0.10017043627401459
Ni 8.450634711460909 2.460772370051945 4.9285970930273235 0.43250840268835195 -1.2662163706494451 -1.3603781388355345
Ni 2.6270636987577216 0.22267327222438155 7.742898042011878 0.30747179930027696 1.301204713799172 -0.9454565959910104
Ni 4.473998311477415 7.11260540918943 10.823119441443664 -0.9641791121011782 -1.2034038061985983 1.320599830496332
P 0.38407709630901504 1.5807449392297592 9.335609576691139 0.3016248536011966 -2.2681855570152036 -0.9547624467729686
Ni 5.663235782818875 5.230385981934528 3.203047036691696 0.22941105044110816 1.465075002224993 -0.6763901359418093
P 4.943359182536684 5.747607702811477 12.790853142629215 -1.0910478836019857 -1.5525974107176936 -0.3593507475577553
Ni 2.5856199461222995 2.240977571592364 3.24829310380695 -0.5717272111140799 0.241741546982003 -0.556957251893757
P 0.4450358315535876 0.4135616294687069 4.3229162406909705 0.9220413023908638 0.10252556676975245 1.9670368717194768
P 3.1524174307190838 1.488065828775642 1.1507173703101963 0.9212627723536263 0.9905514314471199 1.5858124640170816
P 6.760162942394852 1.6592621800402714 3.140082036580946 1.2049438969922088 -0.35441011572302833 1.3010044248629078
Ni 6.404631786582952 3.4612217926808584 4.340229495128967 -0.1658055577753209 0.06220552699446706 -0.1829296190501172
Ni 6.003627752462286 8.87212551273528 3.890111617645981 -0.6857895748788383 -0.8926301962185981 -1.9719541065154362
Ni 8.102313570011832 8.354710172546799 9.643510381865758 0.9914279205148023 -0.7002497161682263 -0.15564095853749324
Ni 1.0343235821800902 3.8637379014249302 5.6803268360469685 0.5974665248617129 -2.1453073947310277 -2.780933718491914
Ni 6.321412362492336 2.152834685008464 6.199616595570442 1.3989349160628102 -0.300613895838179 -0.2945540627973443
Ni 0.7017427687619807 1.8041908447068324 6.837049171004874 1.3873698369330298 1.274671443395334 0.2507589199892649
Ni 6.167567989528011 0.1129805562667838 9.6919419476541 -0.7387247323149729 0.24379740106976722 -0.31122818101891564
Ni 3.9615340936838663 0.36667901817263227 9.994323680453288 -2.2648480080015383 0.5471626344008382 0.08197576764285881
Ni 4.601722517319128 1.7430071422621922 4.272082873442887 3.4377983828062857 -0.22165146110034728 -1.448519411859157
Ni 4.0312186059015565 2.8766482112918403 13.072979529451816 -0.11200342435320065 0.4956009602734626 -0.20355089484489458
Ni 5.040002878893634 0.5647607938387943 13.202741348048239 -2.8261771637107453 -1.1702082932832363 0.36521646230991295
Ni 6.619973340877258 2.787767727330669 8.766067307854186 -0.7318089790317461 0.6309708272667457 0.30792019969160517
Ni 0.22471641695942257 1.332045543548366 2.433679496388055 1.4180073593132287 1.5228692875256418 0.5621732488770577
Ni 5.963373375597714 6.889537522368209 9.299768798132815 1.8913978449279234 0.06158409136038426 -1.2807176495894137
Ni 3.385332242526875 4.359311139278971 11.015899735960689 1.1421115350470201 0.5907777999876277 1.0395715700995645
Ni 0.27080334508476595 6.31978964826234 9.451917619126139 1.9505219047835891 -0.4058864292254494 0.08531871597316275
Ni 8.156554637142909 3.351587162516721 7.122900424582692 0.45263628378647847 1.3175949822317372 0.23731847821364294
Ni 4.756682506316577 3.255745603307554 7.289812257082098 -0.8098026220984054 4.545952329960938 -0.9676927816813914
Ni 4.515027165588123 5.189707486578025 8.760966821990356 -0.4503284615889084 0.40944637866256584 -0.06049857160568935
Ni 6.934807561398225 8.852652941975323 12.575118817731513 1.87185283291646 0.6476269477661879 -2.6300516147956445
Ni 6.43078883357443 2.227737698670347 13.176481037423944 1.7454959680550646 2.263294290361173 0.11544201772110442
Ni 1.0081849751230445 4.7712131746488184 11.463116089760835 -1.2343015242187194 -1.010950821039078 0.22127890825227697
Ni 4.147473172526703 4.681512113605433 1.3388710852782888 -0.2876426803894917 0.6018021761225895 0.04886021603581263
Ni -0.022583387698598835 6.918949217786895 2.9096796658394846 -0.07310931839116441 -1.552259824872617 0.13845673344872284
Ni 5.750419792812323 7.423299864430462 0.3370359015768271 -1.893384536340649 0.2050642461656275 0.7226062294865555
P 0.16955243111003632 3.0280585129111715 12.86461288035633 0.911547087727759 -0.9490751665802043 0.7934090112317304
Ni 1.7012591307086462 6.900444743584606 7.027683979150762 -1.1763290614689934 0.20566639852600063 -1.270467432616315
P 3.251227819371768 5.029777935251213 3.3135520317610134 -0.8021903569687863 0.5087858343948528 -0.15218128212366694
Ni 7.944320211800357 5.126901069903389 2.0192677859420427 1.2903669997537197 1.1125821581293354 2.020929507972874
P 0.6651072290296453 4.961504078017554 7.221462796117269 -0.9126269510554992 2.2797961446709385 2.903771257346141
P 6.595761706968333 7.296857234031759 2.29511998507423 0.47229545277830276 -0.7899135964839621 0.8547784154781471
P 7.573631429885535 5.491836592275496 9.886166089037134 1.6037564500900123 0.9005432804180877 0.07796330404935604
Ni 8.042153283928156 7.109369200696653 0.32426163699921273 0.7385540110650635 0.07437532958778159 2.03527292117874
Ni 6.998231715876326 7.839701243801663 7.312860331128378 -1.5961398140850187 1.882718057765738 1.1467932567934056
Ni 8.855926030336963 7.180906926324736 11.711453140730644 1.831519423404736 0.04975547415657238 -1.2173314720232842
Ni 2.244573358806561 1.1263388549946636 12.797897197582156 -1.0406969419532592 -0.46706274362445366 0.5547252772394446
Ni 8.33290495008122 5.002874070915248 4.321931548192313 -0.9485221222902117 0.19971275204572703 1.1044199340335172
Ni 4.903261545114781 1.301103333571842 7.781397859115266 -0.033955016789206045 -4.403514243266964 1.919050316537869
Ni 2.05853286032435 3.5471057872968657 1.1604554996836183 -0.6060756066869626 -0.9465035491982862 -0.9221536595990119
Ni 4.13588367373633 6.805672700572482 6.7610084133885495 1.2788649126513911 -0.008339373103630799 1.5683114790188408
Ni 2.80411472920444 8.335947539262463 11.596090144935275 -1.7496488138811737 -0.23984150174581276 1.4847835363975137
Ni 0.9181750451779268 4.145002221312844 3.1097068545881994 0.10830540667632314 0.24131705785007473 -0.30910856357275157
Ni 6.442820890791165 4.648550730808629 0.6930326657331302 -1.9858077245690768 -0.6145126817107224 -2.5427919730460276
Ni 8.649878202996273 3.2833040853158457 9.807103026167443 -0.23472269246200866 2.0516205092988278 0.5748793835898164
Ni 3.8331460502026102 0.1242823920800207 2.842045674330608 -0.23833303552108634 0.8062763541127016 -0.335144582625197
Ni 3.434908006246711 2.916201870648005 5.505008237440116 -3.4154899491170725 -0.505385293353736 1.2912540303443634
Ni 5.237079678133264 0.13177545943637378 5.8007506718471396 -1.1366075745096555 -1.4558496269719832 2.2462735874334605
Ni 5.3729635549610375 2.4693284996282903 1.844233162325439 -1.344283290156201 0.9929854948099093 -0.6021315344375501
Ni 4.3206425967755315 4.839496251849694 5.201304361342171 0.8580187767923158 1.706468678949274 -1.064801805421263
Ni 6.22159699741312 4.8739973691715495 6.679003258980267 -0.07157205581103158 0.059525923279774906 -0.5166824635341102
Ni 1.9315739117615567 8.1074583117183 3.6277408545768672 -0.9324049050133749 0.48425545335365633 0.3069645206465552
Ni 3.836225519252717 7.35680546086947 4.7175990652884225 0.4056789412003336 0.16087109658818102 -1.595480840344781
Ni 6.061446166873126 4.467599654229589 10.670295718850136 -2.556459186120475 -1.464679309448471 0.5752761048076028
Ni 7.674202832276453 0.06715916319725801 5.77936219189972 0.9570635841023196 1.0791483039509222 -2.025207566522938
Ni 7.020958935063493 1.8203534472362861 11.047436633822638 0.5480812895603657 0.5467528005569294 -0.9407221666298186
Ni 8.804146694452529 0.783712887294843 0.15237932017372122 -0.7939787676922713 1.8920917856711545 0.47175963487949074
Ni 0.4293019574996728 8.962232252336165 7.235443032406721 -1.1736368593488111 -2.9114133472724313 0.7616576869620624
P 0.8816768829571082 8.446448846344895 12.947144494892639 0.8514763476881078 -0.7859155310681627 -2.8628930310745404
Ni -0.011363609593583353 0.7814539953269503 11.447449521467595 -0.39891385456235817 -0.011260403405167704 -0.7502754132670498
P 4.879169770779663 1.6437449752159299 11.403080273234572 0.13082852747950371 1.1919641969030892 -0.5831395667160796
Ni 6.692599022636817 6.560919450859489 11.801919459052948 -0.4306538659781164 -0.20140119549174346 -0.7023899024396807
P 4.532157864675245 8.334057445983206 8.25236392646682 3.180692694663387 1.0720206917672053 -1.1453195004613566
P 2.795328100447698 2.4046504296088282 7.913224028371328 0.000536075009128109 0.29086170154742164 -0.6371522734871091
P 2.3098599466622716 6.223911209184308 10.723666421076032 0.3421392687754753 1.4935795374225889 -0.5233981849913888
Ni 0.851163401456123 8.556977813328974 1.412872386146458 0.5011419446963498 -0.5303391350855963 2.2510123876700265
