# total energy = -340897.8283722876 ev
CRYSTAL
PRIMVEC
9.02403723348415 0.00000000000000 0.00000000000000
0.00000000000000 9.02403723348415 0.00000000000000
0.00000000000000 0.00000000000000 13.20759065487023
PRIMCOORD
 96 1
Ni 6.221487113033955 2.0559373798478653 11.44820767635297 1.3244773111738672 0.8838637628798778 -0.007556472191019243
Ni 4.471915797408972 0.2884524479021504 6.021934967979867 0.4852702677714159 -0.6454271119013917 -0.7272157032341089
Ni 2.6447738576879685 1.5052094112629382 4.780328513277384 0.6244715926956471 0.2488218508675521 -0.14632739444605122
Ni 3.4195235507009683 4.14866575951419 4.883361360843546 -0.3063245730697111 0.5153200359689448 -0.6239391172309449
Ni 5.076941398053666 4.484044103456559 2.706908866088754 0.4043635648230197 -0.2393843596037361 0.04430910633002046
Ni 7.260325255810803 6.123910198381759 2.531709890328283 0.7825003347390266 -0.8755953522234985 0.2940884360148355
Ni 4.929705206481927 4.5455790133810305 11.45306802280924 0.9742812335321867 0.2814571204040701 -0.2312200786253889
Ni 5.697109333183367 7.8210157615062466 12.52071630687145 -0.4707101105690539 -0.021288477065131078 -0.37025068229971075
Ni 1.8683095975997897 6.517376270023766 0.2785287141517556 -0.5895372427123073 0.37710035823169247 0.18817801193325012
Ni 2.647102059295318 1.6399563352975794 0.44495542331337345 0.4350692214369926 -0.5548553750594056 -0.6896542000405671
Ni 0.4962706110660516 -0.010157456314853496 4.5514410279706965 0.432940605129764 0.03698609030604598 0.47343650836128137
Ni 8.50561532251375 2.25735389099528 1.446654238434383 0.8914030086797164 0.9119309534297392 0.14756178107378456
Ni 6.82863336242953 0.6783323671458599 4.814391546638861 -1.1736314600321722 -0.603063045112884 0.09122633970684935
Ni 0.7775642902274652 7.472660852015941 2.5806968764736116 -0.18059454315903734 -0.874478979230868 -0.08678810142983763
Ni 7.63767439694612 3.8244321015604883 4.0158608082931195 0.08738896823863014 -0.0181275628386462 -0.6004744584501013
Ni 7.682063636118796 3.9000625576503847 12.642887332611508 -0.3627489746060269 -0.031913560879145035 -0.17703690771476607
Ni 8.072398366839291 8.725982311860518 6.752539070825611 -0.23008185125588762 0.5453039839255447 0.592283952219509
Ni 6.777358782844421 0.7809158176575794 0.4469172490088685 -0.033699706245290346 -0.2040957116047711 -0.3485557138247804
Ni 1.6586090202680859 6.684068285880175 9.29914764663348 1.2418297142749646 -0.23501682666365975 0.0911630905690817
Ni 0.14806459819016807 4.8756421993903425 1.2360205756522924 -0.2762876603879887 0.18678061736509122 0.5654046113301617
Ni 6.413401312969979 1.7698573513355291 6.998015443786522 -0.3354191764428223 0.5064792977488632 0.829986810355764
Ni 3.2724227196877957 4.407637580164213 0.4206708367027638 0.7247811256506872 -0.5815758217733855 -0.42052551929486287
Ni 6.230420909899364 5.733548395549553 4.788530460722809 -1.2738972842334706 -0.4249041079785328 0.06478280080334003
Ni 5.28989965282821 2.8804636622645 9.2410734549897 0.5990793778747876 -0.9322305842190396 -0.44414881514075766
P 0.23549759258336642 5.689195252525828 12.145066391948006 0.23986721277742562 -0.1561397525507827 1.244437584211457
P 3.855519909844666 6.247268787422314 12.595682593820642 0.9083702326616743 -0.298056419523648 8.664617653533465e-05
P 2.2390350954025715 8.485166854132924 1.2855832953733923 0.7048833582854956 0.297184815551972 0.3381008370400435
P 6.319343772840521 7.7252707264133225 5.818340054243251 -0.4797616792483609 0.3159471837611397 -0.4010954355947092
P 4.663108074365973 1.1254147560361798 12.645449256783317 0.13760184164759529 -0.25492719243434164 0.5069269268092431
P 3.976035927155317 6.164103260238865 8.28265211765367 -0.9983447022392935 0.07791908107498194 -0.8335891829950417
P 4.742420337648887 1.0543053426024152 3.7958349275539405 -0.17656279629182497 -0.19926435165439876 0.4657319406281721
P 0.254843323613735 5.480126357800769 3.6636932430698477 -0.20296956842012787 0.21304366482667825 -1.8937727729180032
Ni 1.5412784881023744 1.1336988222204687 2.572957862138485 -1.2289353748107994 0.1755163573051816 -0.07671837589866143
Ni 1.9073114865415066 6.31466029751411 4.794632514703001 0.8124418594934654 0.7693342296707137 -0.8858789935376937
Ni 5.92271928816529 5.543953373183639 9.16400727457527 0.5434340205963415 0.19148059394392183 0.03579489821142222
Ni 8.617504360225077 2.2938019773987035 10.245815175467293 -0.37169332828350826 0.3302093501071087 -0.4330290510785123
Ni 2.4462630865311215 5.059931087860437 6.950085172401738 -0.5025475667946248 0.3058861999807119 0.9483012645286572
Ni 0.5470560878328714 9.128445348628599 9.109962315558162 0.4158939340601225 -0.6509480417196208 0.4822610486314469
Ni 1.5092341318709912 1.1505737718551312 11.384876983018177 -0.24649705938911742 0.06975762831011212 0.2532459480771767
Ni 4.19018535484525 7.008744121658528 1.521699034507547 -0.44588713798810303 -0.33835357648079795 -0.061263731906488046
Ni 5.6365851154295274 7.744807767033132 8.028498230484903 -0.9339203132166367 0.4980082841633746 -0.30051850791089535
Ni 5.369419468967593 2.8827377196484223 4.978455762851626 0.2864144644093454 -0.28629876476708754 -0.1638900859201629
Ni 0.9342675992653672 7.294661717500584 6.955130511621386 -0.17748145145135238 0.259880679784875 -0.35185778161481984
Ni 4.97120675373851 4.661925925487823 7.022792742830315 0.157030125575536 -0.35107282381967925 -0.38254055541065735
Ni 8.021493772780932 7.257960958054502 8.859440603377603 0.4955467099967595 0.29979628503289013 1.755257418317203
Ni 4.709545769991628 0.44160750549815436 10.51314957142557 -0.7668888534540148 -0.9747725713463083 -0.6674545240150762
Ni 8.35589752070162 6.982890254972267 4.947140548829056 -0.4400522764738809 0.992494928326736 -0.9412515567707274
Ni 7.314126565822491 6.187258939791027 6.996298169500172 -0.05264436566859321 -1.859325904094043 -0.2587632783509801
Ni 2.377391634332328 5.272474236922043 2.4392965297835496 -0.28009083618416275 0.23345668126539146 1.177541850830172
Ni 2.376868240172536 5.12423637721691 11.337211115924461 -0.9459600179899901 0.28457715409029055 -0.25969478902631404
Ni 1.1510069256425448 3.3459595991385247 3.735278223266044 -0.6776528047043169 0.21775058338404432 0.48834376449041705
Ni 3.590357599649521 2.572879353014516 2.6073105670952943 0.35193645737155516 0.5506068841956969 0.4335638405360598
Ni 1.2592231801980913 3.1565450575173677 8.161194893259118 -1.0532248992169408 0.9356786906686401 0.21935340909478995
Ni 3.776451295567173 2.5406093958521887 7.052760668093283 -0.6785665747678378 0.42860623942046827 -0.2631611503083597
Ni 4.006663509540367 6.733989259879615 5.897136142596162 1.043569378405048 0.5530692296932604 0.0761805011173204
Ni 0.7717311525569595 7.6927120000593865 11.393514791462188 0.41573632543633565 -0.4532448639047549 0.19122605473095453
P 0.3040902020315122 5.587133391366452 8.063736193494739 -0.48846692033184264 -1.323554542249282 -0.1925458019836426
P 8.5040270919599 1.5739906230893537 8.000643734743024 -0.590884500768821 0.2330064811018503 -0.26955754075300675
P 1.7532260507062871 3.1440016457568434 10.375381399723718 0.19900518445574114 0.48323986760494836 0.21285211764116246
P 4.053380950320393 6.0843488191313 3.680770331138637 -0.23749254189766197 0.49819623180446465 0.6781266590169419
P 6.87859043257792 4.021029776822925 10.370706046030822 -0.0884274368054735 -0.9688068406811767 0.31424845590247813
P 6.340911221838834 7.7268048127437465 10.290152977627711 -0.3168401278890543 -0.40297542622624144 -0.07169495454214103
P 2.354001329811983 8.351782559721189 5.608431924055078 0.30696503486718746 0.5978786726984672 0.1928119111608357
P 7.04719554432874 3.9930642854230216 1.7332323938022451 -0.7041127986680584 0.4404461694781899 -1.0062287329730606
Ni 5.164312126589924 2.9516001478099776 0.6108984440790459 0.5103773472516888 -0.15236383044811824 -0.25006780745951124
Ni 1.3835653892975641 1.0507047517445378 6.819937800147197 0.09145979587389409 -0.42668588246930383 0.6066451060371875
Ni 6.867364530254113 0.5353040841381009 9.216574096292831 -0.3910763607958103 1.0790716850767157 -0.8637577361586221
Ni 2.668443907362685 1.5435976656724857 9.173200061309407 1.0436609096775897 -0.871243760123022 0.1225644876984986
Ni 6.3745257605495915 2.0435834728693343 2.6559808095335766 -0.13717452430218954 0.16815940271947813 0.2178156322940249
Ni 4.1848521488377175 6.688778833318301 10.433415885603655 -0.09781042068227026 1.4945946089506648 0.17467560657144113
Ni 8.212460448806988 7.18011058880411 0.3054510268469705 -0.5900447784763451 -0.33878860713568754 -0.036927212043652534
Ni 7.74718108882667 3.7673640900687206 8.21001042269693 -0.06789666384197338 -0.0016935856523390188 -0.2008880033007508
Ni 3.1688087241235205 8.42539163146982 12.407144286215274 0.30926900041001576 0.016385383336558878 0.10400060865338218
Ni 0.007266154783866413 4.769745122404908 10.173436982397893 0.5302869416914222 -0.12479363413933345 -0.25002101338197585
Ni 8.528211511757169 2.256036381558563 5.809015516565445 0.290880470600499 0.9980963336739134 0.11076260996756408
Ni 3.6529483219308143 2.6835681937732163 11.462775179665929 -0.7520895836576532 -0.3845568145097377 0.0062621788596279255
Ni 1.1801906620695495 3.406104807328378 12.653862366700105 -0.7048481341721861 -0.17581614793378755 -0.47393427393330634
Ni 2.9568792095940832 8.387337266438072 7.848928011086446 0.649302535696398 -0.5050806176291237 0.5156661064544539
Ni 5.651330392276071 7.799619769215453 3.50908531547856 -1.0712771287329614 0.37472723001382563 1.0884911786184028
Ni 3.08715923519602 8.457372819440538 3.3752001870001274 0.2553509102353215 -0.7742262676556925 0.8865413097120409
Ni 3.468027750854075 4.239267093381575 9.305751437084094 -0.7607786267912188 0.48595546676389856 -0.4682511075056
Ni 7.180318141660579 5.989831053102715 11.365501472664922 -0.04504495605478048 0.5404762235195982 0.16024914673346594
Ni 0.44410535900557396 9.17040712178431 0.28400720715881633 -0.09745509422538055 0.32977766188632884 0.02025669336650705
Ni 4.599226914759677 0.44858579349413535 1.6098864384138243 -0.10092711193438102 -0.25676475986371267 -0.2956989750350649
Ni 5.791942940515275 5.427227451512859 0.3454446574811205 0.44273110885762457 0.32653241547615375 0.6250395493839751
Ni 7.875918004060945 9.009183672494 11.268267471427764 0.12438020075099869 0.06462262107639194 0.9898243234731082
Ni 0.24159784175611068 4.935507662425824 5.754375873494366 -0.6996948721060208 -1.749775312156709 1.5254560744162116
Ni 7.78805095347661 8.81561807374346 2.6270560629752966 0.6259654036323542 0.020285489721913453 -0.38019545221724843
P 8.37889979162074 1.6189122804590594 3.6559930320948437 0.992956955564819 0.9469781748418593 -0.4955351400325336
P 1.75496768989318 3.269652340255795 1.6270032322464596 -0.2968816824892565 -0.2983212431492604 -0.5087781210853689
P 4.612979547510064 0.8814246420083317 8.172645494110148 1.226460945128378 0.5189890001800997 0.43331701463257627
P 8.418605555467003 1.832547338026438 12.426453921096693 0.030524650951418396 -0.9117311787141071 0.14446360176443507
P 6.307413995612167 7.763938725977241 1.4503522888944285 0.2408905118356174 0.0061462221070539315 -1.1995054995854568
P 1.6724428693536142 3.1453823234542244 5.989919488667645 1.0557569216101754 -0.2772551665075806 -0.5223363193857778
P 6.876776601093125 4.050872267968288 6.182261427968741 0.33745163349181884 -0.3841768054624996 -0.6043413976046753
P 2.552909158607293 8.521732253020438 10.210616918221302 -0.6524199982794571 0.2751571463279713 0.009591757453493157
