# total energy = -340855.7627120728 ev
CRYSTAL
PRIMVEC
9.43736909501275 0.00000000000000 0.00000000000000

0.00000000000000 9.43736909501275 0.00000000000000

0.00000000000000 0.00000000000000 13.81254361443298

PRIMCOORD
 96 1
Ni 9.133495241119721 5.79800813473121 10.949728247024632 -2.426067231957757 -0.07915398192334755 -1.1228457448388727
Ni 1.0312779445036724 2.9119285443321647 1.9327892328311593 0.5236984898406271 0.34114733717585116 0.4292423303425705
Ni 5.531997012236563 3.943112115144953 13.861992761696344 0.20302613268967615 -0.3635928106635609 -0.22368186126681477
Ni 4.9326863256469995 4.2084343096961465 3.751693957924996 0.5114307282168676 0.3228361975714891 0.5197449045095178
Ni 7.647270044971693 1.6920164664896127 13.80255715491453 1.614581308619658 1.9469997505629437 -0.19194673494706296
Ni 8.909527597913883 5.292920141120201 8.63547772442974 -0.025708974730329917 2.2225705873895656 0.20052984863038367
Ni -0.25478348449018073 0.09537593948115791 11.413760853890388 4.104944631552324 -0.688032348166428 -1.7026889001918677
Ni 1.6377704689695065 0.41603509141907635 2.2158772746912603 -0.5415437455521641 0.7515784483491895 0.2040167787377196
Ni 6.422563783632236 9.35651914741672 8.033306571269483 -0.4584793728308168 -1.6958747054835117 1.247919629222786
Ni 1.0789649705073425 8.488035819687894 4.331627838302263 -0.1655456192457149 -0.035875630850686596 -0.7314143146964887
Ni 8.044989090464009 8.421851550270967 5.07421760612878 -0.6496015549940554 -0.11682707099408912 -0.7809047081171326
Ni 5.952620552506418 0.4731066372442485 5.954794922344385 -0.6972685220527153 0.12045592599592803 1.0862316931602647
Ni 0.2163214867704187 3.405408573964445 4.534008443455303 -0.0652797950444166 0.6589333739179426 -0.8211301312960826
Ni 8.809500922945963 5.504156773425792 5.931424221533878 -0.34063003121980046 1.696923201352684 -1.193559823524983
Ni 0.3890225098773576 7.980126052719457 6.684346021038372 -0.45931703824076375 0.5272191013993759 0.6876163436749319
Ni 6.4169674237628165 3.058981629467567 2.201553235888891 -0.2676968333951842 -0.9095987057521367 0.39877012989564226
Ni 9.078616939870692 1.232492090837385 4.943993237551807 0.3643613133984693 -1.2878221218446788 -0.5841752070694455
Ni 5.433640751597289 8.45039015439428 3.7966535842621196 0.5113348260689516 -2.1870130019999303 0.72843363480161
Ni 4.13017020784607 0.5419550759548313 2.439225826484899 0.8561881513414803 1.2214753189883285 -2.383300530414192
Ni 4.488978980586925 1.6042111844911668 4.436340167022573 -3.4772169938132245 1.3460941181126949 1.0497613661483727
Ni 1.8451283425797658 6.509387579245488 5.496771088377212 -0.2706867692614435 -0.3303129655645085 1.2703792437778831
Ni 7.466365116916211 9.179983721249165 12.622827507176554 -2.888605091128664 1.392806434567569 1.2387626453138665
Ni 8.311670266163931 3.871850541158467 1.0622664896423328 0.19810581256992332 0.4565135073536976 0.6725977587789127
Ni 2.3904006537691687 5.365587883100859 1.8143332635074176 -0.015258211710651143 0.18225573291154418 0.1408835977226606
P 5.4728624575286675 6.890685602523994 5.710602997182112 -0.786822102042832 -0.15649353634577565 -0.4756288880269099
P 7.976889035122136 4.308357173604095 3.428660363924437 -0.6275355763329514 -0.5848429225604315 -0.4040288071914203
P 3.292934009168929 6.745793674909834 9.862999152968266 -0.8416580760461053 0.7479164261165699 0.3917273641162479
P 8.927628471825429 7.642504173582053 12.350651895193366 1.2149593722466818 -1.75533198030888 -0.09607801137219582
P 7.601357244356642 8.745317375775775 2.75311649731262 0.03006262371333532 0.34032227017139455 1.7412870721800398
P 2.1699342744951258 2.3169684848923517 3.837967554920395 -0.1900639161020533 -0.011324423873883724 -0.05563224465232354
P 2.405141824285245 8.62960579338294 0.63720832963784 0.5645039538927633 0.12718193186585192 -0.4466882937331597
P 3.214943591022416 8.651462740191667 3.632174397104992 -2.0217144657680146 -1.516433044981995 2.2081664961490937
Ni 7.047732861524008 6.138848156727756 4.249166938418577 -0.9609019840118032 0.44701842337906883 1.3215051159194209
Ni 8.671507712135421 3.6939278217349183 7.207882183743379 -0.6157843493342944 -2.6350277278539975 -1.21224454441868
Ni 4.140985432821373 1.9865850678457486 11.96895561493933 1.3645063020712953 -0.16460562392994876 1.9757729660408943
Ni 4.278195341997577 6.304464546860035 7.757607989405596 -0.027818050653532735 1.781058438540707 -1.4171406404375595
Ni 6.902444564408136 6.082658061175441 11.92927242165953 -2.597336898171443 0.5591172356595533 -2.636283454637969
Ni 6.250907477283382 4.515375301927172 6.871132317509743 -0.14146029616173703 -0.43014144511807206 0.3731560288719638
Ni 3.6646059159772686 3.3494072257938963 1.9510080738563096 -0.16758116161850495 -0.5280122867246326 0.19792789223116236
Ni 0.8694921824843735 7.142200926098862 9.17071433733054 -0.5101809149701666 1.7993191845231076 -0.32858235602664704
Ni 6.48876692778734 5.715063097813288 2.0120735142796913 -2.277352311116136 -0.8550553232886177 -1.2470397977209944
Ni 5.1199520404680605 7.716445960389644 9.94914723295479 1.5480401303643145 -0.9141600998705739 -0.4891390066982027
Ni 3.7209186973277335 8.29873163314374 6.037352083392773 1.0699789787468283 -1.136524784987862 -0.7042480386943419
Ni 8.601482433499516 1.551210919690729 2.73810164309298 -0.6174427108733238 -0.45246170588182716 -1.463837530273466
Ni 6.813365237582756 6.92315015218808 7.306241275593379 1.3726343304950683 0.04149529103030918 0.7245384135122618
Ni 3.563371257766034 3.612455014394787 7.596111954617311 1.0241508646691202 1.347434434190673 -2.757839298566296
Ni 1.9940122773183173 0.32824019052662773 6.167162151466766 -1.1296370567290932 1.3105576157689818 0.35609444540398677
Ni 8.625132480435038 6.2275028019441585 2.4307586189387895 1.5515409444287214 0.7251878741708027 0.12613960664426663
Ni 4.486355391980351 5.976034665214731 11.654085345200235 -0.7152623875269746 -0.36093120467099776 1.2082243675156934
Ni 1.5975484019147586 6.59362553572852 11.340568394188416 3.178821445782603 0.938931393277983 1.4997391292660818
Ni 6.809486478887425 2.910267567372607 4.826531023193073 0.8684949937332914 1.1400623658274753 1.0049164419195404
Ni 6.385012492029505 0.18838404305803705 1.1060370074743182 -2.7818174066484476 1.3936708394503934 1.0457180493169345
Ni 2.9740641824101703 2.5280824313997927 9.182344007258173 -0.17162267867773023 -2.989488751419619 3.1158541009214464
Ni 2.1230399874948813 3.7046864224956906 13.750787523043218 -0.8758234090739045 1.657237452727288 -0.7867853352676256
Ni 6.385673107865692 0.9364880656429039 3.877733797048174 4.586887120502088 0.1100784394163459 -3.628931106492486
Ni 2.4918523714694367 6.595654570082526 13.893623047933016 0.19579619060014022 0.9993821423648724 -2.4746086312015705
P 0.48405681659751554 5.372713096762598 0.8289822756724292 0.5826687977272481 -0.6491012183188692 -0.9072039802677151
P 1.144724558315293 6.3298038828623815 3.5353205656245916 -0.27515946032081645 0.31784414367353647 -0.6000111456604377
P 1.0962542306772858 5.0495587044377075 7.097879265912114 1.352027452877994 -0.44041300224740926 0.017946814286407802
P 3.811215444765516 0.5884614870855429 7.350109942063884 0.6521356342698188 0.55217268602092 0.4676330143056269
P 4.606785658917385 5.885624669347887 0.5714109923535361 -0.7094655783395395 -1.4071339069338347 -0.3345483438020948
P 5.422372532905743 8.934602687581753 12.442767223654483 -1.9240894216236735 -0.40561080696655955 -1.1674932083449183
P 6.741678981987293 5.779350456043448 9.298065970757005 -0.4831743044743355 -0.013740489514544077 0.2664231088890831
P 7.198608081140211 2.1359503084078084 7.074439672307262 -3.1141733707849144 0.5028463289819662 -0.9645732622158034
Ni 8.082748004186685 8.268692487335372 0.7379871629221052 2.8417606199712995 -0.16869084974291593 1.5486517958063846
Ni 7.591683941041035 1.439151599135103 9.080559150429085 0.26120196969945986 0.7813752199956479 1.2658106505705942
Ni 2.9332947479482954 8.888925821193912 12.087937245721298 0.5329097240262499 -0.48307146034788423 1.0558589944056782
Ni 5.412727541697402 2.6805336916537583 9.816408749252666 0.2973737916343266 -0.021298247257143965 0.43386491671624633
Ni 5.968947201029345 7.4179608508618236 0.2168745165989988 -0.09940836129700945 0.395408412512261 -1.0861854133033617
Ni 2.9434210449801452 3.651893779815198 11.318301865561253 -0.6912444273458225 1.7619497427357138 -0.689085986241923
Ni 8.175281408098417 4.35607251171503 12.478804761255434 0.37823935693214217 -4.137849352700145 -0.42464005568386864
Ni 4.572367573852 0.3925983290249513 10.479494344930892 -0.13844696325670997 -0.12561484448904817 -0.814740682829971
Ni 4.118448995438281 7.393697374935553 2.030609450906212 -0.04757286468295678 0.7318873976781654 -1.6738542353483623
Ni 0.756945893683786 3.068428435925052 8.986786619956046 -1.0155898624729862 -0.09509456441300397 0.6235483095504294
Ni 7.560049879856728 8.090477209470082 10.659650889617666 -0.6926528776575749 -1.2272816412574605 -2.85391473883533
Ni 0.3376803908257513 0.43069038187644815 9.210590996676654 1.3643332668285406 -0.4994799836128947 -0.41036400538082873
Ni 2.47729051096604 4.570999155334183 3.774042591663229 -0.621328419080975 -1.6666965412576584 2.541500765038429
Ni 9.008931406521969 1.3342929911939239 7.125987526004996 2.490799124918504 -1.721766999869241 0.9368847951615995
Ni 8.123479689172207 6.190480003010377 -0.13350951675664374 1.230683467850158 -0.08299418160504417 2.927804387035945
Ni 2.0237777394231213 5.206398341317778 9.158006919853015 -0.35499658435411763 -2.0516405639034856 -0.35947261784760026
Ni 4.014147192273318 6.487587256651292 4.128915037757313 -0.16865922517403212 0.7191990035772194 -0.6236910057758808
Ni 2.7101387184840595 8.603360469948106 8.671971086957662 0.46681823171381537 0.4782177318000086 0.010837714045452302
Ni 3.6879728418401396 5.104937186248421 5.795287341223025 0.36148116363719685 -0.31665269446859656 0.9815962791363612
Ni 7.76345349581895 3.739963308148119 9.834600221907461 -0.6799487998273451 -0.2638026405471005 1.081121625627209
Ni 0.6682450053588512 1.9961262479941182 12.12420883007564 0.504093571125506 1.8492885744626988 -0.42273306846914294
Ni 1.4913591249321152 2.782193031473971 6.499892642205652 0.23455197121209928 0.404701921999045 0.16111637982976768
Ni 4.467055972194578 4.8836120063873345 9.375056971517058 1.4042272748100009 -1.209491664263891 2.072140997849683
Ni 2.659346798050307 1.5072044676315337 0.05767459370992069 0.3740065497977172 -1.7970316740405117 -0.03943840850128047
P 0.47774416041428674 1.4235138785556292 0.2985917517985197 -1.3618837768467835 0.43023760437630426 2.6836488312958107
P 0.8522321781586041 4.04545094553953 11.360444437225489 -0.09923301206140973 0.743959498351351 -0.27883150985576494
P 5.6126865179423575 3.96467650351194 11.61383496603822 -0.3651655544673195 0.16933593952608256 -0.5499772210314979
P 7.864603217708388 1.6604956537343665 11.229556621601603 -0.8875077873903682 1.4599137697390276 0.6389739000768802
P 8.483034014071045 8.074490306234338 8.482904722114535 -0.5672542629443909 0.8194787117355887 -0.1548264330559979
P 4.6657125915053355 1.9028850414007557 0.771552109821898 1.636379378331356 0.13345928023413145 -1.1935981329620864
P 2.147822518721012 0.9487009649801985 10.745329932360494 0.18808339533691482 -0.07020011516416942 -1.0903446868873738
P 4.703188384155361 3.2598465931450087 5.7544575075989846 0.4918525489746239 0.1345396577825038 0.11889243816355008
