# total energy = -381168.632507095 ev
CRYSTAL
PRIMVEC
9.22539408660192 0.00000000000000 0.00000000000000

0.00000000000000 9.22539408660192 0.00000000000000

0.00000000000000 0.00000000000000 13.50229676286479

PRIMCOORD
 96 1
Ni 4.962874466805526 0.5400490253181761 11.923270896130319 0.36782047559166325 -0.047069442683977 0.1441363003320034
Ni 1.9216772314176782 8.723320314408502 11.989189103365204 0.2371842666286238 0.42235923006949194 -1.6768554840685312
Ni 8.725912650102314 8.002835499407 0.9094273404259847 -0.18298258377523968 -3.156319150915029 -2.948336188440709
Ni 1.1230810060264391 5.616447499646077 4.977891563041786 -0.4398496735447715 0.36565277851638317 -1.4141671596315322
Ni 5.344178448644268 -0.002822970542017204 6.97713590660744 2.6150379149956313 0.5257805691806364 0.6540068831506026
Ni 8.998283180437333 0.9147383997104269 1.5666444038681597 -0.9977847159707655 2.8140767809027856 -0.5270563505692665
Ni 7.96470694630191 5.086190307443251 1.1171785989912018 2.069157746851643 -1.160368424374679 -0.7447182308942464
Ni 4.045925662709911 4.623093983037435 12.137525134875496 -1.3363624926472275 -0.060452805969418474 0.28907067108526985
Ni 2.0098719973708956 3.7036450971872896 11.123975385879323 -0.6192692225591012 0.40406094598093634 0.8699229844290697
Ni 9.022066245984133 7.4598472635833115 9.394681751821333 0.5036372003143779 -0.8825195901471575 0.2684979891402408
Ni 6.762020016069373 7.973729381563652 11.487916253805876 -1.0824619417051873 -0.32191677108101335 1.406506814872797
Ni 1.8230485449317115 6.064940025463614 11.165899266046459 0.07034666804436272 2.133896838901241 0.5294983843518559
Ni 1.0981355408446922 4.109174963481382 7.47882758905111 0.053345248390359735 -0.30176395028222225 -0.41309117450400473
Ni 1.0784762263837817 8.570317156109954 2.345794421398229 2.543808844346316 -0.9707377391553024 1.8854040892383332
Ni 8.178173336405623 3.653689589066299 7.9402006098711455 -1.541918333737293 1.078206508862943 -0.13508884541775446
Ni 2.149876575624664 3.3546853464606796 5.014023740900821 0.7741828160122667 -0.3041913287767923 0.5189293505867578
Ni 7.260698684856105 1.1644845739760248 8.36546912901393 0.7993480024239846 1.342198125492398 -0.30455925363917224
Ni 8.28860130172571 4.307899174087894 12.179584628333373 -0.18524592588811967 -1.1442892594246294 0.4562479123971368
Ni 3.8431146025932246 2.9187670325672253 1.157857050978034 -0.32199544683774867 -0.8349793784743491 0.8549267681305535
Ni 0.953195376839358 5.681486526839611 13.213090749474942 -1.3401988356741823 -1.2613739549554792 0.5395881644876901
Ni 6.709758159466341 6.799964061295897 7.240201704626516 1.071394371037116 0.983775546175867 -0.1435266917724625
Ni 3.2386206654504885 0.11532388187775967 2.979308680220781 0.3654694588609835 -0.22596217266055924 0.15048229715468922
Ni 0.5863964818738632 2.152690320772753 12.01623334566561 0.11250607502123204 -0.6384128853670876 0.15398902475636705
Ni 3.7612945838443665 5.514580699891326 4.252589247330998 0.05427958727917104 -0.5241270927376134 0.9332461699677477
P 3.993174860228688 2.851550812406646 3.537439477638152 -0.8270081873434144 0.40081235713665164 -0.16538389685687
Ni 5.2812889382359955 3.5251337246773784 5.262033696029139 0.5245029880197934 2.758072240512708 -2.04433091761595
P 1.5539161278654765 6.0492015034221716 8.339585441269689 -0.8842185751161351 -0.1317096445328764 -0.36268135459288503
Ni 7.982631886704327 8.5699389149589 2.8745174305908026 -1.353456729125353 0.006511832976588785 2.476143065568226
P 4.5325559670264655 8.243673633295565 9.217316173237299 0.22165711752730213 1.3946308893708175 0.2572830942610279
P 1.9294819146809026 1.971623514144741 7.013416613308719 -1.6779314907415297 1.9194938318331909 -0.3117915097215534
P 3.8385203564170007 2.625002813712801 10.576632764121545 0.9983722130431193 -0.8604476979487826 1.8873352448227754
Ni 4.6030010750619015 4.850638324275522 2.2343738036914744 0.3022555452066601 -0.25892448651919275 0.3401332940890401
Ni 6.144057003791521 5.475594185150919 11.468553997029453 0.903506991032102 -0.1393123965807988 -0.2635601855189913
Ni 6.629155892716001 0.07596558376204726 5.008298461429003 0.8133204054436768 -0.8579262170785095 -0.11350366304781098
Ni 7.397631206931795 3.3960612382284805 10.087350159050645 0.15966884874996373 -0.09975263201030563 0.7110537487622658
Ni 2.916608290388036 6.007982443351151 0.9410104765390432 0.039423238992628874 0.4048507888720834 0.007454399395516193
Ni 6.604385710018889 6.615696042974815 2.060936397842051 -0.8303825031322859 1.6974263662413476 0.8713815712524671
Ni 0.22848994411572254 3.214505485722276 0.7922039499384168 -0.5980182836001249 -0.6175416983450333 -0.061720874048564675
Ni 2.3751883715321354 7.8323594450085166 9.225079342227845 -0.10833420303172955 -1.1639790245440729 -0.023221689532101943
Ni 5.3001271926373 6.231236976412641 9.364018387482911 -1.5181214884280112 2.1524555757400354 0.3138185674539112
Ni 5.1411736552550895 3.983626577513042 9.640518204140177 0.6793517896732946 0.26662082672218596 -0.23552924752370402
Ni 1.7993023809606254 2.018673023178361 2.9707216835524486 -0.0611230925635657 -0.3833165143447334 -0.6159974937863648
Ni 4.884947564294351 6.638934810279851 13.180874751338413 -1.1040946894836146 0.13829835349398764 2.523282185147874
Ni 4.445864940283538 1.0959583478776462 5.139176357469642 -0.09258593905853732 0.10575332967843078 -1.9880582111661504
Ni 2.309651173066481 7.39760353075001 6.518017572063448 -2.819762518433653 0.7217186846752797 1.4420631147108518
Ni 7.351568815048489 2.7150887854212917 1.7765239608126036 -0.44682224820786276 -2.1198172208797237 -0.48251738761662705
Ni 5.554351373115628 9.127789260400855 2.5420775927713497 0.8887683992703469 0.736779435663144 0.398775529212281
Ni 7.261196856128225 5.56070766953213 9.064537192011207 2.282423554991456 -0.4687745841092379 0.5420587375153697
Ni 4.032419685999084 7.4780581911975 11.427317408709966 -0.6287918173375557 0.8514462657811207 -2.322658491252103
Ni 5.893956574399082 4.08460773945069 0.45611177866280517 0.13696935026991897 0.2521635136462754 -0.7375839338423104
Ni 4.869476578676826 4.880925292541673 7.324739524426611 2.0821076221440915 -0.05664320241534116 0.9341141743949977
Ni 6.781974543135984 2.3248638476540178 4.365521907102579 2.538308483353377 -1.1215187984973332 -1.1738579742206814
Ni 0.9043515286867106 8.906628891761057 7.659826127764053 -1.5326484783995926 1.037884926425761 -0.7769122991282879
Ni 6.865805697761182 8.281045704098545 9.307281292285332 -1.2011610329110087 -0.10224428808390777 -1.529716135244146
Ni 6.871940584723408 9.04962249764755 0.43082036120875233 -1.789968339435827 0.33967923727075694 -0.6534548673018745
Ni 3.1263383959508437 1.9604146605220256 12.578712071241322 0.606018271086466 1.088777342400254 -1.289740164802998
P 2.0568015762834495 3.8875533251451753 0.28557668174318157 2.1027132142095852 0.2727804185656786 -0.9309329484535387
Ni 8.839218938327985 1.8917500535147247 6.626359675816375 1.1389238813476579 -3.2016469283175506 0.6483183174062577
P 0.6990247036458143 0.17310067897104509 9.844726911436979 0.4614610811669601 -0.3747274871241417 1.4172254868418817
Ni 2.575480899106434 3.041160333812135 8.9782031880133 0.1748499273657763 -0.7096296147212294 -1.7617970192079337
P 2.230220531345016 6.991427886880947 3.602561533377039 -0.05263305281468355 0.21887132725204886 -0.622376143619199
P 6.244272458033133 2.9303356765531388 7.225537940977706 -0.3902564359976763 0.2984716526841956 0.25993493006157814
P 7.857959913159162 6.116814415521663 4.182295435755985 0.8209907775047409 1.5739205976755022 -2.0188613125899355
Ni 8.666335056114253 9.19919380940482 12.17511492497518 0.8747137209494935 -0.5802226501796008 -0.5481149710117785
Ni 7.036862951977139 1.0865484460709223 10.673619330488298 0.1625158312804556 -0.005601662457493579 0.8805223572114707
Ni 2.973353688440153 0.6162415537708561 10.061317019924768 0.8590860417145656 1.32921302608664 0.6164806040703705
Ni 9.004445743581345 3.6100534757860987 5.421091480362737 1.6104469747363104 0.29003869142549404 -0.6938960060360566
Ni 3.2174022594157186 0.4624680750793079 7.282301789817678 0.2936320652037072 -1.5674141640155521 1.188054834546354
Ni 7.734339634521808 1.953560192833402 12.95480555058944 -1.3693091227765772 0.40734424471789843 0.4881324198105594
Ni 9.115593289627828 3.658219257485026 3.211736945004435 -0.0636790262162 -0.033902823395031936 -1.031084615674476
Ni 2.1250141389882704 4.442184008106202 2.7322839971639903 0.3305973295741468 -0.3072851372107676 -0.7483326877183822
Ni 5.791379419311863 3.039269128056862 11.844147460026663 -0.13400049744958212 -1.2462599821321763 -0.4107720394525248
Ni 3.6993091620410543 7.812238860851197 5.002884077732567 1.5010732746964728 1.9194493517485007 -1.6303781664425987
Ni 2.0019012570169648 0.6180192871808127 5.176132363006462 -0.7265104496369682 -0.04327500863855128 -0.13766354812346612
Ni 4.508468463480038 7.215955524304524 7.259725405796684 -1.5458667768620797 -1.0695159230674807 0.08261160145464483
Ni 2.8619755075454676 5.296104920884622 6.492876528530424 0.49994329640255825 -1.3529597348842761 0.3176981050139754
Ni 5.942113130704082 6.892485537001423 5.0443365402699705 -0.15595797555727978 -0.18790084701246348 -0.9209025608007302
Ni 9.033053690152572 6.527104585082686 6.750243800720075 0.3417500037568566 -0.2824552226512813 1.8113501475457128
Ni 9.172578547922075 8.181771240037607 5.134761083935625 -0.31263714555130023 0.6020803694846405 -0.5209795482475672
Ni 4.339486922897916 7.168260237695933 2.5361096854392224 -0.8455877501178147 0.3047248326827591 0.09500149047856542
Ni 0.1618964380452938 4.895233878524251 10.03801275232284 -0.054986640648524654 -0.4477995245194675 -1.286122365544753
Ni 1.8868790455206559 0.8471642342654346 0.46912788695604724 -2.093796885556562 0.2744038131017145 1.554069624387846
Ni 3.195980894714529 5.334667067504334 9.614040401026962 -0.05267341913431573 -0.35153613660934296 -1.0414590169302644
Ni 0.45151291978961694 6.196189704879559 2.285317351502171 0.4039912690852655 0.00422509382494111 1.2162726917414666
Ni 3.761608247237924 8.908686154607036 0.5225669038243114 1.4776446113598873 -0.8318693720904576 -0.1349644040247482
Ni 0.20218557840835766 2.2125170003968755 9.481880175230309 0.4699652619832294 0.044664947007542435 0.08134816136118893
Ni 7.446350512266413 4.916581440074014 5.740960796415678 -2.819435474111538 0.3678109625099666 1.895426763581658
Ni 5.129660363632745 1.814256744518174 8.86017995587216 -0.9922581297255815 -1.2198220996556217 0.08543467272573672
P 5.535965163016803 1.4924842296978538 0.9126719114705188 0.2612096830089437 0.08972892922571644 -0.5550605490916763
Ni 8.616942297022879 6.5205730061815474 11.689032609057959 -0.5156095421849055 0.918666986601992 -0.04203110892912116
P 7.937492034213837 9.042804931534638 6.925193248634323 -0.31368075632446624 -1.9165578891333184 -1.1170671904838827
Ni 6.801393997354762 4.413935851898174 2.9899621651290205 -0.6748454171625087 1.1981857523327686 2.340673182661969
P 0.08450645346073853 1.5767120762619617 4.321045360435523 -0.665216378713177 0.05227258415147127 -0.5063638552169215
P 1.4982593262968822 7.6785998044078605 0.19120182439748942 0.8317950672090965 0.10237232902133982 1.0879782435377263
P 6.8265331958090005 6.333629623621298 13.423848563921348 2.44279637178698 0.5981728069001182 -1.4189347562235046
Ni 3.9857299673286626 2.824197519409649 6.68489295521177 -2.572832999492807 -1.2640085643648489 3.111830067363718
