# total energy = -340893.3673320302 ev
CRYSTAL
PRIMVEC
9.10233678725896 0.00000000000000 0.00000000000000
0.00000000000000 9.10233678725896 0.00000000000000
0.00000000000000 0.00000000000000 13.32218996646050
PRIMCOORD
 96 1
Ni 6.435761824161404 2.283139175518397 11.63259000321461 -0.025406355888246565 -1.4719812424265228 0.5612985595815881
Ni 4.501078311511066 0.6900754706916089 6.187237987894086 0.37076310315975497 -0.8505301817247547 -0.7604261285478064
Ni 2.6169764852553214 1.4967609799653896 4.7675055343124 -0.26107007210728583 -0.45876425106108726 1.1111688227215768
Ni 3.5276743987815786 4.166585633514216 5.026368715113751 -0.22920407663662462 1.5674367897233716 -0.300941711491243
Ni 4.936534110884347 4.624970219647976 2.688084851691024 0.12743132887249667 -0.1593286918017256 -0.2652799964235754
Ni 7.153071486987731 5.759458189265192 2.632545122363349 -0.17557009336125246 1.0687263372866498 -0.23789054866702905
Ni 5.070584227050115 4.569955695161936 11.409909521997053 -0.003371744685710322 0.2461892983407115 0.07698422796553839
Ni 5.575891360127212 8.00391243277405 12.602751663524849 -0.3596124858595742 -0.7139372409576479 -0.3808634248185505
Ni 1.7886456187300845 6.506332242483751 0.359666101047577 0.38215566126741285 0.70014918603462 0.3678112196202827
Ni 2.730073021777333 1.5005839614816265 0.37000089441313766 -0.4779948171559252 0.8992710985738835 0.0035041564985165458
Ni 0.48914320313296944 0.0034006330820622456 4.613181783072551 -0.1890205624392035 -0.5319257628464258 0.49254031907026785
Ni 8.601007531588607 2.2637511978289093 1.3373481121404727 0.40945640596489485 0.5055819827455744 -0.018397785780897347
Ni 6.814182380247207 0.8692003594011991 4.772781248804807 -0.3549816719557822 -0.8036597424254611 0.14811971045978362
Ni 0.6272074498907857 7.477123784510477 2.651169413983284 0.5960961268767475 0.579579360168647 -0.485962408742434
Ni 7.598257684553529 3.7960021895366993 3.911288748327298 0.7829415360415032 -0.7867719655311869 0.15799454637133437
Ni 7.728639558931097 3.9157798413751816 12.66025021576275 0.9470874467262143 0.31416592349100086 -0.0723277030301335
Ni 7.911596531493869 8.901803358220912 6.821334086383653 -0.6005793594590818 0.8353128505543678 -0.11321004306679212
Ni 6.983667894133714 0.6356289320308393 0.3437606774726424 0.03854366460115297 0.16828487255374888 -0.2899080793849007
Ni 1.9583495887032336 6.610016962606264 9.202422599516513 -0.309063569267429 -0.2156913868621705 -0.5255856795610109
Ni 9.15331003030459 4.884760018350167 1.3647516077423372 -0.07982452562781091 -1.3676721013937865 0.07051584663237533
Ni 6.585267708457101 1.822588233192103 7.024537387009676 -0.5477380472883341 1.1041044596756275 0.9489620380411076
Ni 3.449439812752872 4.476556615785489 0.37446012928171984 -0.6525961188460051 -0.27519339888254546 0.11918194437951087
Ni 5.853203157445489 5.423900537845961 4.901460075940262 -0.2561602935104943 0.9319518766363564 -0.24116716253577178
Ni 5.346339524751067 2.7073535887665527 9.528030486422892 -0.4518958060760282 0.1656086112731664 -0.9298147756886955
P 0.18442791021282764 5.6690901880909035 12.536447510527884 0.26902146574387864 -0.7504983279111332 -0.2659651954160581
P 4.034738282888756 6.169245398458025 12.532051081784212 0.15832004803155314 0.35094632554414396 -0.39400304752430204
P 2.3966908288875794 8.544809703299922 1.3506302422083134 -0.23736475807054605 -0.10209567832118548 0.21170591985186119
P 6.201440364226906 7.947314101659853 5.796191580234064 -0.06271357697913715 -0.4272510109441545 -0.7266312914855485
P 4.950879393907179 1.0463591433310104 12.751467464973858 -0.148112511370932 0.008886503856352436 1.3624208802971762
P 3.8721978520900797 6.1954965382028515 8.198475795173376 1.0986200395222885 1.1876871667942899 -0.45387195596579255
P 4.6304680311618025 1.0588930613021017 3.848154939287727 0.7455906061968708 0.6653271932594282 -0.27880631304478437
P 0.19826710330160557 5.596544562651836 3.5364017194429316 -0.49959259793135896 -0.8895183900624938 0.6950812845934093
Ni 1.4904166511158248 1.183139960579804 2.5543433047476385 -0.3488547331224379 0.28631881937174564 0.30816239760939834
Ni 1.9576760157694204 6.4054692468136984 4.758579782705681 -0.1790968755675883 0.49197236238193987 -0.6733454355782145
Ni 6.2487998233435285 5.750938401886149 9.398005423653505 -0.4411609361570273 1.1477823601795525 0.22072046464564565
Ni 8.492598698592458 2.3830282211355036 10.302356277629114 1.0983284764237986 -0.1207001807962502 -0.4492629964388714
Ni 2.388535134986274 5.277944564958199 6.876621680977994 -1.0807493298894548 -0.3525203548994832 1.0714591628367804
Ni 0.7532138308996515 8.95439666108 9.1153086837995 0.09086947058806286 -0.4452862711793105 0.3882332349200604
Ni 1.5090582371759518 1.0899229279422253 11.324394886880997 0.48337999272723847 0.4879650409947596 0.355443184973233
Ni 4.089243076505964 6.888248095955827 1.197284992189881 0.5060260122615285 0.9862450907622821 1.412343219048916
Ni 5.738431790925889 7.864391812105285 7.963485313473536 -0.8447174316977194 -0.3724291780082683 0.22336330158513143
Ni 5.446210365694287 2.965532273829758 4.968164731762736 0.059038956341027356 -0.851115107693947 -0.07811114248112999
Ni 0.49705313393680267 7.500161799314276 6.763596142684142 1.6962238612928142 -1.3928015494715626 -0.2027530815339476
Ni 5.289850421680194 4.578202412432677 7.5961259172413795 0.84860185435379 0.47299813527228207 -1.2563261081189265
Ni 8.074692204846093 7.303087102152259 8.71954635536909 0.2608273599688605 0.5722038936401823 1.9232401862495008
Ni 4.840149464990458 9.571653436224238 10.655273906066839 -0.44692123567957226 -0.9299901249242951 -0.7530162092369805
Ni 8.02381924366931 7.221411832758938 4.477001720062023 -0.4979002978306006 -0.06327716279209102 0.7681792901306641
Ni 7.289806792551807 6.208039558510888 6.81456649886622 -0.16370882314729224 -0.806592856911856 -0.31677096521401577
Ni 2.2023195257977584 5.209030771959554 2.5105000783922606 0.4829503613889876 -0.08570001057198144 0.2726158679633563
Ni 2.3902736813424674 5.310367089150666 11.414612699495716 0.18064236567783729 -0.7541750054317721 0.0674955717488128
Ni 1.121253171701482 3.4884706335662625 4.231207674644036 0.13810834897036858 -0.7939947085318713 -2.0985426277716632
Ni 3.367054561077964 2.872979711789049 3.0429749565443878 0.8798273880269751 -0.36609166582601466 -1.2716043744342358
Ni 1.1989689245244142 3.4728965350560688 8.37051815550729 -0.2720810785058088 0.06308587271689135 -0.15704555219450372
Ni 3.884795486419775 2.8515164012764616 7.2412767729042615 -0.7343489718447804 -0.9070170610678896 0.12234491548852479
Ni 4.026746431052432 6.89235324991731 5.988977256228341 0.935202265252854 0.7247057923280616 -0.1785219769007248
Ni 1.1724811240190578 7.320017448867023 11.404447209597304 -0.46689510769833786 0.9060505833895622 -0.14525061644210469
P 0.15609415577534538 5.642201884760038 8.004105402317249 0.7920355279229715 -0.5292186483279079 0.11417369253164207
P 8.81586819513807 1.4102159603073388 8.08979298183523 -0.9805043316237629 1.2104763967746637 0.3277948271283452
P 1.8851303903303518 3.2925883425438336 10.574541638780856 0.29484922544025993 -0.15018250652608328 -0.7046997815197799
P 3.875092395238088 6.375841140062861 3.4770380983653255 -0.1456797335597233 -1.1277035871518062 1.2826626891309263
P 6.9086555353829775 3.9763558937336514 10.396330624700385 1.0309223790649986 0.6931107911305999 0.8246155187415218
P 6.320335089381877 7.8576196734193795 10.478995318119457 0.9675146042323143 -0.24603914591609238 -1.0211118207324803
P 2.2146440900191506 8.468513915040166 5.750922927913345 1.1344797295333753 0.13498985794604493 0.49987824749257787
P 6.91023023967419 3.872261568448684 1.500970810801722 0.17901588581800784 0.013285147144680345 -0.026741015539270076
Ni 5.069173364823885 2.9386439704988914 0.7181543596946752 0.5940960657275833 -0.797643103917736 -0.48191137860151195
Ni 1.7228630296399778 1.0989251391792692 7.149659931101336 -0.3399967685111757 0.5193384130997185 -0.460559138177981
Ni 6.944145547125379 0.5655555013056036 9.285539679081673 0.7061645389907645 0.07675617111513232 -0.0815736471084337
Ni 2.8432878886796087 1.6437728239385891 9.377836465454271 0.8343319746983373 0.04511154762665779 -0.6140123450355361
Ni 6.374157207728328 1.9841911232856069 2.598826425390139 -0.35112013211784693 0.26057282075589316 0.26211239732887115
Ni 4.211123368178376 7.0318738705860735 10.50887646983732 -0.03158394545386819 -0.1551971861318553 -0.6897508735194315
Ni 8.154319448427144 6.949579642280601 0.6599321716697744 0.3472668198100277 1.0247453037200094 -0.3518464687609102
Ni 7.653290413713455 3.9000327984630627 8.356783639293361 0.8246579419436829 -0.12009262911923833 -0.7834786394918959
Ni 3.0796118627416593 8.59995166050317 12.434465837647485 0.6329179236907875 -0.9655291983711695 0.13089203372758745
Ni 0.12493321548323649 4.97814999538967 10.324564159303673 -0.2182853728415918 -0.5040786587271706 -0.36986450260488557
Ni 8.709753151051663 2.2948993948492977 6.007934693380404 0.6319496462402471 0.3204514993893965 -0.27886750530002297
Ni 3.9150243474088775 2.5191809771352016 11.687743793455883 -1.7001350234217625 1.0966721717672983 -0.5894819639943395
Ni 1.2094912260310091 3.4834279388996072 12.702362177631487 -0.4652182342165472 -0.4235439944062125 -0.12006460409478033
Ni 3.2728453737135528 8.477061009430038 7.8762649004142835 -0.21062425675190824 -0.5556166787054625 1.011096088367691
Ni 5.507569219029891 7.858411576733457 3.582230165485669 0.552070613225417 -0.032907549361298166 -0.08067581788451267
Ni 3.122829758549024 8.514589944647764 3.6048913435400114 -0.4918165535303659 -0.6097823661145885 -0.3776274343797561
Ni 3.629693391243446 4.454556267393239 9.36940315027619 -0.8067165269739138 -0.644428238323232 0.3652414020105775
Ni 7.470624715932874 6.344155905162811 11.575197948318948 -0.502987739655837 -0.5808983360903868 -0.3633968926026709
Ni 0.3787018182973542 -0.08581501223518855 0.677590705340012 0.007126326632136114 0.3331182962237876 -1.1119733209007432
Ni 4.514941170675898 0.4198289073088153 1.5521150216194184 0.5175008456703475 -0.6673735342654958 0.5585919592837024
Ni 6.105592756212679 5.517800245754296 0.1527526878834154 -1.0183717960934977 0.4880527156125595 1.1285430523339661
Ni 8.31731499607299 8.620022313463414 11.197101435428332 -0.24784097501152155 0.6453546067922433 -0.01034226246627251
Ni 0.0890709181598504 4.863724517673919 5.717284331505238 -0.7796636366211799 0.8858820788614872 1.3519418351427233
Ni 7.635395219282688 8.974540132735791 2.654992395499521 0.7106302880716019 -0.7075773601778911 -0.5547453318441027
P 8.62381798796882 1.6297370203718333 3.653890133540143 -0.5043843628930476 1.2926568242291607 -0.4850776921446356
P 1.8183738511872989 3.2002087249050493 1.5652105537799186 -0.5735899753544315 -0.03250799993003434 -0.4887101466909002
P 4.989236641786758 0.9143206436297391 8.353972837645232 -0.6830801463674752 0.48065616603817224 -0.7655238547856881
P 8.808613632594163 1.3669980644999737 12.264914786934986 -2.2208199232470465 0.6176314298453621 2.2660911363800196
P 6.260223256207523 7.704518366031031 1.322894511308014 0.3118629863894371 -0.16788455179153666 1.1419570117470268
P 1.9938578051195206 3.1250052170785017 6.164430262214955 -0.6074735154757538 0.20299476523110846 0.815376516641757
P 7.0323107827593585 4.0071946112979635 6.167921008432757 -0.10305521402097735 -0.3188237339779864 -0.38081354541722157
P 2.664335944371943 8.671632563932615 10.188997593803132 -0.2741924684218568 -0.396856200702381 -0.027404360154881836
