# total energy = -381172.93559710606 ev
CRYSTAL
PRIMVEC
9.18468347612356 0.00000000000000 0.00000000000000

0.00000000000000 9.18468347612356 0.00000000000000

0.00000000000000 0.00000000000000 13.44271266933601

PRIMCOORD
 96 1
Ni 6.16591667901465 8.991171175411782 10.256386094108962 -1.337560883830703 -0.5414632700232158 0.0014274764751459285
Ni 7.1386756685236525 6.213401491505907 2.788059284570083 -0.6256722978719677 -1.1308755571218847 1.566881945661166
Ni 3.459218074230119 1.7726897939797097 8.886506198772446 -0.9391725627545114 -0.45939622821813136 -1.2044132212997194
Ni 1.1717543371754588 1.0618871559335983 4.271461865088791 -1.7484864181419566 -0.7905733415551481 -0.08144277795752425
Ni 8.907039476684528 4.511332727167451 8.739080092246157 -0.023076936424121546 1.1039237111233893 1.7344782767883222
Ni 5.848328701002524 0.3366755867779541 0.3087431280258436 1.140335931203836 0.7829821594714516 -0.5966412007469403
Ni 1.897500454897252 7.2780716064694575 0.7976787201335976 -0.21107908490113972 1.2190296856613134 0.49284936567025445
Ni 4.456169519464841 6.342942264306041 2.538427859583405 -0.12456866261272094 -1.4940667614716527 0.9209203014125429
Ni 3.848869077156443 4.789123472582939 5.058573607123512 -0.996518190553516 -0.2918099243933039 -0.4354052646201727
Ni 2.098167414918333 5.539025307297384 10.048037983471547 -0.7498838342555859 -0.7211034196887839 -1.9876776878982803
Ni 7.946514485287391 6.665269538884026 5.215059485224535 0.793504399159014 0.07747942243440205 -1.5368643162531532
Ni 5.165980211718098 3.664991718147745 11.959013287190063 0.1399060643007397 1.2199401132907248 -0.7231268778767159
Ni 8.213559151280293 7.606240339605361 1.3513957202613394 1.3531332843476631 1.1699211010601205 -1.585719132972327
Ni 1.639539440655579 3.099656093687036 10.049624178271786 -0.5477604158858373 0.6499501965827258 -0.23878554967747262
Ni 3.763607662387325 2.876431551561791 0.20049520644398475 0.7917084836008559 -0.7995773448259712 0.9735397273804719
Ni 5.329890069303974 1.9729434432537678 2.3807048046462933 -0.17491111962101488 -0.5013957125783688 0.42108422001181034
Ni 6.837987507723115 4.6186281970945045 5.566573846288927 -1.0307123199367216 -0.34611805091756515 -0.02800702673588725
Ni 4.49518605398377 8.673041301086894 8.07901639997286 1.1934801193269833 0.048837333217677185 -0.14184724718751054
Ni 5.775925842807441 2.1505568482742574 9.474974366509844 -0.5713736844294031 0.48036923092537276 -2.0579924742634423
Ni 4.737358597689182 8.238238395219174 3.8642286229841276 0.597106827529449 0.9072985968640505 1.263646810150056
Ni 7.334428822996799 3.8443869517220652 10.39589500365895 1.6041210325182824 1.073515531145177 0.7911011890341603
Ni 2.4272178776478843 1.8975739323633896 6.359559193273001 0.5861863239622034 -0.38215360438488377 0.26915027801225905
Ni 8.555128337302994 4.339340348306467 3.8945013390327126 -0.3600616575818509 0.8741300805318817 -0.7995894290108294
Ni 1.752125288144521 7.737406801343783 9.349796318261614 -1.2773361347116903 0.20950017044979402 0.3733720015375118
P -0.23295479557848228 4.799869552005525 6.354867657060132 0.7236912350206182 -1.1151488904152471 -1.2918487265055687
Ni 6.783825430496627 2.013741806326527 11.371177025661446 0.7182950037057114 -2.6516208563259878 2.5838635462753565
P 1.7197860183608233 3.6321381061010856 1.8141880299174271 0.1040952252497175 -0.8396461878223991 -0.6154159102512821
Ni 7.415180558281738 3.23805090115672 7.383181121778925 -0.9139454127566066 0.1211382967749333 -0.3181642460171165
P 6.38909529772356 7.454169538750864 8.508550971518533 0.4784753563367696 0.8699522950051083 0.4284987673083265
P 4.180674944866145 0.319394605210778 5.867677154773141 -0.6410294970543282 -0.48805143006097884 -0.5724867149879238
P 6.996974375077788 3.430589416486357 2.476524012831021 0.25333182292276374 -0.10187764877310843 0.4312400774988896
Ni 4.290468648641868 8.34253965840113 1.4732810595582886 -1.2640373607202553 0.03813511630882464 0.4161533583690961
Ni 7.266774446050841 0.5268334322047415 8.14040957833559 -1.2830511828185969 -1.5401995512739735 -1.103245711219758
Ni 6.313927849865058 0.83095941995218 4.713095419902304 -2.1977309026380665 0.3215156789878527 -0.793994194311239
Ni 5.614973453233594 1.5065635963135244 6.9984237180973485 -1.245305588638707 0.9599303641271534 -0.5441302753324176
Ni 3.3649648545424435 7.113858654335766 5.6711038080842355 0.0019476106446740648 0.3074193487957867 -0.2775395305172188
Ni 7.655938660764006 0.9469041061119252 2.1290297876326703 -1.1028975838517199 -0.7074693738451171 -2.7636075685086405
Ni 1.2600099586896736 3.1728212805932943 7.85417351665594 0.14744222477678479 -0.2771096420686518 -0.821290825243663
Ni 2.330448054745005 8.73333874673585 7.246374346046135 -0.44516260111725275 0.5122249419833887 -0.4966049760579447
Ni 1.4706147460058299 2.192843130036298 -0.04688964501554475 1.6677766616957148 -1.3440254085091239 1.7598846326765691
Ni 3.2556763083464144 0.3535928548877504 13.218057935668355 -0.8533969617495882 -0.5403816069232629 -0.1250862256790878
Ni 2.7991148878187735 4.4254926773525005 11.915674440725603 -0.01609896244439163 -0.278843594040623 -0.3386158290032491
Ni 5.01582900966644 6.240468753094251 7.347437089908088 0.8168525869666513 -1.042004347910773 -1.563064885907921
Ni 8.316877653352662 1.0295846248829694 13.237455986728612 -0.00874560740311397 -0.618554970100896 0.6175530111989429
Ni 0.2768787063670585 2.003868271814322 11.480950523133979 -1.2869865133172609 -1.056811845237251 -1.226360672105088
Ni 0.5278740568189116 3.9079725139806674 12.611172641043634 0.4122254840695997 2.9935354106851673 -1.0790665428703934
Ni 3.099812233302578 2.0865487905853657 11.543256659013467 0.014644746496368329 -0.3895064452055292 -1.2056720334074849
Ni 7.984658474895939 8.524442310507387 3.763649911930354 -0.30093399818175914 0.6314752777069899 0.7242864454024558
Ni 0.23591501899549042 2.8559221538262056 5.6951529827509875 -0.25404813226349793 -0.21181493462589976 0.31800123807669106
Ni 6.227766336135757 5.05023483318525 8.937132172941075 -0.37823267206392286 -0.5709404535467264 0.010471074734652934
Ni 5.221180158153777 2.9341113624796047 4.8106496147561995 0.3839559477009452 -0.2029556844630569 -0.0745103125037491
Ni 4.840952640259566 7.927796100788903 12.157145274629404 0.815024789729293 -0.17468691942535078 0.38620669140833486
Ni 8.749788514467348 3.13803888506053 1.1419628985300734 -0.806326747734663 -2.8026096608034505 0.9537293775227641
Ni 0.32948214284310834 0.9946001663183274 7.127621902211617 0.30826652728743037 -0.10303258831315804 -0.34105246346919976
Ni 6.262190529021102 8.10179074060213 6.202010647317966 -0.19105301948819997 -0.130571160053059 0.30895249761086147
Ni 5.335116154082993 4.421019736601391 1.4597171193093355 2.2685979619622736 -0.06794268658856041 -1.0628588227622793
P 0.06856825293104077 5.2467043929532355 10.97059716811552 -0.47835040072313095 -0.07230199199852064 -0.9515303129889161
Ni 3.8402630289351065 3.835137975672027 9.779654190658292 1.4330904788985963 0.9852765562014256 -0.6367013019926195
P 1.378914868266427 0.5792742997869625 10.208341934406732 0.7490749652010454 0.6873702891023968 -0.10946574553301147
Ni 3.7422716431576943 3.800144332424118 2.726047977023474 -1.0539262961593399 -0.9135633468268395 1.5643836047193445
P 3.131242219442826 6.729286781256185 7.9767440333246205 -1.3897918161109613 1.1893972075068613 1.0376401574048066
P 5.099317780564995 3.5423119037481854 7.653124473810945 -0.48879473598490664 0.5758726007410211 0.5025455099120958
P 4.798574511664854 0.8164760929081831 11.76428238796455 1.4501860009283025 1.5609241854158344 -0.6045979937001716
Ni 7.824881724780289 7.064674675440082 10.150511494683338 0.9842946519041307 -0.738422884803838 -0.5626630440292826
Ni 0.9456366198210562 8.068634034007655 5.431594822526303 -0.8835788846496073 0.48928016026175736 -0.1300494832216341
Ni 2.839049890664419 1.4754734434541616 1.8961622465452257 -0.7314076298282693 -0.5806859629692643 0.9350377146505315
Ni 8.121455147477135 1.984121202789911 3.9049737148939374 0.5626622726983342 1.3381846334576308 1.4617554509334567
Ni 8.476296200820894 2.077795787431755 8.969918736799883 1.8410890693710422 2.4247477418153855 2.0336243298317234
Ni 8.3719214601728 0.23852071363838592 10.17948090417631 1.3458758314543016 -1.223845361882402 1.5961647537856833
Ni 2.195038269337151 5.6927493511399705 2.593717815915101 -0.15610504265810538 0.2638571479341198 1.3914604620626358
Ni 0.19122051328079878 6.347810146437641 12.838220766812999 -0.6535628536346486 0.4383435213128903 -0.616301655290345
Ni 3.219507025640308 1.6898439509098568 4.270655449897934 2.8570100899312023 -0.39752314486241863 -0.8739076801084306
Ni 3.524355847960872 8.991492639326134 10.223075084835596 -0.05666299990968306 0.37859622605092863 1.3011535488462622
Ni 6.160258914122076 6.41646565385972 0.6762434303167394 -0.5308320155616149 0.9706516071993995 -1.9850615904316715
Ni 0.15564456111375122 5.157061884265679 1.5305741953105543 -0.32189851624856824 2.664449375549224 -0.05010977217219757
Ni 0.8156053849344556 8.771648060643207 12.163423005642514 -0.024138287809100364 -0.32269247290477326 -0.04831797037909743
Ni 3.155838801232301 5.067557145827129 0.6257699218903457 0.09866814069687524 1.1781596869198292 0.11964371450727782
Ni 6.478085693899147 2.7068271903502716 0.24259779454068167 -0.3784098210717354 -1.464956731479574 1.2128533816472724
Ni 2.8872602931337825 4.76139491379936 7.31153140761175 1.1724256126495292 -1.3262670560844385 -0.14644746496368327
Ni 7.761727842635243 6.156796288530352 7.372493824329249 -1.986579826848411 0.3247588685154988 1.687649746470558
Ni 2.4118519025419127 6.941039653980738 11.807392535815657 0.7478490632137442 0.554754073594851 0.6206265079179439
Ni 4.80510482146781 6.776009265036268 9.966010495680798 -1.3700246607863633 0.04233604176404967 -0.5370499714468686
Ni 8.85803000677092 8.068744250206858 8.016050803834792 0.4943832858162776 0.14944202881563293 0.18120800837332018
Ni 0.9480613762035884 6.183358392539001 7.456591539728417 1.4739147120038099 0.7034628237888852 -0.13377038371664704
Ni 7.438812748328161 8.033392404311531 12.37009123771036 0.18823380487185 0.2295509184530821 0.021829437170265628
Ni 2.3830946592324103 8.047123505795946 3.2520740755690314 0.30669506903525245 0.4027332283084484 0.27419863906944386
Ni 7.576757506317752 4.4085836754576455 12.905837486557562 -0.5747462004460617 1.5297837552572882 -0.30439830258127576
Ni 1.3265805430101054 5.759641399374752 4.8590023798162045 0.3913198442651841 -0.32237159923024483 1.4893320750001446
P 6.299112955755117 8.25206134353626 2.1944017707867363 0.2017063854369881 0.5055745265464067 0.2821991407764173
Ni 6.399942408662085 5.865393842512922 11.520928693990982 -0.6026169587144008 -0.17127172309621475 0.6158334574046749
P 4.366885213424704 5.97880631149591 12.449780305141289 0.033014507252807655 -2.2317337419460728 0.015186477932451264
Ni 0.3059004685546552 6.964074839614794 3.247262220005362 0.10477476781524536 -0.5358940034655545 -0.7095226568297199
P 1.173526981046022 0.2643801893770967 0.8179245174594154 -0.3326482985659045 -1.180597092716728 0.6198834591043324
P 5.481290388279968 6.026392155503105 4.617625229681729 0.1997315210988044 1.484969427156075 -0.3427679034984097
P 7.976842309435579 0.40043473955030584 5.8081925535933285 1.2377051505836298 -0.7798590404614376 0.21207744425866704
Ni 1.6408712197293183 3.5670278864201337 3.98806295207037 0.7334205464932401 -0.6683551814524747 -0.1487887115023502
