# total energy = -340892.4376991829 ev
CRYSTAL
PRIMVEC
9.09903563404250 0.00000000000000 0.00000000000000
0.00000000000000 9.09903563404250 0.00000000000000
0.00000000000000 0.00000000000000 13.31735839503738
PRIMCOORD
 96 1
Ni 6.409469728987842 1.829806921275796 11.525361440812219 -0.41564505127411 0.7163378799793406 -0.19288338782871944
Ni 4.519045033831821 0.31638801955173057 5.9216831794778715 1.0705279092717628 -0.7210838793047581 -0.2528875362964935
Ni 2.71850970945976 1.5187381978228915 4.906021550262568 0.3196796542203785 0.7439502423799703 -0.30715118273606457
Ni 3.4650946636246256 4.454150713310391 5.115050960952788 -0.007878631417128367 -0.1900199502379953 -1.0647745517277531
Ni 5.301270909685194 4.463622809168889 2.7785870006368203 0.3961666308345242 0.5995753436745996 -1.1343041231874595
Ni 7.307526325570015 6.337196090751482 2.6887212873449178 0.6128396648836736 -0.5746320434657007 -0.5861814388661969
Ni 5.21928860066976 4.783472101789373 11.552542079379467 0.1635185615133571 -0.6672930587365475 -0.041779655039947405
Ni 5.763383620891287 7.796408398942967 12.315626314447519 0.22251895130696517 0.5967610141542561 0.8187904274193125
Ni 1.7543759177532705 6.472016498374312 0.6538939903791462 0.12301674474456879 0.527439444940298 -1.5328839914491665
Ni 2.616391235089036 1.5119776145156254 0.2511624941414928 0.9021561334311625 -1.1447705699364221 0.22880786963947045
Ni 0.6112604599804982 9.149535053326355 4.564737659934241 -0.33313577972528435 0.05675196007906356 0.5582168353324709
Ni 8.67822321732397 2.225824239286758 1.5480097947266267 0.3679994243716888 0.8873740900259814 -1.233922543612746
Ni 6.9794697030125805 0.5961005570891977 4.6770161172402185 -1.0098401044734027 -0.5039717008356611 -0.29279465690407636
Ni 0.5340960902129738 7.434339582034845 2.6309105658876963 -0.21927139090394496 -0.7192799933267999 0.683277607090262
Ni 7.701478162543629 3.7546441683404046 3.9639383609609626 0.03411879606057995 0.6143015941411807 -0.42480794872030064
Ni 7.809292633079022 3.8427683262554417 12.543845590810717 0.28301700869202223 -0.42494138897437145 -0.09070723397858572
Ni 7.976915063343433 8.99902790866217 6.9330163975501495 -0.4964599658396482 -1.2449147809581915 -0.25855116234017406
Ni 7.0635447901715835 0.5945873875010438 0.1491341002212961 -0.860222469311854 0.11722739175630133 0.051670688901414234
Ni 2.081622726159498 6.52479090373386 9.409099596762502 -0.4900535480926721 0.31729341337638906 -0.36584483992253125
Ni 0.017587525537839502 4.891359364608021 1.3351587891655432 -0.4978133945437491 -0.5282262025076516 0.11528518042826598
Ni 6.266551179852943 2.0852350432160054 6.953471939048218 0.18692639891433613 0.13596584870606906 0.1144868528966867
Ni 3.430136169591629 4.406471767778663 0.33884989835700274 0.6331950886115739 -0.2871626554292796 0.9823107887048824
Ni 6.085243800336678 5.681246628273936 4.625970528607967 -0.5018993916876646 1.2408151569675212 1.2158037225248481
Ni 5.0708833331845495 2.6969722926518207 9.479934677501046 0.9965636990794708 0.941108860545276 -0.17042505882520326
P 0.31588848250789625 5.430468113426611 12.393173753605668 0.10044991518764634 0.6603793623358498 0.5954453806666261
P 4.154592269647112 6.289144084768074 12.817877600543708 -0.6482504402827998 -0.4067300081726673 -0.0991139699850422
P 2.116863290290106 8.465460472406333 1.631243221110499 1.299597517213052 -0.3259636874568773 -1.2776053292126772
P 6.286660048102012 7.743879667539404 5.685712434851602 0.6955286565434732 -0.1542618188017795 0.46776876855254285
P 4.655703446606828 1.0838770976602212 12.922604768365566 0.7931051068380663 -0.23704079907222406 -0.9816371596766256
P 4.012783802831846 6.289517145219753 8.398565273998944 0.6967568725236194 -0.015248441518638255 -1.3017919537612095
P 4.90709159682641 1.1210284592262612 3.659756697407479 -0.9362029386032263 0.7411901631363299 1.678298644272961
P 0.28040042461422265 5.420695749399688 3.6436686929046833 -1.6016535448143965 0.5288460954798376 0.032770766673117756
Ni 1.6792451823991699 1.2937918444955243 2.5225337749641623 -0.2919729323337294 -0.10316859967039005 0.7785691180054204
Ni 1.866849094416954 6.389679326978011 4.791292722721534 0.006477380194227554 0.9461348530049576 -0.01818926931451706
Ni 6.169883027690904 5.87488320076644 9.321684253705657 -0.20123458800689215 0.1699260077015977 -0.4883748748386686
Ni 8.50015509441253 2.0989563886094875 10.211710041637772 0.6336077506689604 1.4694309652008435 -0.32431998120586725
Ni 2.2611557937714344 5.273418762304924 6.93976879172555 -0.11902150754224665 -0.1264090582555694 1.8018481215925484
Ni 0.828554524530731 9.343162526783452 9.090801689678882 0.018690377320651683 -0.20204268573048428 0.26405846531164845
Ni 1.5680367716570343 1.0866977986363349 11.40776914682866 0.3711626525910188 0.07944657346310188 -0.4648467098097414
Ni 3.901557194018896 6.963637381404716 1.72829990208441 0.4734326517065395 0.1434549579942626 -1.290871450193964
Ni 5.63138391424457 7.924304440621207 7.951555141761089 0.012634658044875013 0.37482184661016094 -0.07207187826558555
Ni 5.299014348904303 3.142297283532332 4.851233528367492 0.9330908753368058 -1.3620092466810543 -0.024506726892112633
Ni 0.7999416977904494 7.351656647293085 7.103811661460918 0.17890404283049188 0.9086448264792997 -0.17425523120457087
Ni 5.109190272247256 4.667759668520862 7.324799934386319 0.040815748464781317 -0.17936272763446529 -0.21847409181363017
Ni 8.77217075789937 7.3202012818917135 9.466990389731306 -1.2917885626915946 -0.7487276091639556 -0.6377634247085467
Ni 4.5576977362399855 0.33818839848292703 10.573729723754697 0.10072476611558782 -0.0831931849897277 0.34055161257338123
Ni 8.511920147193546 7.237809516282972 4.985313274508206 -1.3769458133862285 -0.621482428160336 -0.057438187512810754
Ni 7.230230019789092 6.189036497222256 7.161955407614029 1.0356020439288551 -0.09602324687486044 -0.7353568442840046
Ni 2.1296656331075 5.154385181112923 2.6483033720678297 0.9644789027297841 -0.5272131878621049 -0.624133749740254
Ni 2.468968663427762 5.183793263547761 11.636627175477418 -0.5812266659640829 0.45240128495753706 -0.8049987729518587
Ni 1.0804376622764438 3.2083016863733937 3.941964190453496 0.10694992108969321 0.5869864512659956 0.4261351521721564
Ni 3.5746470499227203 2.9859485581369696 2.972980612875172 0.19143277142512194 -0.955933070042302 0.25149271283149593
Ni 1.1851493617381113 3.3778167160024224 8.4332835534972 -0.28030089531243985 -0.6368177729658258 -1.844608138267894
Ni 3.828419147418889 2.623661364379084 6.912148669748152 -0.003265815235465343 -0.0064910070409823694 0.6485350614027541
Ni 4.002319912114004 6.682659168042161 5.93534629104475 0.8399377509208888 1.3060116482695119 0.3802036797473646
Ni 0.8576568793758993 7.421464446934197 11.60285519566147 0.380836428235357 0.0309005462335984 0.08755557572348147
P 9.385473041425158 5.478447327126765 8.04787935038475 -0.3970564896386452 0.7207871739999456 0.019190971106154045
P 8.37483407975442 1.6833306492968316 7.967322860217565 0.19999043118714588 0.17658619333059267 0.7331827194508213
P 1.830698626745664 3.2005948033838183 10.462848878287208 0.9728619845871568 -0.38409504438197073 0.788573794626616
P 3.8791371707764952 6.063588096068449 3.6072998483836294 0.5559984875249133 -0.33727551292527075 2.0395016145481066
P 7.024610017665807 4.151061843909266 10.380707336152152 -0.30425792034866955 -0.820292980106768 0.38855642258743406
P 6.569749237678949 8.127686080034415 10.176525891526687 -1.0500868678085913 -2.240089055889303 -0.401518896285373
P 2.400716798841217 8.60917973665703 5.957133931326377 -0.8504173102959741 -0.5751480638701708 -1.0540358251540105
P 7.154171182823496 3.8967529033240957 1.575656303906704 -0.6807939214364598 1.205784133505317 -0.6729589987730732
Ni 5.53709061032371 3.0182956290082097 0.19570387333693393 0.008772346875991344 0.10978199122184963 0.2786600172749072
Ni 1.172419811203972 1.162456367433506 6.917089445974056 1.17738192821354 0.19366423185880197 0.10241089556875912
Ni 6.621741125993511 0.925153524023679 9.195622577565432 0.2689067945428853 -0.476842705829353 -0.6349974319276355
Ni 2.9241388106184516 1.6490818800255667 9.206995461920414 -1.1027314905875008 -0.21512960082142948 0.16270789268660366
Ni 6.423036390779408 2.169919765747265 2.5253572056508977 -0.14450705340786082 -1.429236138149513 0.24909567335422905
Ni 4.264299339547123 6.824585922317715 10.56688451941815 -0.15874710826664273 0.7320362645512039 -0.07521068100488337
Ni 8.137349255636456 7.053372068586761 0.09462814842383117 0.13151244092040576 0.6761926752190226 1.249798334302738
Ni 7.678284721291649 3.7732971909243824 8.285966530646645 -0.04242834436753984 0.448112427774196 -0.31599372072835896
Ni 3.1642350578981713 8.229677167909445 12.461704048675664 0.026019563992213255 0.5556524170394043 0.9285518498158718
Ni 0.38833409251344453 4.837301995256111 10.114346723170652 -1.2602346991447135 0.1326864066238489 1.6350339200470552
Ni 8.452840110297075 2.155688874371001 5.755562090055585 0.051538534198924145 1.3641496900628247 -0.035136952912449164
Ni 3.7490755586714317 2.875822932608245 11.558414596831028 -0.2908514171347765 -0.8931549583738165 0.283990171238569
Ni 1.284929384009283 3.2225416767850645 12.815413581755543 -1.1524116314214476 1.352067047866678 -0.8636559204734352
Ni 3.1873466078314907 8.395716366013067 7.913200887714267 -0.6597265592431992 -0.5031108954972626 1.1998330581282046
Ni 5.271444271621643 8.003602534191632 3.647318316006358 0.3107317009984713 -0.45099334886641684 0.27190907170431877
Ni 2.7153796412798146 8.488162565746345 3.728860231708103 1.5563918447631195 -0.8465040912844969 -0.12133010107076524
Ni 3.440918526548709 4.400575592835043 9.273528518718612 -0.010226819934330774 -0.38133959312402066 0.39795894684825656
Ni 7.318181296031399 6.171757428984708 11.423456793773555 1.0386593426979402 -0.339523428419183 -0.5935031693385907
Ni 0.39668700701690396 0.06936376671325888 0.6196288428441491 0.2738944775654638 -0.3593785154718972 -1.4683966103990582
Ni 4.255000125361354 0.29924634674882516 1.7618462258222685 0.28442185945934884 0.30428954491755333 -0.7943124968826062
Ni 6.0651167340167955 5.512668799291808 0.5176868897603172 -0.11666534860524425 1.0501789133017656 -0.0039913805475802235
Ni 8.124792586775047 -0.10288097353781556 11.214760407779226 0.9483390597451279 -0.08835441747569299 0.6859986055658508
Ni 0.09562085318671507 4.86296127510334 5.774885711549046 -0.5379328882724542 -0.8083808020502142 0.7559331257734594
Ni 7.805443741101938 8.926062743734892 2.225197315747228 -0.14686449789644385 0.42220547810044706 1.64403715198693
P 8.642454909139767 1.6131315911332267 3.5751247492815788 -0.4087159282544445 -0.1660194735583399 0.27138816620384226
P 2.018275241657228 3.184262034828579 1.5527776892797995 -0.867130509285597 0.8011187211711622 0.2587398813122125
P 4.629225253572986 0.9167005201307447 8.14621444583332 1.453510180205529 0.8697967432638504 -0.4591445172186415
P 8.86072257047853 1.653422119914619 12.42449536318656 -1.6704927750752971 -0.08827419905706088 1.0324357303857317
P 6.124014790205131 7.78759143363376 1.475656084978687 0.29070537847521544 -0.3098366999880277 -0.8267719029628923
P 1.9362747345709792 3.2248983269554308 6.146786036214235 -1.3598916861174193 -0.24027216152532813 -0.44893312390327844
P 6.8977694640947576 4.275755025124307 6.0549767689594365 0.32280097345817954 -1.3447864550448647 0.2819934525235143
P 2.537320617403783 8.474859775981574 10.322830191736463 -0.6826446014919534 0.08388352618853295 -0.02121571484566669
