# total energy = -381170.62900360813 ev
CRYSTAL
PRIMVEC
9.21710480968114 0.00000000000000 0.00000000000000

0.00000000000000 9.21710480968114 0.00000000000000

0.00000000000000 0.00000000000000 13.49016456820091

PRIMCOORD
 96 1
Ni 3.599869356745519 4.8281776236552565 11.518226105455405 0.9924201092247424 0.03531153081710048 -2.128238097953567
Ni 6.963531966311785 8.816621688621906 3.4995642127107818 -0.4983443273465546 1.1511877863166755 -2.5872846561417635
Ni 1.8408678412175348 0.9476566399201937 8.595379832952398 -1.1076510393763053 0.26542217842839455 0.3897252460845546
Ni 1.0303801563651067 3.0709365751624786 8.318508140680855 0.1175194690754234 1.5788638006133906 -0.410684364834725
Ni 1.1673739864398411 5.076385041409582 11.328514122215397 -0.7214258360252093 -0.6001744107111793 -0.24120007265623622
Ni 7.8354240039838245 6.937807026546019 4.361181021844349 -0.7722128367700895 -1.0369937820700592 0.2878933629477171
Ni 6.687101773364779 8.541749186402384 11.060923132864009 -1.0690379549897975 -0.09838223402534024 -0.5832395826290535
Ni 5.521138003974082 5.01521111621238 7.701116959986382 -0.0707834984714652 -0.6040210381507791 0.8728481284956645
Ni 5.279834197787137 7.658732103120429 7.926172853662007 1.0389989854255461 1.1481196889143128 0.3043705346671339
Ni 6.239943146422326 6.439723895051127 9.736526547409623 0.41242371612333484 -0.9338871459858562 0.8554942105982491
Ni 0.4759934179002539 8.547307100654896 7.899328035651331 -1.9538486551639769 -1.1257266659310934 0.8376903496476089
Ni 4.987771794935889 3.8475882679403357 9.764653464711381 -1.4026038802739649 0.20184445367674914 -0.3865082818091537
Ni 4.432275317041513 0.9767181716584457 1.1943966945750164 0.6510097481954916 -0.05584487488376189 0.6506060849991697
Ni 5.321615334282378 4.4037391602823535 2.590138280479748 0.12023481112405743 -0.04553423698637319 -0.28995770167591356
Ni 0.5102985606140502 7.8231929057863425 3.673749982752855 0.010204965557459844 1.1907249251793492 0.5377241146957579
Ni 2.6449957236914683 5.244329909726323 -0.13731458532512825 -2.8842792100598 1.2773664737289936 2.0028932192964537
Ni 6.123752322098697 6.774332454104016 2.110522540355221 0.18299775328389128 -0.2398661843361611 0.8097416869534828
Ni 2.748430074838523 7.82563543858388 7.796060514102901 -0.42641745929926556 0.915919762874158 1.3750863915799865
Ni 4.690363471244745 5.680317405534377 0.46698922812699095 1.169117631322219 -0.4666351691687318 1.7820447137133764
Ni 4.8474966755180455 1.9804332435583563 7.882532627109168 1.2246825130717165 1.8714789945168093 -1.1041823641014146
Ni 6.361387720536886 0.6718624272110361 9.105901447504941 0.31548849895716635 0.013832020787085854 -0.905906344502214
Ni 8.791394472520544 5.063932732694586 5.558284780127429 -0.7057261659017653 0.7679453197429871 0.6857918888716834
Ni 8.029130680485919 7.659856589917785 1.4003058962494135 1.845939712595124 0.3178302597164655 -0.8018609986538254
Ni 7.699075371251836 8.463366926363662 6.5097867962103875 0.15249881336408574 -1.0987773910357592 0.5895562688757008
P 4.703608450980828 0.25964584493071885 3.4223469947309595 0.2153535439067775 -0.4484476996264277 0.09626364502044067
Ni 3.8994160487726197 7.925751631968242 10.319139747909116 1.3995190707010543 -1.6442847492213617 0.09716378823720685
P 1.3880499118687115 8.505498312844965 10.100693440154677 0.0150977748733869 -0.7946346561087153 -0.6524521370689731
Ni 8.302473143292643 2.7871326982983766 2.048023195473921 0.17066674252236413 1.9104597466553808 1.0170505061789128
P 0.20176058276054132 6.260248428509027 0.07512677858932562 -0.14412678725030661 0.39774708794776664 -0.14251984777450294
P 7.361277693904803 1.0777284242177552 1.2602335531392916 -0.7676100478907555 -0.7202991786199338 -0.14820352842284154
P 2.7762472974157646 4.682482846558349 2.389432134519351 0.12772417752256715 -0.5443143663187658 0.24681561907080074
Ni 0.07577013251109219 0.6360834694243103 2.273969461482535 -1.5460464969730534 -0.46795543064205214 0.46998274548472607
Ni 3.0219384455333804 1.890013444524975 10.433968284129062 -0.4571236301338708 2.161769139831477 0.7332701369583049
Ni 1.8718188794595425 3.079978555065817 12.484149203859221 0.4807304709195333 -1.0315075621445073 0.09054782558258599
Ni 3.930883244888824 6.523101825943683 6.515844277548282 0.3034202549387226 -1.6841594739291124 -1.5143748769013854
Ni 6.9354382305876525 3.025090695407939 10.426520863372794 0.060702202976063206 -1.3222198825982583 0.7783608586493562
Ni 0.73978419490287 4.1630344659136735 0.8107411552370781 -0.4019639542425916 0.5996154528839157 -0.17163193464911083
Ni 3.907914219487072 0.4605851836449936 9.021614710069604 1.5273728318229502 -1.5652855477083236 -0.5355443334356197
Ni -0.057548837841460025 1.65617549330409 0.07405390757938826 1.0820197119614463 0.04380696988262133 -0.08368169459037202
Ni 8.886312218743353 1.6442209082534989 6.877838698669262 -0.24936949584090598 -0.6178954821400262 0.557289181311879
Ni 8.443531716626676 0.5961706400915631 4.759222618504539 2.4487919272487826 -0.17242846240847726 0.05248470016227735
Ni 1.9702206913331795 0.37630028963063566 6.244043836390721 -0.9404784260501287 0.3589152026822335 -0.23353998500781714
Ni 7.002971958163349 6.780461828860102 12.522474847728816 -0.5133569987053029 -0.7349243847322762 1.0998698527689896
Ni 6.63853684766581 6.3394510108835265 6.3157980762984645 -0.1721350995377745 -0.22489927861368364 -0.7834205325604507
Ni 2.102845613687035 8.918645822719816 2.3230330325563977 3.3349066909463665 0.486118217594008 -0.1799049732911805
Ni 1.7667346665360377 2.404346331952166 2.089289095805455 -0.27520265485392603 -0.29631295446998 0.22854227468290964
Ni 5.5595548971821485 7.838908069634652 4.897131707095483 -1.0897515333880652 1.125483439572036 0.6087061023312742
Ni 0.5043111292733689 3.812185368033382 3.9852779894347465 -0.4071496122085891 -2.6946544383776945 -2.107538146402054
Ni 3.368741234364166 3.77446897479744 7.456108799341586 -0.9406722872284896 1.1493952131926268 -0.04170329327605721
Ni 6.101308671676037 2.898705753068925 0.8097346473823946 -0.07265320469035229 -0.03916947111060996 -0.4207162951494303
Ni 7.441991881482307 3.703543352619879 7.058175964519172 -0.8421640691482464 -1.3159739016885463 -0.5148952897267004
Ni 2.272827462185875 7.1295781110198755 11.776117935324343 -0.9243717502962532 0.10832597550161345 0.05947475832686532
Ni 3.774127941916274 7.977690018059283 0.4125898750286202 0.05583664735364577 -0.895001267553936 0.310969013820258
Ni 8.753337046403434 5.412385383301823 2.416209667664283 -1.1253523133108103 0.3556699562720584 0.6541284963301316
Ni 1.4438779162260194 5.733795048143111 3.9421096786526015 1.2774065829383097 0.20590653956126473 2.977581458459072
Ni 4.341191886455593 0.07226671093998228 6.409338787049756 -0.17547084877922683 -0.37017457764613665 0.037905516796521814
P 4.835542090467455 6.815035189326382 12.248677981650701 -0.49756939685374313 0.7757036235321673 -1.684346393128938
Ni 1.6074262255071934 2.7142346156729933 5.661147670770908 -0.46407100798598144 -0.5962894738344762 0.695556424457615
P 7.472878399990041 7.869241561848603 8.718531414893766 0.3597721513658901 0.4187386025977692 -0.050609851737067675
Ni 6.152684814368399 2.0552208326874957 3.1413875164378764 1.2442851177939926 -0.9189004427690368 -0.4931069902070153
P 3.640083585408377 2.0573131154989714 5.965418129057397 0.10427751646385268 0.06581432739164794 -0.004035089301322083
P 1.5163151436065843 0.6367332753195043 4.083567352628648 -1.2826706595507265 0.7063401453366802 1.1532526392655043
P 7.215536831283415 4.783603704376415 3.992346587179772 -0.8542544246538771 -0.23183662916346526 -0.8045004931592016
Ni 8.067068284239374 3.4502941784872405 12.695149012567883 0.3773824082484855 1.4611255306589417 -0.27280073028065277
Ni 8.519176496511177 0.7180456530047834 10.17800559431493 0.1772690783302302 -1.3396352498612283 -0.6050137410813515
Ni 6.50962641858519 1.1248739157626833 6.186252588690486 -0.506762890427553 0.8963184437034628 0.03792017208454114
Ni 8.729759692078524 6.992252465168872 11.07386026129655 1.5823592153611588 0.8558569932543065 -0.7954116434840559
Ni 4.008988991780655 2.3789255566479803 3.070186302823915 -1.671275933098225 -0.14066891060869324 1.1114629569232277
Ni 7.623605716360366 2.685753761543212 4.7536508785946845 0.3296367654330904 1.9398222589778977 0.4954171263974307
Ni 6.120987190629785 8.86717750897849 0.26193076523452874 0.440324556298661 -1.3235897663625915 0.03044468964310241
Ni 1.5928908510856192 6.656795932465517 2.0597049542195793 1.2048595648085185 -0.09097540003830784 -4.171743691454744
Ni 8.161783254154463 5.661717287853503 7.825051074133451 1.2418852501032485 1.539281410335078 1.7879636503009724
Ni 5.896228087731823 4.4318697644260725 12.287759428121795 0.17064797346928673 0.020910010679789797 -1.069680216559487
Ni 1.3877457474071313 5.959309953642575 8.97067637985982 -0.0960733833865055 -0.4996843863142169 -0.346321682287939
Ni 4.15159603873728 7.405326238204551 2.875064800720228 -1.2817826005188184 0.2745634786080304 -0.45849377100852
Ni 4.3950382132601815 2.5358375504037682 12.387141018245915 0.36305724987506505 -0.8364816740514884 -1.0926856763157247
Ni 1.25333270670338 0.6551269298506986 11.784036350140815 -1.6609120733653975 1.1901798513091566 -0.9472221725318654
Ni 3.3215865257143418 0.07040485575091572 11.950613400090935 2.41688813656165 0.6634112071836381 1.3291019544300722
Ni 3.9204771334608233 6.059260239138801 9.089294989613153 -1.0061230606331317 -1.6280873135258926 -0.33131646712835844
Ni 3.2413147591718627 4.131963605308013 4.627558118480886 -0.14540333996988508 0.03793714136540563 -0.4011412012309801
Ni 6.995524537407083 5.110534415050629 0.770071601592339 1.310364268811253 -0.45805462658857243 0.2803098941735044
Ni 8.175138839149302 4.968959683842399 10.25337478276303 0.06483962218320445 -0.917577353082239 -0.3307323124901143
Ni 3.708529806368815 3.3447030247944354 0.8497092313179476 -0.595709175850974 0.875380407999215 1.2243325859314658
Ni 1.3795333069444664 8.49977449070432 0.2010711433142929 -0.7947390428970635 -0.7380305344614257 -0.13241849767444294
Ni 5.064494976093266 5.658279307727159 4.514564707845807 0.5017862631485681 -0.2964283970019217 0.35081365662102165
Ni 5.270902823142555 3.3991392463123917 5.882157255397027 0.8657727097061219 0.5350157146256591 -1.0236361298162306
Ni 8.438065973423129 8.853932529242408 12.550089293998337 -0.16715204450088633 -0.21879985058416512 0.6852691835989939
Ni 2.897249450495299 7.898561172523953 4.838827988363011 0.016321619978158987 -0.05347328932779177 -0.6064435315493427
P 2.60579537656721 1.2353317008407712 0.21662224269544694 -1.3811475101724022 0.46831769907747733 0.06877212446839125
Ni 6.72672610731427 1.512711255592104 12.408294273983083 0.4099012068117973 -0.07092593758660043 -0.48183913060267985
P 2.5458012407967434 3.8983099961850556 9.610015330733527 0.6356098687006537 1.3701172205001695 1.2851335192689222
Ni 1.0722995494337935 6.979532860411883 6.182636718439641 -0.14871826327573096 -0.8376291573923702 -0.03850818337752723
P 5.1865110107114 1.026518189413528 10.952125348377756 -0.5262531379416807 -0.11281537873153473 -0.6299385293474892
P 1.35370697902484 4.698621997231892 6.676187799456987 0.541029524919907 0.9454979907519071 0.2933196761696109
P 8.165958602672518 2.6816060643398463 8.75591322722197 -0.031042985348733634 -0.932737348652129 0.7594161992260535
Ni 0.19972175915746446 2.682232827472799 10.745536846072497 0.67763532120282 1.4536158525454579 0.054776324409931465
