# total energy = -340888.75079177547 ev
CRYSTAL
PRIMVEC
9.09799074318278 0.00000000000000 0.00000000000000

0.00000000000000 9.09799074318278 0.00000000000000

0.00000000000000 0.00000000000000 13.31582909164291

PRIMCOORD
 96 1
Ni 6.131872944794806 1.7226135801564861 11.059901565075034 -0.41253555911085077 0.3405721813986715 1.7796278767417673
Ni 4.499702491290563 0.2052006337469075 5.958234150970371 0.6118695876609205 0.4062587249632036 0.4648045437178963
Ni 2.732790793875273 1.5959604500764266 4.566037761891794 -0.2114220700628552 -0.27441692572783705 1.9205613538657569
Ni 3.952549323916468 4.430139253549586 4.959560436833025 -1.0365191564264857 -0.1717779733086719 0.3599189613563995
Ni 4.997517254496555 4.598133653874871 2.459340672260499 1.2579836983270076 -0.28525001178759907 1.8946284360500791
Ni 7.39416458187747 6.375426158805523 2.6008080607781245 -0.1315263248774767 -1.5191478728099965 -0.15851699453370766
Ni 5.1747097235317705 4.608887479013485 11.531135638327582 0.5850666085354633 0.02088867052355112 0.20379026454921031
Ni 5.55351366893895 8.268772634521408 12.182745567600115 -0.014311788636981801 -0.187240073500013 0.2420184547924735
Ni 1.4937172293423049 6.79097688909837 0.3493182669877802 2.794224007842917 -0.7456847085725739 0.05136241363237606
Ni 2.6003513416394117 1.4465623429688443 0.5260976872401759 -0.49284653745677703 -0.07186387601983753 0.09963358993393809
Ni 0.5328065456642141 9.098081790917332 4.750914393965988 0.6046879823108167 0.7518782389777954 0.7220909804130339
Ni 8.882086391073162 2.385929894205546 1.5567799526488155 -0.8845317354811799 -0.1479027093529711 -1.0207708924532937
Ni 6.988530661568624 0.504894819655119 4.76159361557995 -0.8963994334530433 -0.10420166892059474 0.38963371481201287
Ni 0.7086889040226444 7.372693323563488 2.429313663387844 0.5444570625442171 -0.0039638697437544635 1.6759648539334622
Ni 7.616073675748796 3.918641112163837 3.6520390482325094 0.6757540450197072 0.4125805534161734 -0.2241017224130528
Ni 7.282650508506929 3.2829190042445675 12.698906429276507 0.844052801530527 -0.08464817226869938 -0.4020531715222882
Ni 8.125524769202068 8.839889909691701 6.900928837446659 -0.4581009064454755 -0.556329645612087 -0.33286427123145257
Ni 6.667626329682706 0.8893558957485845 0.26754552557842926 -0.06582178359081567 -0.31559699951057263 0.4755597253518712
Ni 1.677141822083062 6.3632166551371485 9.536024496194234 0.20408234186833238 -1.0647344425184373 -1.3932928872856842
Ni 0.04689104463994153 4.836273563353038 1.2659754135620411 -0.632183359517608 0.23880020496549198 0.3702835924201752
Ni 6.596452747568182 1.7066557042739758 7.077070488543203 -0.3558800154003355 0.3386461680205523 -0.2189433181405649
Ni 3.6163694654588663 4.643769175782894 0.7091374349696271 -0.6696530743282919 2.261060773044964 -0.24839761884593994
Ni 6.227511024200135 5.6909843100933 4.835776813054757 0.08448619276953837 -0.2893141545546437 -0.35161121282165253
Ni 5.505721923208719 2.925004045739465 9.066708279404649 -0.025711288723175074 0.4337615583691626 0.5694026767459613
P 0.09968122652174144 5.554478055964917 12.440885590278125 -0.17668338103008926 0.4414339873127559 0.07894032325064468
P 3.9517577987159105 6.333384343267849 12.52323150510857 1.4520562213678216 0.525729661338043 1.087943533645049
P 2.6886928324143113 8.399474370512367 1.5506679224219795 -1.1830257567628786 0.1994481855304307 -0.7852028212718541
P 6.406923402993237 7.730153382528041 5.89876604383329 0.9554679574804253 -0.34967877168563005 -1.0792323790242961
P 4.481524705650167 1.2604902349020837 12.668506402780602 0.6148515531073799 -0.6131949913405633 -0.8601875023088605
P 4.090975254105974 5.786422233700786 8.257624866380679 1.02391046652354 1.966905231237619 -0.6574367347677581
P 4.724704902037632 0.8982419033736972 3.9297543079394845 0.41910678457046535 -0.24565836553790596 -1.9265743928290562
P 0.20360211676141318 5.510725818154774 3.5711324355483667 0.47771765223513857 0.355601050707336 0.4090396301424504
Ni 1.266594986736271 0.7434395897243753 2.6195699374285875 1.0614220903157527 0.4194592828138776 0.155406473929184
Ni 1.5603873060053806 6.783480144670098 5.035287563348459 1.0287500540040284 -0.7935267677565173 -0.6344068495314881
Ni 6.2492461242476365 5.4475311739815035 9.30281114874023 -1.0526430585715418 1.3236692134502752 0.06048905852399259
Ni 8.700645160329206 2.3619657864093484 10.10599542452234 0.11065873739984813 -0.15880187276397814 0.5798989482915947
Ni 2.493950339104659 5.236303121322302 6.965084229449572 -0.8289573406499853 0.49201504269441726 -0.1463101680548706
Ni 0.4381537786637175 0.2625079680663735 9.291891740168856 1.5259304429494687 -1.3261660117301999 0.17868138529672453
Ni 1.2828439983247333 1.0137800180799466 11.4032897616522 0.7550170417170933 -0.16882223311445763 0.286349672609681
Ni 4.498037558972148 6.89420269284008 1.7584487463628893 -1.3556388243783364 0.144511424283235 -1.1820518228853838
Ni 5.610703639176955 8.12554296518369 7.8147273953081005 0.34497108179731556 0.42489665177936503 1.9681612151319074
Ni 5.27711670810049 2.5593103050909494 5.1245434021998655 -0.7805439823436041 -0.35074757926977657 0.07595090160501758
Ni 0.9462365342990141 7.576151692070088 7.197112108700902 0.2691039981553559 -0.3994702412864604 0.5420682505970664
Ni 5.33950163109158 4.291731519341703 7.113568898279729 -0.22340983855235075 0.9079269744766687 -0.07298024901246786
Ni 8.272521006735545 7.429537570150674 9.000715093257911 -0.39675078547276826 -1.3593198727743492 0.1941260019865689
Ni 4.292231908836309 0.22205921071970758 10.212654809996124 1.115431968873305 0.0653535857051455 -0.08685006501602462
Ni 8.343239689309518 7.187294466816742 4.749729835562394 -1.3956655012829189 -0.2879337292673493 0.410598489989138
Ni 7.3022657766954655 5.953925342522276 7.054393746446762 0.45571235160864093 0.2844568264623424 -0.04511746116392875
Ni 2.499663877333973 5.5919526801154635 2.640835581150241 -1.0519987401193236 -0.2703394132243538 0.726152294966601
Ni 2.300335996655572 5.294002579045723 11.80687936342581 -1.2381080424490034 -0.2500228131541888 -0.9559657230524505
Ni 1.1573190191052392 3.0815622716153115 3.472448348819512 -0.13012995875058234 1.5187424098414617 0.9362193936634585
Ni 3.476369582859057 2.4915302735489306 2.5840568400968946 0.03418770162530241 0.8763054909166457 -0.23759204359000372
Ni 1.2959996930374527 3.6132397566198793 8.448827331465768 -0.6601261086744632 -0.10344705014275732 0.3738700242198529
Ni 3.438067041544708 2.8897948213008595 7.49369569155083 0.7917799602687396 1.4864578387761431 -1.5509339069723418
Ni 4.382110960058268 6.827177794535375 6.153018495037754 -0.8728522422607226 -0.6592897288160968 -0.3391927845526416
Ni 0.7706726056189692 7.515822915002285 11.520908586856928 -0.4475421570930228 0.21265954201438214 -0.40622864305621653
P 0.27600574723358673 5.5755762966556475 7.902931506421755 -0.2507771748217101 -0.052900961764089545 0.6621835054241241
P 8.702837776114658 1.5328476878204556 7.9219999853625485 -0.10541342984050876 2.3977557866075734 -0.2556460728782371
P 2.098524364485765 3.1890277390749526 10.608068957226966 -1.3028918716936075 -0.5336787409817905 -0.4261004422794791
P 4.286336410790774 6.178381873820685 3.855905006727442 -0.5175962335976312 0.865708946347722 -0.06829904148671463
P 6.999129820863449 3.7704894297973626 10.541955677601523 -0.15258443109935657 0.19365394744615683 -0.24924042646220948
P 6.301996274969867 7.844415049123506 9.987817072882736 -0.7343584849264772 0.5602798885090866 -0.3044178429653015
P 2.4620709793028825 8.666118285201426 5.995332118301342 -1.1783442921268092 -0.3894357398685938 -0.35213288965307743
P 6.7629459794096505 4.1146391282054084 1.2544673649851956 1.1085046456258523 0.8162460637309039 1.899501447871664
Ni 5.1280461286621035 2.8361166755159046 0.8571480984785307 -0.3629060690091815 -1.1608970431846393 -1.3070742852060715
Ni 1.6655418837990252 1.4596634497366976 6.946908263407337 -1.102011838812657 -0.6372911130578185 -0.6618718877209763
Ni 7.079246727945197 0.6721904942861188 9.233316145930335 -0.9907704894364615 -0.33863948315233294 -1.3057095436480608
Ni 2.6355150761239625 1.584496981654555 9.162501934452845 -0.7361389738656676 -0.5643486592618217 1.4035819279165183
Ni 6.294335766706998 2.052907038559365 2.8132889067720015 0.4293945396497186 -0.2513245626847478 -0.2600974237813714
Ni 4.194000902049842 6.899361253629922 10.39537521824811 0.12133447194613942 -0.5890122234467727 -0.6559987167696508
Ni 8.31657347824245 7.171645922621806 0.517948616870755 -1.508159749229609 -0.30106486733266863 -1.1837628920392194
Ni 7.762551327806044 3.9175038633124606 8.414658917175942 0.8896274048365324 -0.9042754937670104 -1.30142865688452
Ni 3.0608188525662103 8.47909998609032 12.43867568831013 -0.0011258860743270933 -0.37473288644078045 0.08269079143201243
Ni 9.112183676674396 4.745948710581339 10.448678526811651 -0.13260875930837807 0.26139788776034983 -0.03355752424047124
Ni 8.597164612844786 2.173264358998206 5.704328333215807 0.7047625164369152 0.8486501910932224 1.3209142764129573
Ni 3.403412794545574 3.2513762701027984 12.37851431427325 0.23913136305266558 -2.3073318881973615 -1.455629283431061
Ni 0.8988660255433325 3.149315009184897 12.484415837112477 -0.7429223153360882 1.036147374909364 0.8553939375749591
Ni 3.137187387433822 8.187118166992601 8.165826139097595 0.6853026079400907 -0.13531176006183793 -1.3436669967284407
Ni 5.775959544268126 7.895372895655968 3.4951924160479537 -0.527933096747265 0.8039045114464155 1.2151609467345266
Ni 3.003920018034159 8.324570612165328 3.759657361937775 1.0523023874026716 -0.609071456090493 -0.08807416723111283
Ni 3.634629133016562 4.476284262943025 9.754310770124615 -0.6058838023911307 -0.8422545719795237 0.321951995194323
Ni 7.250944010530563 6.598772735224988 11.31716363163978 1.4797416030982322 -1.2874791366829634 0.6086544231577324
Ni 0.5266326490998633 9.033358684287812 0.5538320024284564 0.8687904134865231 0.2240040204929239 -0.740262252005422
Ni 4.662465546899519 0.44980375589721483 1.6846922446571184 -0.08537990822840134 -0.889836435523545 -0.01946325093093422
Ni 6.239611351978777 5.8873917357213665 0.010975816114401526 -0.9543580122456982 0.254670082118213 1.1606666723413883
Ni 7.992521241535924 9.081141332027233 11.247148223755497 -0.09324799812256844 -0.5788260269423903 0.8839013009860326
Ni 0.24599329514622953 4.609524338370256 5.842093749272433 -0.9836721878287834 0.6567800750203657 -0.470768474610815
Ni 8.036810260803916 8.964750735581992 2.5794760017235507 -0.8512953420255532 0.1635869528574473 -0.36030719793375365
P 8.452570244885417 1.799709954288978 3.690641823243621 -0.25437723346814256 -1.3575851494714297 -2.01977353999156
P 1.8206808231083544 3.565611774724246 1.375378753064427 0.7954075297189979 -0.8652734014722001 -0.2701555793483218
P 4.666332192994197 1.2385367830751184 8.123867115276303 -0.07302935708284843 -1.7492482360086452 0.13622912966978473
P 8.604470299466026 1.371503918778018 12.779454581122696 0.33164402567110624 1.1851512877463137 -0.8904393592148665
P 6.351789578678521 7.864776352558544 1.2620277953491443 0.7118538760660579 0.9898821732942372 -0.6199040279296226
P 2.0362668133660287 3.4592562621435485 5.6885487779531925 0.5819339764437526 -1.386257834815774 0.21063017028917919
P 6.892373996687067 3.633737529917083 5.867872906235427 2.0210027844129708 1.412015146285536 -0.12762467583022535
P 2.2874805356396157 8.305801457122216 10.063264891080273 -0.3341696203064374 1.7447174380178274 2.043585040588861
