# total energy = -381159.2585302576 ev
CRYSTAL
PRIMVEC
9.35413744024118 0.00000000000000 0.00000000000000
0.00000000000000 9.35413744024118 0.00000000000000
0.00000000000000 0.00000000000000 13.69072567450623
PRIMCOORD
 96 1
Ni 4.043101413974214 7.461318383797176 3.4747468286816843 1.424200375497818 0.1907257180557683 -1.45935044103639
Ni 2.633938023503582 0.6575023214435215 7.908159917357628 -0.4660381590146812 -0.6963784061382781 0.8932940550548423
Ni 0.7646567721880367 3.0708230131609966 4.661212527197066 -1.7355925928984237 -4.562823137574348 -3.214088239404697
Ni 6.4140759254501925 4.768159316090166 2.6645438258301013 -0.3966345716098782 -1.231435515524834 -0.28902799077279256
Ni 1.7829173064700252 0.7463497897823301 12.397130034597371 0.18626845361536307 2.023070979795909 -0.20095845152737002
Ni 0.455436115050597 5.112092241895194 12.821762039607483 0.11028875565493908 -0.6999509539808849 1.062388310883764
Ni 0.6347119009574638 3.064022555233988 8.065111118823506 -0.5966376012025144 -0.748682357748317 0.031184653132920487
Ni 7.442310776496376 2.9064334015939397 0.4102874352287262 0.5026964336676633 -1.0756397765770314 -0.2445049686597531
Ni 5.103682872326581 6.029574105519392 7.979749002099007 0.39872410714905526 2.0202018857782305 0.19179272586770194
Ni 6.214439923967085 6.422017588146245 13.000521477127045 -0.9054206631150471 -0.21731529561883864 -0.20010767349130054
Ni 2.0562826193433423 3.210293202558107 12.438270466521411 0.8977613467975765 -0.8182543524101843 -4.039202809269824
Ni 1.8721838401666466 4.7568688721865895 4.417613950520898 2.6229821095433725 3.17759631512625 -0.10359771678800869
Ni 0.18310911143436082 4.1549207730656335 6.233620582810731 -0.8434334227789733 0.37582123440895276 2.365661220065874
Ni 3.1312975117828823 0.36978869713383744 0.896633362073006 1.2348229439398284 -1.1017971516986895 -1.0111410826730134
Ni 9.11521407240306 0.14984766948545095 8.29355412200127 -0.6914084637275124 1.2578196619453175 0.7326582144059188
Ni 9.179074768782273 1.453866813349827 6.138359917835394 -2.3230127892677284 0.3872844978535459 0.4629708329432672
Ni 7.081437507767259 5.2321432419436515 6.360026783843523 -3.0038496481269816 -1.2318960001010202 -0.34441212397005194
Ni 3.135665893972584 2.6284097282699337 0.8500245013950057 1.3331761244994458 -0.9000863953863272 -1.2058368411201232
Ni 4.770535267002765 1.6198092117337801 6.535117528654731 0.48194737404577 -0.15926210022984827 -0.6646749043874102
Ni 8.926522411737833 7.342062485432067 3.9878624260837543 0.06119816877587525 0.32497792650484036 -0.05194348294682667
Ni 2.0523725898887486 7.280895780638794 4.495390797186234 -1.067473181605839 0.9591803733350063 2.412999085919889
Ni 7.522849899951045 7.499782596996432 1.5241060960570008 -0.7031434927762535 -1.069804400842177 -0.39441390980947555
Ni 6.72981548097736 0.7050952373813859 9.538780641157484 0.45348577627096737 -1.073823549303899 -0.23083338470993148
Ni 8.927588783407268 6.181597547375988 6.3824795199675926 0.9088026922134025 4.3576701883496565 -1.0317718715494877
P 5.292402595404161 8.570924876531183 5.220849056385096 1.009019151234004 0.04194831940732776 -1.612027946070185
Ni 8.292639287358545 2.460353294822014 9.749590159826026 0.2505583739426846 0.5156751053155184 -0.8953113425951871
P 1.1877228945888214 6.178969034752206 11.19904088488515 1.2784342528718757 3.295926967249059 -0.3864776856815344
Ni 5.381874920124709 8.739411600301857 0.7749210672132177 0.29872336368368557 -0.19860614924510955 -0.18153299581290672
P 3.3670966086522562 2.2303724714472746 10.496296342245245 1.5022726943212128 0.2447831620218042 0.4786476202485756
P 0.22231978480222186 7.024395977589957 0.7739192390921962 -2.5982157012319704 -2.802195456084167 2.9271682961138423
P 9.14744843005983 0.21341745218993277 13.027587673842037 -0.9831140013324682 0.43781361695134924 0.07315945490280948
Ni 3.5583606571165567 5.043526414378036 1.9041198008387241 -0.7720395444170187 0.2821600600083657 1.5855581819144304
Ni 5.417074539353503 8.532161330933489 7.3656929074612405 -1.7503185862546886 0.09834032504381128 1.7061773729611003
Ni 9.021466906867321 2.7999178384373398 12.118496471511547 -0.43811032225616164 -0.13039041150082062 -0.3472362236824084
Ni 3.6983079075236778 0.693034012551833 3.742455694638272 -0.5852635550376178 0.5249184782906573 -0.881258978267179
Ni 8.510908730644404 6.269086794956884 10.270207775463943 0.6957472003121824 -1.8514477868975467 2.721512696221119
Ni 8.47917949641 4.8881448371764655 4.253407680047884 -0.5178872824754888 0.17755549922239744 -0.4489554925007816
Ni 6.899780158465321 0.4863571518092213 12.876017907651823 0.21303980817193632 0.8067921174068556 0.4440063760256224
Ni 7.272289974183708 7.9106350221272095 6.309179563486392 0.7109619603794078 -0.7543475264538944 -0.6489803764702888
Ni 1.9333505449599202 1.4934815854555787 5.939762225609367 1.0401588100616022 1.1653121415331995 -1.7611465301081282
Ni 7.017810664824324 0.9013871347256963 7.036334663218898 0.20369076285686855 0.8324969783721275 0.5236169858704143
Ni 1.4810218743706056 1.974649061806885 9.74019860582504 -0.5068238255724755 -1.4416229418496398 1.0024592386282993
Ni 3.9826830401770352 6.806641011863911 5.763466667894446 0.6205380619691958 -0.8372445203594421 1.0812802626922604
Ni 6.581468215139079 2.593762003150759 11.384317349966949 0.2487259487196361 -0.7056662591981073 0.38046361827697056
Ni 0.8412241288809347 0.7302167089202779 1.3368362642843548 1.2742263854381153 0.7287467951666546 -2.075523026948039
Ni 5.943712477855001 0.22383796131054856 3.0708024340586038 -0.33425832336550176 -0.7879965819669074 0.21985297443902782
Ni 3.041769062237628 2.815576664530617 7.365856604866636 -0.7352180047132951 1.9785096482457667 1.111665816962653
Ni 8.376742337182113 6.947748175314978 12.61954990867032 0.9200967770699833 0.5125280750461044 0.44711638240951385
Ni 6.740441781121902 2.478135510116709 2.8918372055151162 0.8991903659346191 -0.5982913347558535 -1.664523701976056
Ni 1.324508446537443 7.938547768281533 13.146341255026018 1.377162557382725 0.12232100422912481 -1.6729057553921642
Ni 0.9492578685458608 3.1682370005775966 0.5780454716919536 -2.779266100981504 -0.5276042526529365 1.612431609266507
Ni 0.6512322431099948 0.6546408907972051 3.7910990802119042 0.8658457290359023 -1.2831553124966288 1.872480696308446
Ni 5.325338513369769 4.264214515045234 0.5025042638774502 0.2630145974281664 0.2990884603325881 -0.71416555491837
Ni 7.124026895582486 2.620907710034087 5.035133882256836 0.3977429741827085 0.3096569798770538 1.5964385762723603
Ni 6.403356083931139 4.333435132183974 9.54165516759623 -0.06791003357841209 0.5621267119098384 -0.10366379413925372
Ni 4.894384046856404 4.125081074596365 7.177856214959053 0.8463585668455682 -2.3434761993284026 -0.9542615958771501
P 2.2417938732751668 8.803777420103435 2.5343997114718184 0.34726964802350513 -0.4400821012705518 1.3106851424857815
Ni 7.672310308146017 0.12896268679819886 4.6874854930562 0.24343616107560656 0.33638334012830456 -0.348759088084838
P 5.425652283396236 8.404439938175061 11.772791872073267 -0.36883091913404864 0.25529640284830224 0.8836565319650782
Ni 7.5700134609799 7.148852776377921 8.648363103420786 -2.7339203258568525 2.1585010106031666 -2.2823194253134242
P 7.250279688761078 4.733259029259809 11.584133886302865 0.3414620402027926 0.06196024375288039 0.11371500772766867
P 5.531952701391458 6.284277914177603 1.4032992817024865 -0.006059061709886339 1.49862815559009 0.68067436513946
P 5.405381867539527 2.1530979419630674 0.5188319107984869 0.21942257176982857 -2.2723170626850737 0.08955023755600706
Ni 0.5287098799469341 7.372781472821746 8.637616134903125 0.9269852766597003 -1.0004542923831286 -0.6363724578982911
Ni 8.381840342093009 0.06820008074281649 2.244553343823265 -2.734236571545691 -0.21158199267948724 1.120856996543618
Ni 0.6428780629523448 4.582779020082659 2.4048168453606062 -0.5825245588399 -0.3584991981907374 -0.13582135270840479
Ni 2.987505710883326 6.346510990640311 9.704383484351958 -1.4467996009545727 0.44545467843637476 3.292819274858013
Ni 6.651156539150378 6.503595020857995 3.9251859635058604 -0.025811561746465223 2.7428343405170312 0.9713023534095208
Ni 5.442171690135022 4.881016984438666 4.908303003383761 -2.0781105851695565 -1.4994874182665918 -0.6328348770586778
Ni 5.201377483866717 7.295207610939101 9.840141016594693 0.3802697570986096 0.6779633939662002 0.7138467381263706
Ni 3.0345663764002184 7.633696428747542 8.09472351175271 0.10535840823285725 1.1721222224764973 -3.1372991581691
Ni 1.4661955665104836 8.352926703231407 10.651959478984095 0.6229695542288239 -1.6997593852498982 -0.5020749980335805
Ni 1.9365683682431265 2.456433911229969 2.7735354291700283 0.6368434839974387 0.2868088716342867 0.5547455889544188
Ni 5.070419559550181 4.379382655344175 11.715291053747112 -0.18023458871645734 -0.7853030942951443 -0.13193333050790826
Ni 9.207193305960523 0.42990399687759806 10.826461848549625 -1.5781156095934563 1.4832318756396778 0.09939036357488043
Ni 4.40412434890255 1.3133115440083791 12.293354298300223 0.4274525854319993 0.5310330758288273 0.06889733719234585
Ni 0.8207207950016908 8.640108077120118 6.395157182455178 0.13716295433796377 -0.43831935294317415 -0.509646125512619
Ni 3.8144488781175423 4.418670032639136 9.480348150741188 0.8704251208764686 -2.5211258009265034 0.031373114994642744
Ni 8.07876628867474 5.018476034283773 1.0228777365278916 0.51289497146722 1.2079250911077197 -0.5244209698289484
Ni 1.523863823897015 6.70866577620024 2.505662865808045 0.25018170732955625 -0.33623653013779514 -1.8202736752875874
Ni 5.1320633253534655 2.3256817779373593 9.123663664762711 -0.729627397999395 -0.2160153458604925 -0.21879650815005544
Ni 3.9904843908113206 6.288842733253779 11.973320258269217 -1.040708511917485 -0.18033229063658618 0.3011533132814168
Ni 7.313607199305575 8.314013491434494 11.084285262047805 0.9329358378161804 -0.5405487286287465 -1.6125246832009454
Ni 3.295088458553064 9.153930847313498 5.797241651989426 0.23944118098360054 -1.9792514115077975 0.7189709467268134
Ni 3.4137269838463946 8.458619102292303 12.12215206842747 -0.4482949760986473 0.1760622025063226 1.0647737803968051
Ni 4.404517222675499 2.86708054533682 2.6395037352870347 1.108754042632497 -0.09883320551982978 2.028696810623119
Ni 3.5614381683379954 7.079482493039961 0.6826415658435707 -0.23836774541376365 0.39968698528295676 0.07278484517221014
Ni 0.9159702350120877 4.380028090828308 10.387646164922288 -0.22673401782957725 -2.0518819904903305 -1.367819425604928
P 9.013684264507939 2.1763990983539596 2.631206615367837 -0.5999211570497925 1.4840530859893926 -0.4631922049254539
Ni 8.30408875159879 4.990376205380425 8.213408807733295 0.940671001676909 -1.597268014152191 1.9389218586508157
P 3.506875484585256 3.3305874101802964 4.994321780557334 0.4036439130481758 -0.35653616092709567 0.09310478767648482
Ni 3.5344608359287895 9.172077873968789 9.886141858338368 0.9390352658456989 1.136738700770881 0.21203322128429292
P 7.343484314324646 3.1415215840170236 7.190012851990608 0.1818888364904287 0.10734972763127319 0.6094365527393955
P 1.532319964152883 6.570720311207671 6.551505042055455 2.908621900570223 0.7366038293172281 0.028358496538035034
P 3.1258814661986487 4.45354225705714 13.629569447857817 0.6703578137048003 3.4153079150132535 -1.2780784121943536
Ni 1.9237719082099107 5.034359359675879 8.007978853512926 -0.05997972298774187 0.1080333839618591 -0.3007306239217014
