# total energy = -381161.33135130105 ev
CRYSTAL
PRIMVEC
9.38089176199653 0.00000000000000 0.00000000000000
0.00000000000000 9.38089176199653 0.00000000000000
0.00000000000000 0.00000000000000 13.72988332876158
PRIMCOORD
 96 1
Ni 2.0725954266595816 2.5668839855590013 10.85411746497889 1.3186313939160517 -0.1846589430363981 -3.382610939000865
Ni 2.232821055059158 0.48473412081247785 10.009098945487267 -0.9669312209250185 -1.4173303878508623 -0.6226034291386568
Ni 1.7873975604649723 3.3326180235784535 6.596453473822518 1.7606996723786967 -1.1430155349185283 0.3892922723121941
Ni 5.912710304499668 3.3230495141541225 2.5069944974542837 1.5896495783749849 1.9886644772915816 -0.2709811605734107
Ni 2.8864722003316463 0.2292896284817407 12.198478967759963 1.0633509319073493 -1.2492756290300484 0.6402401683838135
Ni 5.902710274062083 8.393477705239693 6.91700510616171 -1.2844197810313491 2.5915079501944915 -0.03992563255034415
Ni 9.45997250860568 1.3401635537934373 2.1492213634544446 -1.261793301881085 -2.031639695301527 1.5494334111674153
Ni 2.753901440346704 2.0964510339792612 8.356940070576139 -0.10828895161609092 -0.8013172103352135 0.3970989128408064
Ni 4.374994554660172 5.117135650324534 1.879236489155362 0.04370155465300861 0.5213762694653536 0.06723074812320035
Ni 4.6279690582346085 7.338624588339974 3.389249528033102 0.10235613107142372 0.5486222496655003 -0.27169515592129984
Ni 2.15762382805383 0.17481385291504392 3.998141625250385 -0.5458734832757696 -1.5596790001548235 -0.5621547369342963
Ni 1.960240488056436 5.89786035310877 6.917993852135558 0.561955990659929 0.2217134246865343 -0.026524271542773675
Ni 5.9174664165370565 7.4294597616299685 1.3272695182995722 0.0230324563394313 -0.05762973469832655 0.06584286663673822
Ni 0.8850486600950593 5.831302927260118 9.542735424680345 -0.5023115395244189 0.30109957722534597 0.1287760158258492
Ni 1.2709325738409272 4.151710572975937 13.295950413253482 -0.3553501110387945 -0.24410593344912151 0.5909117544623307
Ni 5.249349936428962 2.541264770619936 9.051562259878787 0.048085542653317194 0.4661014081524489 0.5229852658236864
Ni 9.224915507972883 4.871919144097078 3.48274981262452 -0.37044505769870395 1.2435649517985163 -0.06153704017253273
Ni 8.63446342935894 0.949017897953347 9.773383406264678 -0.2170144765489682 -0.4528342587298976 0.8017733240360256
Ni 0.7718869648149603 9.19934319749178 0.24472963795380528 1.929397721210464 0.018459492256768212 1.5124936007182725
Ni 6.287167354196734 6.463922113582263 7.967533632037295 0.5218580941977786 -3.022409927627672 -0.3190913858170763
Ni 1.1643093600007874 8.121244231225893 5.762678890993641 0.02646924993512216 0.4325089169089842 0.01741870969707968
Ni 8.077247849657157 2.7513779805083267 3.9766959689808146 -0.5965470983712371 0.053180183567405184 -0.739770657080984
Ni 2.6904021851571995 6.513471982973748 4.4484131646195655 -0.1990841173227926 -0.020604563624229032 1.2609263258950993
Ni 2.519669958174044 6.810574200599216 2.152104111440814 0.3571169731312301 0.7277759466129531 -0.5064340463332245
P 8.283130277437339 6.479869629289481 1.7202997952605923 -0.030197349518986706 0.7010603849949797 0.6181996436440063
Ni 1.963636370812914 1.9698652828303216 1.2286997998915776 -2.144588514287132 -1.8646725131179371 2.5227373683879972
P 1.8274352057816814 4.563916330441148 4.640920317167188 0.8035748960211386 0.33476945867396535 0.30596307596523437
Ni 6.68578019974444 8.373937308052556 4.5463759393415275 0.8916950859988385 -0.8712800126775961 0.04552035302930225
P 3.2708448524419658 7.7723125875519665 6.403905983441048 0.37753384622468533 -0.7365686052039185 -1.2290726717196125
P 7.747002942035453 7.496701992564874 6.4887974238180455 -1.9766054892445184 0.26012853412962295 -2.430608571471536
P 7.848147715185584 4.271420130587589 12.838292359844383 -0.03344413859105853 -0.2124497399964212 0.4847902428112038
Ni 2.9663973966995854 7.303680767157982 9.898724313099294 0.29859146609151155 -0.7387144479023278 0.24023745163265076
Ni 3.6090166134593153 6.717168663012882 -0.017039451488582606 0.12660857586088517 -0.03458647972561785 -0.0650944185064879
Ni 4.00093150240999 0.8683722491111058 0.8822437735089075 1.6040482702988181 0.4975894514584011 -1.0235942208347018
Ni 8.660148310539153 6.789007530828101 4.603478364554118 0.4736290839880617 1.6913799029369514 0.2940655531967
Ni 9.322898920656346 0.3071547810559705 11.896957412105278 0.9285359089762719 0.2786867567477846 -0.2312650729307114
Ni 3.5496168078957253 2.7425787041945795 2.6253869778863503 1.1836718749873099 0.8165692513982776 -0.1545335844059274
Ni 6.66959816174741 6.51223370528354 12.820566227091232 1.8273490940771304 0.4231765837644647 -0.38495687816163376
Ni 0.19544055734859125 3.048433293675832 11.437033873376595 -4.448217242601293 1.0186926697680263 0.6277235239740414
Ni 9.187767177266657 3.51753415864944 1.6711054616604621 -1.3227248472591349 0.42351365538890934 -2.0986938086375466
Ni 4.545163928147779 1.506064621606465 7.05118750332224 0.7942646743638062 -0.31531006439777304 -0.883202218036479
Ni 8.187961132231617 8.20248275241678 13.668469370747543 -0.8294425078165198 -0.7964033179733639 -0.11180853473357517
Ni 6.790958756279338 4.116016280466547 7.652913537452027 0.637108050512735 -0.6582335196374406 0.007795070564386576
Ni 9.378649559390462 5.67515798670327 12.038182982673444 -1.2226904223423523 -0.6226273403980568 -0.5739707557326179
Ni 9.254305841332126 6.87580892073333 7.57363656069313 2.4886527679994623 -0.9485095238847212 1.085686619290072
Ni 5.18086942780385 4.751862493496506 10.020947011568571 -1.6270624718058044 -0.6484407019167349 0.08924247650760114
Ni 4.608194138757659 0.06005271561842679 4.951710193715245 -0.854188347302632 -0.3405068753783749 -0.0313538317209331
Ni 4.049196189653304 6.313105519449945 7.950425700040086 -0.6766642155388024 0.10632411458023625 0.0666216537842917
Ni 4.5664210284963405 4.495276346658964 4.408953382224953 -0.6992667834296666 -0.8866752641867439 -0.6975464583044503
Ni 9.106838225498324 0.43893848423630377 4.647853734143191 -0.36844936742491385 -0.32356510531771376 -0.5568220118674734
Ni 7.600895555482561 7.972350719870033 8.810260399712876 0.9866698370045266 2.667315641353426 1.251450010973548
Ni 6.831596778657965 6.111022352764718 10.322428229389407 2.0988989826698177 -0.13686650614346751 0.7218197290295182
Ni 7.094646359802728 0.4101513422064571 11.251268767616487 -1.8640564768004928 -0.1940576106424787 0.6824569109611794
Ni 3.687703532137047 8.774679615991754 8.208767949783741 0.4209731483552427 1.2685679016007572 0.14889232695975002
Ni 0.3492534082555478 2.690073853951463 8.886666823644475 1.5140588883228634 0.9940725572265008 -0.4790579683131168
Ni 5.248683893125896 6.277945937761326 5.594254363342236 -0.13472400587916797 1.2522524522701852 0.6062820662708139
P 0.7848354094800618 8.21121636248938 9.514466107866403 -0.7652088946484304 -0.2619671300002585 -0.13357729386923445
Ni 4.590361063840352 0.23405324523240256 10.458876111869523 -1.0225395543179423 3.6950825055085788 0.7620744627845069
P 2.87835772910415 9.059417818498332 1.9857668321687363 -2.0051154237587534 -2.049974746165289 1.5021258843307033
Ni 6.578838035590156 5.09666654486974 1.0996853359093446 1.9381512990333782 0.02249689555093545 -0.7255794531822665
P 8.99808554926669 4.6140571960029595 8.197591555540459 0.4809700977341652 0.6449110914969215 -0.8849575101646887
P 3.1478238400981686 3.1478144592065767 0.21755788545618387 2.7280960058655914 1.931318849492577 -2.2234041390344546
P 4.70760344696318 4.29675791877888 7.466351993995719 -0.867846561516015 -0.3727420812629968 0.6031476344068902
Ni 2.735833843139585 4.354084547300531 9.003480500021526 0.651558164499794 0.04750987265550527 -0.33062561170892096
Ni 1.1038401327956544 2.950093407111853 3.479673818271346 1.117333813881708 -1.320447621189184 0.6528727695461595
Ni 2.2133557050047603 4.961694276637123 11.352484835542722 1.0254433582282985 0.7719958356632769 -0.2336826812332685
Ni 7.851609264183209 3.823351224564323 9.781758666278444 -0.5794693169533439 0.15529077428692611 0.5513378488244505
Ni 5.361357782043186 8.343993502089356 12.372752481319282 -0.6161702719188034 0.1502562971868122 0.48120355390120995
Ni 0.17047519055352142 4.630042235276547 6.0638167681821935 -2.764951227020729 1.7727080096934822 -0.5303553330355124
Ni 6.227945785573401 2.756087188087752 0.47568437469321134 0.7765736848419464 -0.14834056822133806 -1.2550282152431096
Ni 6.724223093490427 2.8963221365037515 11.564515499672616 -0.09849844788823037 -0.5697006676023544 0.16228468910625599
Ni 1.5095355514956832 1.7781855249211558 12.851404032023195 -0.9787207573607789 0.1922961478666817 -0.12210014646757036
Ni 3.9729670645728032 2.9467162861385594 11.627000680480974 1.9314993409344992 1.0003966996723157 0.8778350401872946
Ni 8.364528273785297 7.655820675756536 11.180532154563384 -0.14364856206230742 0.3043057428674695 -0.4006292945915681
Ni 0.5455907788403802 0.4981863193560957 7.975853544790666 0.9800471894816863 -0.8730910977444061 -1.2218676693307406
Ni 5.165550431833329 1.3655388655510987 12.74734555394444 0.4921477116175395 -0.9811219106031037 -1.172290886843878
Ni 2.9954031135035364 1.9774262814538612 4.681093985411988 1.647304509884292 2.4230287022417496 2.3309716391034887
Ni 5.80420153144944 0.3196182336257409 2.692965982829425 -3.23142570224188 1.5096396762092452 0.7124573139780117
Ni 2.113786921642166 4.463184316521086 1.6952012198049091 -0.5841564380163681 0.7013190379730051 0.5920926621443092
Ni 8.203214461960993 1.4051449898545538 0.2017904828675417 -0.1679719692990204 -0.20570625062500056 -0.9452365095604044
Ni 1.0868231954468939 6.7072905841659995 0.16578662093559937 -0.3772515390975761 -0.16073842766505864 0.5091051654074845
Ni 5.4072303419304175 7.791365178376296 9.921982357624533 0.4313100115048766 -2.0409745995492075 -0.7869398585676189
Ni 7.353155589416728 5.012125949838301 5.407624339377303 -0.7442456621332021 -0.6521508037784705 -0.011766396507308768
Ni 8.870768088573538 2.3185905468892125 6.090726793804386 0.5986029524590013 0.18504280873837808 0.5736750788690701
Ni 7.747471986615077 9.033113798473014 2.3627614130415693 2.956391454645018 -1.5734667979675354 -0.32682912078096615
Ni 5.559031929679946 4.620051585730555 12.763010704814723 -1.4576586551562636 -2.218877711919011 -0.244704743375385
Ni 6.616858789214481 1.2392345411499337 5.462448146022081 0.3123982900676168 0.6308867521933715 -0.4256978075244217
Ni 6.6174497853848075 5.896331267779196 3.3143665608961226 0.09719515569577454 0.23360657657969444 0.09441219363399869
P 5.248543179752009 2.3605700367655658 4.023391233060708 -0.9230203784746813 -2.8701430277687345 3.7146056631431708
Ni 7.538559530850524 1.5195543437164527 7.796349246079381 -0.6091498747369123 0.37246645900410696 -0.18934889231289972
P 6.373949982318777 0.05986885014321416 0.5352352126114404 -0.18709043529602618 0.7679242366970647 -0.6163505062504095
Ni 1.3562236401997652 7.5292161628244125 11.513990017555512 0.02035130996284237 0.7878263749376303 1.2400304562826967
P 4.578006429613055 6.219071462126914 11.849946011978718 -0.5336183200575003 1.1423344496911036 -1.727543240231386
P 6.0050370395528665 0.5048974092013566 8.805042747809138 -0.3986901685873263 -1.088287804358345 0.07927842331635379
P 1.4616460999160672 1.1968329111519194 6.0803609085946935 -0.5728443554376587 -0.6179381624525037 -0.20841567913636364
Ni 0.6802328396889424 8.250803725009648 2.8771794891201345 -0.7178700003531507 -0.7716798470847549 -0.7115774824762197
