# total energy = -340897.56610760937 ev
CRYSTAL
PRIMVEC
9.01385237966282 0.00000000000000 0.00000000000000
0.00000000000000 9.01385237966282 0.00000000000000
0.00000000000000 0.00000000000000 13.19268409180208
PRIMCOORD
 96 1
Ni 6.215970480038876 2.0463157044323323 11.4675290865704 1.8611806979145946 -0.34942371825203045 0.22694356273722205
Ni 4.627504382427715 0.4307260242743055 5.894926811667262 -1.25219434533874 -0.8357532805258961 0.5774990806008506
Ni 2.6710928394796998 1.6934143783572893 4.6540357548874045 -0.1408396318586026 -0.6588385002112911 0.8978469645328472
Ni 3.462121463840957 4.29840863991795 4.911648945580539 -0.020162590990803985 0.19129033230998668 -1.1277251844183611
Ni 4.901597599032398 4.729757521376792 2.5967556006827115 -0.5547877550462639 -0.19061747461267817 -0.15792178415186994
Ni 7.120681807893234 5.9695768311343445 2.5515177808269525 1.0999349016789701 0.0344970053356051 0.7449951387047169
Ni 5.381008340229998 4.457692421509023 11.573097520345417 -0.6508022601703759 0.6941096647087595 0.0752361349261801
Ni 5.7866767568734385 7.7497946058315135 12.392798307055326 -1.3757942162802888 1.0028495320881825 -0.15793052590261833
Ni 1.8366895585049945 6.560579062122985 0.4709575506381466 -0.527227328929492 -0.5377621670225448 -1.109306058481225
Ni 2.7351542868096614 1.5732236736017369 0.5293051170813118 0.8809072513547151 -0.9865338256472945 -1.2542062335624464
Ni 0.38268940332160645 0.0533232452469192 4.694682819836009 0.44232076079308336 -0.11004424374430079 0.026494446746102754
Ni 8.541003507236052 2.397946077352244 1.3966170709217771 0.11202270762691029 0.6423466732038551 0.7909939740323345
Ni 6.658505552033314 0.5966998869415423 4.6969777465969775 0.6640123311027468 -0.1942411874081945 0.294369457590364
Ni 0.46629378352846285 7.267995193810438 2.4635227532309836 0.7666075747681701 0.15967553361818307 0.1910897862634064
Ni 7.561594386498142 3.837449254100177 3.9961958101022717 -0.3633683533575806 -0.06307584541456233 -0.7378824389193356
Ni 7.611071421026657 3.893371192925994 12.716177464522648 0.03588694370459626 -0.28599974546943 -0.3253088274816978
Ni 7.8910416692423055 8.670352285790287 6.919708058658176 -0.7096244725149069 0.9684800534693772 -0.029502637444807255
Ni 6.970934681891735 0.731937415114557 0.42159589341733095 -0.7798448993940504 -0.12801316951789568 -0.669643304136279
Ni 1.9941255004024354 6.592361904853454 9.0862496218695 -0.4103706902490481 -0.7630548244199052 0.3347478614074106
Ni 0.09228562122606083 4.924312506485825 1.345943898211091 -0.6665027016247683 -0.620192505704319 0.16650361228361002
Ni 6.2981227286621015 1.9074482979928515 6.9776103408044365 0.8544824815042832 -0.09145336811599089 0.5149120018972487
Ni 3.28359310787962 4.19681351217685 0.3476156031660395 0.5666091731612242 0.5957042907549676 0.0870189864937211
Ni 5.839353708920195 5.31877670488934 4.755936452216866 -0.4289679936352612 1.236005908504336 0.8402511683962496
Ni 5.347143297649632 2.9062462147356505 9.371264923141371 0.14356500120956564 -0.7973777660714912 -0.9124989101180672
P 0.19286218367262245 5.476744464064461 12.385964004344538 0.6426680610990158 0.44074210345205383 -0.03944869291392561
P 3.9906306577761823 6.043499432731784 12.556269022976606 0.451257658271397 0.2567871284612158 0.17858419759722793
P 2.195206514478246 8.45966250530759 1.3831080106835032 0.631875598469202 0.23951985674033588 0.0724043219043398
P 6.25238644278167 7.646315582988125 5.818395601253543 -0.2494772250633639 0.12744572705019985 -0.4563091046523754
P 4.639691110553522 0.9045851339240625 12.465542798174926 -0.03125715824206875 0.8030681315880492 1.5950653500739174
P 3.9699078116510123 6.174705064831816 8.142168491918184 0.578459644741907 0.42792078331766953 -0.048145963577607406
P 4.609007957787068 1.033645469209048 3.6254290290380653 0.5439107031224439 -0.7288678941255512 0.6265194763636113
P 0.20544642267886412 5.46881227416009 3.652104623132379 -0.5367164993668498 -0.3552202703291495 -0.5896208035650491
Ni 1.3772895691116034 1.137061395087288 2.5314385237462966 -0.6900676334289019 -0.4580803376201853 0.44890278488597524
Ni 1.663650638511569 6.574352228229666 4.810289980766138 1.3615253650661003 0.09368302877745802 -0.5448216449724875
Ni 5.90371261337157 5.476302785308422 9.161051975438154 0.6693656249948602 0.5969870141221332 0.7408690323514854
Ni 8.705353073743325 2.181739819345143 10.078154645862444 -0.43459613845531603 0.614914030914199 0.7476911974796413
Ni 2.5118901825581035 5.081162547992602 6.890802437538474 -1.2944334565136095 0.4779133131857124 1.0654744060082555
Ni 0.6816779782182012 9.042606352461563 9.066355148758207 -0.02316743925539881 0.2243493196474846 -0.07082977832836834
Ni 1.4212411122635513 1.0926140900663168 11.364428645517902 0.6570323002404878 0.3393987299158606 -0.03284378600289827
Ni 4.022494625176128 6.839873271426328 1.4962877412258508 0.3602303219492312 0.48977484050998876 0.2568020408595513
Ni 5.706705860473914 7.810385720078313 8.006072845019151 -0.9122654539510225 0.020463152950358308 0.4112939733942659
Ni 5.257103928382854 2.6690557088906224 4.889287381131944 -0.2923169459367095 1.0398960433185187 0.1323102542313528
Ni 0.8362177694153301 7.565470342928687 6.838256186348097 0.6201747650925061 -0.548537403261178 0.6146733756583027
Ni 5.132974170231608 4.374422455217453 7.205988904773881 -0.9883281985435558 0.6584700611282789 -0.20485547258893108
Ni 8.219497428248422 7.210585969377551 9.01209356150101 -0.6816614116430777 -0.17172346592165263 0.6763772804260029
Ni 4.701066429938594 0.3548546278389947 10.359699614051154 -0.22130230529104467 -0.6802642741852349 -0.17371092866532664
Ni 8.053958033255494 7.042044961613991 4.744445593478125 -0.09479554511534641 0.10454388275136191 -0.146624871081812
Ni 7.259395978845926 6.053198337660312 7.019206564385916 0.020645444164493477 -0.6477177077077813 -0.2178595981580829
Ni 2.189266385902132 5.183055132855116 2.4506203252433507 0.8338910305061767 0.16114594751612246 1.5021443962734646
Ni 2.2791975889429406 5.416802347173474 11.34776653979264 -0.3889179196919108 -0.6802933276509573 0.0671790689496585
Ni 0.8693130290208861 3.253369661573532 3.720376440808172 0.6503109223562542 0.5067824308115788 0.17883950814114363
Ni 3.63848649528292 2.678709544558329 2.6725873361685 0.39285839239689757 0.6133250891605244 -0.41483001157198235
Ni 1.1075860985108175 3.1685583265619086 8.361351123909857 1.1572468480265616 0.7197481912124701 -0.8544202608077802
Ni 3.554892030313444 2.683216470640358 7.280593854980142 -0.09100985282066908 -0.34388350516009164 -0.7764800966868757
Ni 4.118086527375965 6.918879685644299 5.9761929986227615 0.05487865431575065 -0.012209911802630586 -0.14417203866594527
Ni 0.6701772042420793 7.344901380474182 11.282382760350213 0.5517363698144498 -0.20292637388701826 -0.1520290728165188
P 0.37287872662624555 5.672967011823843 7.886468040654263 -0.274302768747476 -0.7259844019301691 -0.0009759907600241256
P 8.536379401075889 1.6304976902521628 7.809950351018789 -0.3597616098429288 -0.9392584376000986 0.9618715470139242
P 1.8915658904797812 3.3659076058417994 10.472299753899351 -0.10080832696832961 -0.6270282976792297 -0.21768682002564446
P 3.7949218995901504 6.338531827913575 3.8037275317692187 -0.05276520751717364 -1.4125442793161287 -0.4169293173031723
P 7.083454598455674 3.8540257282298795 10.356256322524482 -0.14605151507684525 0.5695911386076835 -0.31435772778683285
P 6.398798443482468 7.8139912609439355 10.310372209468563 0.28348032148168595 -0.8055675009711352 -1.487572926217193
P 2.414342274438665 8.577698899395934 5.615452325320638 -0.23641550678339926 0.2561800910048362 0.8092511204703094
P 6.74749931444906 3.973982072829167 1.6749035315531793 0.7717631508271806 0.12019470191474138 -0.24106097597521065
Ni 5.234425076338084 2.82470690805958 0.553724543978962 -0.19403421360371098 -0.270043993471122 -0.6718847918722881
Ni 1.5659314672010138 1.1089652178919185 6.98489263196778 -0.46414197043323285 0.5006248958506152 -0.589542642028946
Ni 6.943721862208443 0.6970610183213829 9.145906901032102 -0.39231357563702113 -0.01799026592983353 -0.0969717268310588
Ni 2.8467818320093587 1.6326429870672088 9.32068369172276 -0.23581001198891646 -0.5072796821629715 0.3033991718928
Ni 6.269684025084498 2.041898916871944 2.616504950774163 0.6435900586926528 0.11222788165918092 0.07700222568766737
Ni 4.244622984055015 6.8839329808042455 10.409621031491357 -0.10764823270829847 -0.1584455178658239 -0.07456636255266513
Ni 8.22166976661996 7.207268871781177 0.2662664887706305 -0.10461073143355532 0.014791556486877752 0.03722134624530364
Ni 7.813486485222749 3.7577307455612456 8.192920085142697 -0.8887020648087856 0.39200787147114424 -0.6339833888408243
Ni 3.0545421105387365 8.269524307758946 12.314737445929367 0.6023423648967755 0.06641570842107271 0.7365495790405251
Ni 0.06656819961678635 4.874997721296262 10.045357744763518 0.48466760119041047 0.006000697668125149 0.2581762954992586
Ni 8.588434397323326 2.2993435485296105 5.70843471731898 0.02166334390604656 0.0934454588453552 0.5062784945919667
Ni 3.844137532405908 2.7474131257527805 11.436262737568931 -1.4855628377656995 -0.492490696779255 0.2864059797689132
Ni 1.168979445600218 3.2825835564372454 12.699699241381532 -0.4939510833748654 0.544476602928243 -0.7638948038226973
Ni 3.0410754154056336 8.426617723274154 7.956612936809748 1.1640132202161177 0.09695218644703303 -0.364070778741244
Ni 5.6993595709602065 7.6866345437179575 3.4655467276632987 -1.2510185798630842 0.01964785613791455 0.6486142513801216
Ni 3.0317370645636688 8.484910305219117 3.4946497521453934 0.3118871547591532 -0.6749215218160828 -0.21795858562979237
Ni 3.5312126406784627 4.3735751531140314 9.282121530779701 -0.523594360162595 0.010472103175917447 0.43224255062147493
Ni 7.280064741858111 6.0298344328510725 11.353385775231715 0.31032186715456234 0.05788144569781644 -0.4671331918510729
Ni 0.4849434436558993 9.2647978083056 0.22087182788721696 0.15802231428547622 -0.9926368532212387 0.7179988126215311
Ni 4.773069081025092 0.26064815471677305 1.552185342650825 -0.7662386214645255 0.1495315032056457 -0.5889458889852114
Ni 6.090010909898326 5.70358706762515 0.4005142959760316 -0.7322632929603454 -0.5478126092800114 -0.08024772920815858
Ni 8.001569524477988 8.87839199373675 11.284362202285438 -0.2045950198386928 1.097277409451465 0.41731961076305546
Ni 0.09739917955873106 4.806456389440763 5.81202370915877 0.05117986530792476 -0.37291023140974483 0.4440451996833578
Ni 7.788824585701885 8.83978566491809 2.5513591370288653 0.2735905731717998 -0.13600184415032707 0.1000328822548858
P 8.27646497392527 1.6365009157934256 3.58017768840406 0.5272895496259952 0.4478828282618932 0.0011181727648432354
P 1.7957486419758422 3.1635376109065283 1.6858003774343093 -0.864863310517975 0.3661173768576275 -0.5812675465043473
P 4.753193537003344 0.9476893749725888 8.197484699878576 -0.0814468917225823 0.6002209476783985 -0.1826264859874016
P 8.471759094911757 1.849155716047887 12.408893441479469 -0.5634760268488812 -0.5350146861843947 -0.9042063310919719
P 6.345247147775798 7.743394770795033 1.3372500377988568 0.18716396884643896 -0.6797662515028938 0.30910110737358376
P 1.7523379299537378 3.174922106189734 5.985573714569897 0.34509038098399925 0.13279027919156486 -0.1436966416914235
P 6.7940378331720925 3.8618587657604464 6.142144326659588 1.587318616248963 0.4857767750941892 -1.3742158160495752
P 2.423806819210927 8.417739078892556 10.250293082024681 0.006194044625853849 0.7154580484775485 -0.3679372036751857
