# total energy = -340854.7213808485 ev
CRYSTAL
PRIMVEC
9.43036738795479 0.00000000000000 0.00000000000000
0.00000000000000 9.43036738795479 0.00000000000000
0.00000000000000 0.00000000000000 13.80229590841223
PRIMCOORD
 96 1
Ni 1.570957777442727 5.328534877487399 3.99719991024659 1.4796683266581356 -0.1830347771694138 0.3040092946729732
Ni 0.9677631781776722 4.22684161943914 10.649106752620007 -1.7826273256897236 -1.4088233788211155 0.3406125477183037
Ni 4.235489266477679 8.143556171801524 6.903674079899469 0.7198813743562247 0.9575670061012993 -0.07205028099903076
Ni 3.605682170001331 5.890499909846793 7.148236516621329 1.804668107539847 -0.10516917504018661 2.429731311072906
Ni 0.6182020861757751 2.7841085495024243 5.750257141941748 0.17968540108120665 -0.16695895465347377 0.0015215788508489924
Ni 4.400171774911707 7.020408827588952 10.477516499959451 0.211181671917275 0.002110618585099591 -0.8127771313456971
Ni 8.133758019922526 7.674980069237823 8.42412092269899 0.7022101823287068 0.22717573335268618 0.19794666128423974
Ni 4.121683590947597 6.153229949643619 2.484951828990479 0.28653787736108716 1.1407671052039836 -0.3898376032927028
Ni 7.878081895049175 1.8292272533908853 7.246564129900208 0.9924576473308974 0.42407235610585675 -1.1719841542367364
Ni 6.0474023650563975 5.078158619174199 10.026401665941615 1.2756168380277386 1.3867152340681665 -0.4977766277685428
Ni 2.224491678661675 4.065488030748412 8.417895937082697 0.8195219062686983 0.8912055479569296 -1.5673786827919265
Ni 5.057987062995972 5.2077695907092885 12.213555690383345 1.4769745818760562 1.5241535535547042 0.24083420467638522
Ni 4.811741305667374 8.368159235614915 3.50122858996538 0.04032209665781443 -0.1396535819703014 1.6299140823219864
Ni 1.9883458449735074 7.342408727404553 6.628883543049658 -0.8779977910174039 2.3025491220967376 -1.6912174092171584
Ni 2.543256962409425 7.705619333390727 11.78412410046116 0.7831400252055546 -1.156209407900983 -0.3379902796041082
Ni 5.5481587072371585 0.5429788733815415 5.025360820401389 0.1268415178072977 0.06958433595704146 0.2590694967374893
Ni 5.157213390301867 9.30863093011807 13.433844307637667 -2.3324847333139056 0.3198074380474944 -0.4466458705309985
Ni 3.005344972102337 2.5234531905654434 9.893458002516208 -0.11823783529868667 -1.0832859802683796 -0.882388463885932
Ni 6.751492466682768 0.3020641028259926 10.992687105525023 -0.41297187531732105 -0.8459893564316076 0.17585137204709714
Ni 0.723153589618089 9.017713521729975 11.258229280923695 0.2843095022512007 1.041527922494987 -0.7195206485826963
Ni 7.632043605806562 2.6841466535280394 0.780375173806143 1.1043042343912592 1.1613279600744708 0.8858046886563326
Ni 1.4358960534667702 8.374015493860206 13.678282263507935 0.8704631732032556 1.7889774362774673 1.3122792264457788
Ni 5.216426668115371 4.188101669565294 6.656737076629841 0.5004186933770801 0.23703745663811435 -0.7001707833011748
Ni 9.181170082383185 5.149772830309056 5.261504768016048 -0.05180181516263981 -4.231520811513376 -1.3264588603802703
P 5.23675854054186 0.9095617788017183 9.43798256654568 -0.713691700605745 0.4142340298591963 0.5792685137964475
P 2.164457958871775 5.33573967829159 12.889853555818574 0.1889187467540166 -0.07952422077857271 0.9525944925873722
P 8.351410902855433 3.138266002645634 12.187620293561766 0.05407955545322299 0.8802307941129809 -0.7458261192464445
P 5.413587362373529 0.4318683968957493 2.0785425953553003 0.2761629618846663 1.181526546509533 -0.5276975836976913
P 2.8582878206094535 0.3177760381923061 12.77650902526143 -0.6414156767491535 -0.5580116613002003 0.08890566199347269
P 5.081600703328034 4.390213306784447 3.1142393122151115 0.6176383718238976 -0.445944987809232 1.0230175223956253
P 2.090042928576127 6.809460935980366 1.9723755175364677 -1.454357872917805 -0.10822750225053619 -1.4791877874772912
P 8.87376839152686 6.867825480714844 5.919280448556625 -0.20174289510187837 4.798005800391911 1.7865703694978716
Ni 3.212728184779006 4.097777609221647 11.562625513643505 0.5422037477336661 0.4675024022650336 -0.2722006348028086
Ni 3.831501751227993 5.730589167390411 4.718990811754462 1.1780725265226617 -1.0324190182151833 1.2234080172346673
Ni 3.563585009281552 2.6805442531259436 5.166075106683671 0.30157985929587416 0.3645518321427205 0.951774053568606
Ni 9.17001395757774 6.392629260134726 3.2609032173813786 -1.6888813048848137 1.0985616754805274 -1.5792193841805964
Ni 1.0469782655535997 4.8481236636550324 1.5732550149766287 -0.18540661983570006 0.54116347939461 -0.8901997324002348
Ni 3.5410464308495917 4.682168055602464 0.8539782494561879 -2.372022643507528 0.29998628955650913 -2.260606459116365
Ni 7.248765177685153 6.664487895714874 11.686900783221773 -0.34139879106502496 2.173944598851746 -1.4550834382299198
Ni 0.2739248291092033 3.095338969581917 8.18645962894638 -0.5613808348827494 -0.728353673493294 1.0646989612948115
Ni 0.7427857287727563 3.0651240719685275 13.345494966257892 -0.2752761884043389 0.946461383106441 0.903720906815121
Ni 8.773353837910328 1.0858502405730728 12.692301501307309 0.8771254157147796 -0.2564500568367712 0.8026269302855725
Ni 0.058386234579831046 6.772012946460151 10.355945859793017 -1.1007489129398333 -0.06606989504587976 -3.1464070340076393
Ni 4.448794749972454 2.774583878282223 8.305172867746752 1.2058617808207877 -0.5007470232507764 -0.6638619215678114
Ni 4.3790666123465485 1.309227356605644 11.761847686246945 0.8485098088606161 0.7928739646638667 -0.13105889832275494
Ni 8.395271542306078 9.001172657056479 5.270061883526156 -2.1630855446500554 -1.0731758884175713 1.1197506508533168
Ni 3.639838961248427 6.99141987775638 0.0877325953423488 -0.5135801704597026 -0.7503733722974948 -0.6504618461118217
Ni 9.360149028015057 0.9855582817346217 1.2809522855962103 0.44632551107710233 0.6765168913276607 -2.3724448186466107
Ni 2.5687472458828933 7.627130384315745 3.8150240700170457 -0.24055832530717927 -0.24853697263728164 1.7080635342402195
Ni 2.2425791236125114 5.90107135186446 9.945424042871572 0.8313394677289166 1.605717430471125 -0.25536813662650215
Ni 6.35422880349249 6.468062770125208 7.6141749453827625 -0.9380885856617134 -0.8415192364753958 0.544450634786314
Ni 4.706639859381099 2.970065967117414 1.4683846126951996 0.5423269035750918 -2.5540089248077695 -0.38413618203255134
Ni 6.466431316539965 5.505608888875232 4.951394675600871 0.2565927530622226 -0.8618278661257608 1.3823407591495547
Ni 6.029230046797657 4.9690398363138595 0.8784208190954339 -0.35182615704593606 0.20693343816388232 0.9923810284566911
Ni 1.023609814777701 -0.019642512558966627 4.732890230478674 1.8779075237509724 1.3739779890071562 0.7947729814587926
Ni 0.5373847793539939 6.512470370893451 12.397594971239734 -0.9017925794441565 -0.8792622595521243 1.4976434230793174
P 7.324038371427374 2.686740004602847 5.068533986058024 0.9076822054557143 0.4792078636274199 -0.41878308268245945
P 6.073769672711528 8.02161208908032 9.487077059983664 1.54139254314081 -0.10647221012232631 -0.8181255401418039
P 5.280336268966165 7.31575850872308 12.491436558677574 0.540255879978676 1.0624757283912476 0.6347400645011908
P 8.076902333995207 4.779847802631019 1.7730430096327539 0.7352717407693661 0.17890995636776286 -0.06708393813269092
P 4.097579571503207 4.877291790470954 9.37501600244936 -0.4151575701147302 -0.7964629675667058 -0.4595227264936667
P 1.2701101920300073 1.6699860670301812 2.977831874790519 -1.0021851590313062 0.9264031789039852 2.255820864802263
P 6.124486189367211 7.72114171836939 5.929549175776106 0.7591765724114216 0.30070234178692723 -1.6825422500406635
P 4.878498877516682 3.3515431950377748 13.068234616148109 0.06088603685209515 -1.5792633500446542 0.5193872640597829
Ni 7.204027514052844 9.009612836009032 0.20959369082915977 2.521207562007032 0.7656053587559009 1.0590669598200149
Ni 5.622554876797717 7.7346931565312005 1.3109021898815922 0.6740550600507295 -0.6781274303478901 -0.9931572445010832
Ni 7.632666010064515 5.123999635809245 13.081747389802986 1.6779335476240587 -2.0633316270881688 1.1583061425290115
Ni 2.860617121393008 3.666451458459721 3.0634888462362677 0.729187482248499 0.4329313491583834 0.8536137057460847
Ni 6.59028033350521 1.9378367964038088 12.75201081645367 -1.5089364794946334 -0.06648127155168551 -0.21956989598097024
Ni 6.394751092832295 2.3839497634759077 2.8502427740570244 -0.06965966927966712 0.15187454951652554 1.6186421089525929
Ni 8.169272784096066 0.9929705506247977 3.105627500573243 0.03834543254741783 -0.36859514897415874 2.036756961923434
Ni 9.390731709962692 3.342697510280796 3.2013598767038056 -0.9985874143777188 0.3696981522303504 0.14541619548569149
Ni 7.042457026908586 3.282229993583838 8.900534603729135 0.020937007262983295 -0.902960888720645 -0.29140574697634974
Ni 0.5726298350157548 5.975043154885506 7.650309284703994 -1.2941200390382486 -1.213542180184181 1.2480073038405863
Ni 9.065412320771339 7.378583617306227 0.606163278968143 -1.6423841897645395 -0.7975104349946136 2.046632312055617
Ni 8.006919576445593 4.092930400303644 6.924667021090844 -0.8762347855797102 1.3666364610404205 -1.0362463623810734
Ni 5.614935139821556 2.8388518330997172 10.637705438258402 -0.25169223043681166 0.06934110959798381 0.13187496646614708
Ni 1.3119055809883537 9.129689705956375 2.48450954475263 -0.12425807335083762 -2.3714865684984 -1.2219167774011213
Ni 1.038142011164166 9.026483763546596 8.645965604005537 0.5428598932604264 -1.0718893083956638 1.335717402864061
Ni 2.148133992651807 2.2039994899869257 11.780618832844777 -2.4629911015673 -2.910540714859491 2.0158832037982184
Ni 3.517065006183284 1.0611332472382744 3.274001054864286 -0.04910961304245736 0.1869737072125038 0.6669053363798257
Ni 3.514122731509321 8.751173613445069 1.6056766185954905 -1.3842891411251772 0.6681664624804363 -1.250568122589227
Ni 6.434990471145758 6.808546190328525 3.1631961222869442 1.161618494731696 -0.7691236563218043 0.0944474177473083
Ni 2.3841195100917134 2.2524810095345025 1.4136583037594874 -0.06514558345939749 -0.3261346658171029 -3.1598472186729447
Ni 6.780075910710915 9.448662457790112 7.396816289917253 -2.2138656034164 -2.422542249523634 0.361305557291281
Ni 3.1632941981094094 -0.005471499249465859 10.256376267108495 -0.09151250348870046 -0.3074594580051027 -1.3155553260938893
Ni 2.7971224567141837 1.1897257390785303 6.950063000888865 -0.7644509334364835 -0.4776369195958741 -0.01136299042130301
Ni 8.552173997515684 1.7184110043724892 10.365952422794754 0.4067536623217511 1.0378396750101222 -0.4026200997693517
P 7.82361209211068 8.34386660881963 2.5962942925178725 0.8074166383647321 -0.4749395752693692 -0.9850811523611681
P 8.31418924215629 4.946906763686323 9.045624580552182 1.1402585409986814 1.225326831523935 0.39666182530338784
P 3.2701685534940985 9.214525292388977 5.193417514342928 0.049919510538262414 0.46913299588992113 0.5289759361894826
P 5.611832548899332 1.9943718498346048 6.585683029327143 -0.08625254064134177 0.46507476666014735 0.4164696040579343
P 2.8824578526266564 7.626008170577919 8.641120281161042 -0.6695358320241372 0.7717492668701096 0.6350023170236418
P 0.263958816687908 0.565357135565241 7.016272668383824 -0.037461487280567744 1.1108026976314096 -1.7383153911462257
P 8.50913380004143 8.400326219310067 12.406981016057026 -0.27744825635499315 -1.3496214145396626 -0.21094101666137863
P 2.544907276729757 4.507093282134119 6.132635912999387 -1.5113512595837133 -1.9763998009916155 -1.6405941877436518
