# total energy = -381165.2311763585 ev
CRYSTAL
PRIMVEC
9.26507871964072 0.00000000000000 0.00000000000000

0.00000000000000 9.26507871964072 0.00000000000000

0.00000000000000 0.00000000000000 13.56037923470323

PRIMCOORD
 96 1
Ni 0.24505113512339824 5.9806452414540505 6.561976107294334 -0.2370289719976821 -0.5906528443739892 -0.022167280125658596
Ni 1.6831219581881247 4.06998222002717 8.774107179935392 1.2664865935916962 0.6636408066959409 0.5017888342517294
Ni 4.5904665357388685 6.221537282832269 5.021815237093518 0.2982297118767186 0.17305966823457292 0.38456889869459576
Ni 7.214040288546071 2.9294325247294237 0.6754205176790596 0.36049514557484363 -0.4443383054437445 -1.6969705096508514
Ni 8.432286932266809 5.424268011576999 12.28323528414728 -1.9257634668919867 -0.0028235854917241696 0.8570330158402788
Ni 0.9778549165823038 1.7625792715288786 9.103109191479097 1.9060184230545756 0.5210682513066316 0.41084737277515054
Ni 8.667249323395716 0.41567589453944165 8.44578337213895 -0.9236770382220736 -0.5170979538049739 -0.5575542620478074
Ni 7.10059866721396 1.037614673001131 12.139116061345652 -0.8694745840377414 2.128718380024095 2.131997564995999
Ni 2.524530063486697 0.3160605498745882 5.234563675975949 -1.853999349674807 0.7576015146148178 0.0021579268832672516
Ni 4.188723466269603 6.400538599733315 7.3336153918548135 0.030327447338947766 0.2911861747663759 -1.5992588193299748
Ni -0.051445274959872854 1.5430988265977783 4.469866714746418 0.6768246523760666 0.8066725611098559 -1.2922801576160325
Ni 1.488861056973621 9.190429776955149 1.4443970186744592 -0.3816478683930588 -0.14495031159286648 -2.504106383550371
Ni 6.5162038399089175 0.08639407762459503 7.830468198307309 -2.204764155335764 0.23589203017976149 1.8006471593059117
Ni 4.5684805044238495 1.3329668458878556 11.371936985582074 1.310000457713931 0.7969015977660212 0.5790401998357253
Ni 2.7908732755443757 0.20358157020013798 10.534231205657914 -0.3933163058699226 -1.3258713633079167 -0.8857391255257197
Ni 2.386137585714911 5.489345923063175 3.9806223907700686 -0.17225594138635494 -0.32643934154171517 0.29976491757432244
Ni 0.6557933753538436 6.8467725762294345 13.256667052246739 2.0633426828317627 -0.10413096358365939 2.3370157884150395
Ni 5.192965326461336 3.7231532709136235 1.6454028970475532 -0.323183810718895 0.2554414130665988 -0.10523448106048326
Ni 0.15805945993461493 0.6863625754047395 11.52704088547055 0.5613376403496397 -0.8457877819437628 -0.3589005473942142
Ni 4.8198698797590485 8.133386234309013 12.21956937062672 0.7693884799474168 0.26356661327689446 -1.1357814790639342
Ni 3.6475131699208627 0.30818708615292634 1.8955238831341112 0.7774118644725256 -0.26705200072233365 -2.433736832687873
Ni 7.885165515825788 7.3810433287707795 0.8938836569892629 -0.2121381222932734 -1.3182393006839557 1.5579946704738652
Ni 7.198104353501051 7.045406594502805 3.369605286861327 0.6421587255627651 -2.3042501639482444 0.30384474407065093
Ni 2.452373632015406 2.211426000166101 7.033280459742966 0.1855151203891063 0.07813222552705254 0.6770210846575889
P 3.49749301861332 3.8500014608562845 2.9715534246722566 -0.7880194647850428 -1.1673492265678862 -0.17711558347150141
Ni 3.657167381733021 1.9516239335396925 9.126365465058463 0.3976596704402829 0.4751010405478979 -0.046927517789474016
P 9.180849685771108 5.74881444686306 4.342304187250286 -0.2240158475674658 -2.9214619897576846 2.068378188373141
Ni 4.527408411368863 4.195635214841455 7.865223360831076 -1.658256123799789 -0.9245157320732852 2.098026864477509
P 6.535493733376204 0.7727890808041356 4.050580219109858 1.8545873609677932 -1.667606711776754 1.984132650859499
P 6.080078064072168 1.568457346492093 9.739538552737539 -1.255179396108993 -0.774219582787473 -0.28470030993171613
P 8.277754687722682 3.109397409795982 12.38209089237394 1.8619880243072384 -0.6985898119673 -0.25799374717480733
Ni 1.5883587351413397 4.448256845619089 12.634177928121284 0.3230120610277212 -0.22084259204580675 -1.3897925874419097
Ni 7.800251071239966 3.48891355590885 2.7708875746806467 0.5150068756039001 -0.3422130594362042 1.5849799408134573
Ni 5.831255115485498 4.987086016789591 9.97181407109723 -0.6502165628702351 0.45762705213285054 -1.2246480602893552
Ni 4.680235881466314 3.4493146103376766 12.968278512371548 0.39690608010371 1.3276469671511006 -2.1078649336138535
Ni 3.2153899080023978 7.823497153232964 3.904914654704152 0.18171940079209994 0.12752748813072876 -1.134707015052833
Ni 7.136158038552791 5.255096942979887 1.5291224556585843 -0.14188684217619435 0.6290892939733165 0.6469216941690471
Ni 7.569763713033583 2.9398094126657166 5.852957635397972 0.024041100109603756 0.6170724720180985 -2.2244390080568723
Ni 6.296074839481799 1.2045065322836637 2.0332835560433544 0.07003762144437616 -0.2605635647845126 -1.3084539391624175
Ni 0.161032623629933 1.8225243295179967 6.745732262489044 1.0722073538567147 -1.037205383860233 1.0234713221035923
Ni 9.06260875376846 4.073039695936971 10.578844411721162 0.9390434933758149 -0.032878495895575635 -1.1256821858464032
Ni 3.425206876042826 2.6467086538580267 4.9535390205041185 1.1324871245833787 0.1084316478415423 -0.13594682254267554
Ni 2.966854176849678 2.954309260540982 0.5171322103051355 -2.2366864579656576 -1.1571558309746524 2.190999240341188
Ni 3.774120467822146 -0.014286751069431246 6.971119194973167 0.7558027708431821 -0.2961720580167415 2.102836884271643
Ni 2.269647753551513 1.919761328528166 3.232767489264282 -1.113222362816496 -0.144153526723184 -1.6534440471231266
Ni 5.325826552359938 7.86365200351501 2.739590139458507 0.5046445585329696 2.4993416151718764 1.0903421157842124
Ni 5.626487615235498 1.352831174223044 6.191479515115376 -1.3816324202286205 2.4819689282213835 -1.3029414939846204
Ni 5.912519119136588 5.750213473718756 13.252151252978749 0.3806518230283767 -0.541765631754983 -1.5559575854391783
Ni 5.247638554775677 3.899078581747839 5.81006680743058 1.1346422232531683 0.40767206037096243 -0.8176683979997273
Ni 8.866309535280756 3.8523547907989797 7.700559752931293 -1.010338127155744 0.8513195103952692 1.1057715629654052
Ni 4.315738427625526 5.891329884573819 2.655339074494327 -1.6047992895322296 -0.4038778834358528 -0.4590265035835385
Ni 0.09994147542856545 4.723559388600335 0.7946324299100312 -0.578713412623926 -0.8301572744953575 0.3520033060537486
Ni 0.8665146150572914 4.162503294073435 2.863883947254708 -0.048131822510220336 -1.8437704728579472 0.3851995903000591
Ni 7.804068283587959 0.46511435349306357 5.86678947111234 -1.1685332195736584 -1.0508170611063967 0.06285575898395626
Ni 7.870091233082619 6.559721913691744 10.01203470343673 1.7137518428742486 -0.368291758801127 -0.822642454175551
Ni 0.7709805374780959 2.075720395163533 13.323994524796248 -0.24097484401930758 0.7657645100415844 0.8080581286034728
P 0.36519233472937873 6.010293492700601 8.751407737574752 -0.160173299190208 -0.4200969163978765 0.25684497828234476
Ni 2.3716470029181598 6.815567791792441 5.828088311649226 -0.09451555198108239 0.2269808437330607 -0.42524606469898374
P 2.8966619420234716 4.268467997044307 6.230967279744375 -0.01969902109082414 1.2794621799157577 0.6179924127292067
Ni 7.160182387141011 8.86273321497414 10.562301614033439 -0.9950248938374412 -0.48986148668652413 -3.4420476450009434
P 5.177075716808888 1.5274593740652231 0.05838203924371408 -0.31299504311135123 -0.7857988029846402 0.1998114824071204
P 2.508381031635842 7.246912787115684 1.878072181244111 -0.1800767229823544 0.21726438777624518 0.010895306756265107
P 1.599004310354554 8.141659949422502 11.895232326115087 0.4094108974389401 0.9964935079631678 -0.680502615448286
Ni 8.61105662220499 0.20383821287499093 0.3926540274464956 -0.2607101176647058 0.7841918635088366 -0.13766303390283388
Ni 6.659608725157074 2.636341031000249 7.835728909887869 -0.5201125722615817 0.44804197954757674 2.1879619961767607
Ni 0.8272992437366204 8.415016825915693 9.646311479708466 -0.39878324252176484 -0.4816259861506092 0.839157935332071
Ni 8.186345423098162 7.854266478979774 12.26945811239615 -0.536003018239593 0.28628308103780375 -0.854562185702283
Ni 4.428651939482307 0.6795314330159642 3.8407743691636473 -0.6542411106485958 0.660657555697901 1.109709978787863
Ni 8.735477361576839 7.670910575176891 5.015523322274289 0.0802811535492553 1.0607073236369151 -0.6122208003527521
Ni 5.807517984331229 7.089851176137086 8.798543824517509 1.3918268442631192 0.3234815444649719 0.31393375287553676
Ni 8.101755256260349 2.0615448250362767 10.03401610221249 -0.5017117011568908 0.20507607324016938 0.35390052307646147
Ni 1.936772012680874 2.341368726332621 11.274654587687184 1.2384248023584734 1.03505182785234 -0.36831207051610115
Ni 7.934168516089226 7.676052693752466 7.474928222374385 1.0382129991891411 -1.1134555618732245 0.33645970189219476
Ni 9.231548195402707 1.672893311508065 2.0995538831343534 0.4453963143946136 1.2884890660047164 -0.10710315883810587
Ni 3.0144859454929636 5.44354863996577 0.6820774765917617 -0.5946462818040984 -0.5252606921214243 0.1643693395494266
Ni 8.208646467082676 9.029523158393014 2.9239021993640906 -1.966414150533813 0.33316663296321974 -0.7052551398026176
Ni 3.4057872714763353 6.14178348697905 9.575756053804488 -0.08259308951188356 -1.2722057554636605 0.08997986889425794
Ni 3.545161847570664 6.228764044073616 11.928848810489418 -0.5732086807556128 -0.842043227299666 0.7600067816222008
Ni 6.112959827720294 8.801602226935161 0.4853585500473485 0.37966117698033325 0.6136937853538528 -0.6473603243683625
Ni 3.042262650879575 0.20655473389545606 12.988334627831987 -0.7276088249074694 0.7013216090761664 0.49372328363477547
Ni 2.0221867715064814 7.253138919877459 7.951480315293657 -1.1136360533151466 0.911483067259043 0.6541382665221445
Ni 4.671396996563436 7.108464718872811 0.835332993316584 -1.7783790919363307 1.138974274969619 -1.525722697814037
Ni 5.849081126547485 4.83077487717067 3.6869045777333103 2.6795003563450757 0.8737829816051081 0.8032447663752297
Ni 1.026413193077044 8.873851309191597 3.488258514857871 1.3084338845577594 -0.6274859540419386 1.970804566292025
Ni 6.462596095623749 3.940280385902029 11.77793457910522 0.8461953017948265 -0.7270077009883608 -0.04079620808075554
Ni 0.7590434103199538 3.6659692063218405 5.543496600949296 0.7711340018836138 1.310834523579452 -1.0939234053775677
Ni 0.2785934988696122 6.44427903540049 2.5356685408768853 0.7820236522129241 1.9744807295920317 -2.565007075690486
Ni 5.3831681232864685 8.57621066191178 5.381191882039316 1.0538795020818044 -2.8784124668663784 -0.1487025795464471
P 6.259144236522816 6.790366778232873 11.300840479092846 -0.8631334723110617 -0.15610041467241503 0.5096353268793417
Ni 5.788728405103727 2.6584197131004137 3.696518949707855 -1.1648274885872971 0.47617396189710254 1.9083894943899136
P 6.489084955096839 5.061299295691111 7.598327950093932 0.2948561674187954 0.007862433467212266 0.09127519066691378
Ni 7.014312991007985 6.2679738563471785 5.807706991932926 -0.8205266933841289 -1.2594150314568955 -0.15467113842505623
P 3.9056104621005945 8.035139341740758 8.816240124480293 -0.4335077904871438 2.307993690151077 0.127242095679826
P 3.006860785875492 4.339401438151678 10.704644721283827 -0.4164966006411279 -0.8224262243996868 0.6522824442603283
P 0.6604768725429471 8.772824893068977 6.307813693959729 0.9612387985259316 0.7015362961901338 1.252651487480817
Ni 0.9698962141383081 6.299475123296637 10.92319680534777 0.9806781381974659 -0.6074909989772506 -0.9213327063596133
