# total energy = -381175.53370044497 ev
CRYSTAL
PRIMVEC
9.16136021191970 0.00000000000000 0.00000000000000
0.00000000000000 9.16136021191970 0.00000000000000
0.00000000000000 0.00000000000000 13.40857671462670
PRIMCOORD
 96 1
Ni 6.000242096975598 9.097725502167348 5.202742017368782 -0.42864737707104883 -0.04182773466906345 0.22642394278832617
Ni 1.748812069745175 0.15159211292821226 11.632222245126389 2.0871737238130894 0.8949693858747362 -2.1028667090683135
Ni 7.480149918875626 2.1387653713780703 12.864094481833437 1.5454816256085189 0.8984398609218398 2.101731052801974
Ni 0.5729872031480708 3.181657983728176 4.948381429017166 0.7208571080059327 1.047574385799383 1.9886801610208653
Ni 6.335758595641205 1.2928694897929622 7.455289651536003 1.0875432128828368 0.741646019726826 0.838324126576866
Ni 5.2815333805865325 5.099414698966414 2.027524469939159 -0.06427783614246349 0.2889012353869411 -0.14272862135119935
Ni 6.647510525660371 4.730147748915501 8.896094955357103 -1.2600783760725074 0.062476521267666604 1.383333204969811
Ni 8.060128156076935 1.2341085247589345 5.8144286387421005 1.1257981425989774 -1.0669797869091882 -0.1625842226245458
Ni 7.412035204964183 4.108851776712093 3.965721096167016 0.26483802379015037 -0.6083168373126555 -0.4923459436712747
Ni 8.525048869133816 5.888665889749309 5.414370356686297 -0.13014589959018233 -2.109665734268018 -0.9240045967648216
Ni 2.9450108855376604 4.709672108620669 2.2398353305998353 0.45899487901465463 -0.742001860404348 0.4665593216254739
Ni 4.026124693104786 7.136827941225144 1.5384461658784998 -2.376013509834476 -0.4109887834490212 -0.8698152552066117
Ni 2.0428276062024637 6.226655955698854 9.105415548012306 0.8529724726176601 -0.5204882104334455 1.27331287248491
Ni 0.45661960447918715 2.3957140440175113 9.88667986487617 0.3473629790682598 -2.629312165526459 -0.45637852443773014
Ni 2.4723946298196338 1.3680934193056535 6.740357247867084 0.8744172727549973 -0.5663134962976764 0.708494986896154
Ni 8.840034759342725 7.59229413044119 0.9059797470480276 -0.6896835106166058 -0.636162141659698 0.9017452711459889
Ni 4.212723279916927 1.7948020985058266 8.548584403772484 0.18521687242239712 -0.6902028734551855 -1.1075494808014346
Ni 3.8390130701152345 4.615264290616981 9.559108097872166 1.3147613694376843 1.804352376071641 -0.6202742667848479
Ni 7.560788212332051 6.968634527277573 9.189903445071367 0.5419422665421634 0.038550606579688444 0.4519490279114668
Ni 5.4559473581851945 5.474022722078574 11.002353988080085 2.228511121243717 -0.270391863728844 -0.12830910349175967
Ni 0.8290747079182887 6.439895778295055 7.18251839350363 0.6246358861876532 0.5230955661493055 -0.9302724320514043
Ni 1.1390685728937953 5.802466650584176 1.33402598485359 0.13636128437227485 0.7305763921762256 -0.5369658963734946
Ni 7.654160796620609 8.657577107391104 3.4450122794969897 -0.05004678014474607 -0.638993440460906 0.7566376080396517
Ni 4.517787416909146 0.8484344945272546 10.802324847052184 -0.2637309067689006 0.26153312778663346 0.00866538898448185
P 1.899626383182993 4.773380208222576 12.84349882771853 0.8251927314012305 -0.5864753159575319 0.22945064542979193
Ni 5.273929451528496 6.9117699638279 5.859494286247384 -0.40469395157924504 1.0069951788254399 -0.7529298201707614
P 0.643271327181132 8.756281603380598 6.906315289898798 0.7253737649293637 0.9328839015323224 -0.1581333859420438
Ni 5.5563008990306475 4.664671506773593 5.35935455574736 0.14732806779642368 0.3195608692543271 2.3344953359860314
P 4.6412825538999 9.149358928879506 7.123105139615467 0.5340163268268674 0.28265448314628094 -0.8340684366243055
P 8.567621710498507 6.3382779697266995 3.1164080271859476 1.2026733557904772 0.29187137375885863 0.5210890772422381
P 2.0151969435048294 8.259745035890846 0.8777874929633358 -0.3376321249337411 -0.47234018997330907 0.06169104925189375
Ni 3.4963690331277584 1.5513389482440108 12.987306532790585 -2.2615590528376215 -1.2562829135858171 -0.8806763662908318
Ni 4.969424157515243 3.896812092316619 7.646240800631848 -0.24266097347247884 -0.9438249739248583 -1.1476527765802236
Ni 3.2111942093704755 0.7042328509618347 1.9062573757760128 -1.248574746308282 -0.5790288869818158 -0.5244446239780323
Ni 0.4745236509347532 7.859970756004681 4.864095081884946 -0.4270103556882582 0.07229736401283032 -0.26196018802172305
Ni 7.845734002081562 7.706380550392663 6.738962888827767 -0.9818891277864316 1.492761412396668 0.2527880346041517
Ni 4.853358883736617 2.0306063515477413 5.8256247371780345 0.07638027583295233 0.5777469349455986 0.4452361346676655
Ni 8.34730015638199 0.3542139189240949 8.6058126732265 -0.44188907257230353 -0.020962718294596158 -0.07325098617535127
Ni 3.370024713080319 5.903168323121443 11.623506126926612 -1.3596024370117745 0.8542945338631933 -0.47131277715005926
Ni 0.01547445370111884 2.456288958393095 1.1500988507081031 -0.6795075985248684 0.29292526894466975 0.24736300693383848
Ni 5.312214776267692 6.836500227513654 8.071574359649356 0.23548605299059444 -1.0327414345516086 1.626525882576044
Ni 3.5668565393597214 5.671193518689479 7.003929584011296 -1.6288167354927499 -1.5483054682105593 -0.3457910065954496
Ni 5.569987971335113 6.62468041576564 13.219689933892415 0.3246503679620925 -0.704288147903658 -0.5186966657506614
Ni 0.5561394615363501 0.17070362667275313 2.440656013158598 2.0090193867988497 -0.13685030819355143 -0.15056611511774715
Ni 1.1266824137534763 2.4209444303136936 12.233489651418136 0.12229606452846034 1.0465762835521717 0.03435739443394728
Ni 4.635849867235543 2.6520397441558123 1.2459440861445694 -1.103247253881655 0.08955435132106512 1.9357272629729176
Ni 3.49359314095356 0.8369351550650296 4.329643308612558 -0.1391139074167475 0.14153665792562722 0.2961872275253931
Ni 0.2796395298574455 0.45293215695405525 13.230993220243985 0.7048933855878248 0.5132315288710323 0.8802742457564066
Ni 6.134098732477965 7.831918670732745 1.6191394274967903 1.7410240483266402 0.12042790097147002 0.9204233071714665
Ni 8.920938732248166 4.5948527798443255 13.091946674125502 -0.04842518538092305 -0.6137804315303881 -0.07027339160426607
Ni 8.792597235652954 4.7667657060781154 8.399306450458802 2.2396159729076266 -0.6331665493664838 0.17871660941003414
Ni 6.578571289320948 6.406456813160318 4.032093319347329 -0.2847216500879548 0.6639992184766242 -1.342251604438153
Ni 8.701359248316832 8.452765736280918 11.115764299640615 0.9575461801656927 0.48400939878112126 -2.40752135063477
Ni 4.566764049131146 8.007248784362496 3.5512345877575973 0.1658531231838047 -0.7985625304082118 1.3742682665540655
Ni 7.358514538027983 3.465192923989811 6.508643542203981 -0.09594971332444767 0.4454029992628329 0.27094130847441084
Ni 5.352570568437148 0.7339834524354084 2.6870114048705602 2.2862192745884626 1.6496267302595657 0.5889998821515985
P 2.766996493336819 2.048910749448893 10.067186147081573 -1.624341987550848 -1.8676387948351127 1.3122874539758949
Ni 7.408517242604802 5.5524622890603865 1.5035038215167464 0.8678848709531183 -0.20677505820914713 -0.6826628563243985
P 7.5960594495289655 8.636716689963215 12.850016219443697 -2.740494893750577 0.16140228650130267 0.6347462351487778
Ni 1.5253664917626468 0.10611970102512579 8.893278753197537 0.459493415917628 0.3983294428137979 0.5595378681367397
P 0.24068267740746171 6.402105167012647 10.221840902761715 -0.8155564938630471 0.5371728701779781 0.48989593946888527
P 1.502444768264808 4.26440251343064 6.682713968790985 -0.8070499990539326 0.8210401426854376 -0.2728030442734979
P 2.354103145485464 2.3852426091821677 3.241684132621138 -0.48799280890890157 0.6615600129075123 0.2211387831299869
Ni 1.3637326117976714 7.119760326965962 12.337003861570846 -0.5480067275686885 -0.8016704799095742 0.6221699411456639
Ni 5.369894700785035 0.5053901060941929 0.27688837335608624 1.308313042709179 -0.323879551234339 -0.7825854382536651
Ni 7.670770342864247 3.566709957594747 10.901749425962114 2.3752540059606315 1.3004755489426312 0.8569319714860403
Ni 5.309512174975981 2.782973905719006 12.545131645113571 3.370674849684911 -1.3873752362496687 -0.9908437658765581
Ni 0.4556704875509793 4.1531103083739875 2.9105330221436687 -0.11142004104590489 0.18851842599180438 -1.4909408142481613
Ni 8.608215698036046 1.940806697780429 3.463367981015882 -1.7193270229691808 -0.4582114638814108 -0.7042806917044903
Ni 4.361018219269251 4.573607585283379 -0.10837431179763501 -1.3000083794982256 1.895463530356865 1.530283577711842
Ni 0.95212185438984 4.374155609955063 10.60602346353478 1.2221651459665017 2.172229930153485 1.353242813342334
Ni 5.687610676366588 3.028516684771393 10.086213376311253 -2.124511541031599 -1.256810503954513 -0.6529630152671206
Ni 7.01664005530662 1.139178509217526 11.049861138108218 -0.33085881076564955 -1.4423132830484449 -2.0890976803086794
Ni 5.9051380155882836 7.975422218642476 11.088705305826378 0.6131196580179376 -0.7048771876379086 1.4134156261774884
Ni 7.662799959393775 0.6338946749029394 1.4105554082105827 -1.4168724743778374 0.3092890550146738 -0.34719302914929884
Ni 0.3141283868838098 2.4327809078353595 7.409646838331135 0.014837322123148639 0.043462699169325145 -0.0361427684691442
Ni 7.6756899933511935 6.54274120914507 11.940873970816352 0.35345700778113964 -1.2533901654190542 0.07788617095451747
Ni 4.0323819021971214 5.755221515460933 3.948839457522145 0.28031452215919467 0.5128016404224652 0.7171894293463584
Ni 2.186624317642143 2.928676180103349 0.9771809232482085 0.4703175031163255 0.36117597369195215 0.2367464077602568
Ni 1.2156758678134305 0.9183622416442222 4.884141054381197 -0.6975012068888116 -0.28045927526717507 -0.7192529967436064
Ni 3.614184126725762 3.4459449059766376 11.42080919777618 -2.5003006366510356 0.0295471175294975 -0.30153563632150004
Ni 6.777116289978486 3.0707597171648917 1.645406879780165 1.3271481731378112 0.12658774992527877 0.3721885227523719
Ni 2.790174734923363 7.3856688099894505 5.520847350763547 0.3068717038224328 0.6750963568310502 -0.4654660885612951
Ni 2.1410190660145485 7.4453733951354995 3.2258890313091375 0.39198113199826684 0.8789362436712734 -1.7742455293839317
Ni 3.951120636239556 8.230043905762951 12.271006338027249 -1.6148265918612448 -0.4802537883934309 1.0844915705407063
Ni 5.067285808356134 3.4279245102451235 3.679246275381618 -0.9867459416581006 -1.9727709459897769 -1.546373284184853
Ni 3.125471360941508 3.549660666056187 5.40443394529311 -0.21357716873264507 0.2875699181700273 -0.5939829371884866
Ni 1.7728698019215636 5.521368632165236 4.328637391250422 -1.200715717843474 -0.7183456544379887 1.3431880002094934
P 7.645631570171173 2.4652029619755877 9.068931346710231 -0.6819411476670255 -0.4440917366505771 -1.7373188315609114
Ni 6.000837585395807 8.762960235047235 9.095386606879979 -0.4103007562430611 2.0010484527782313 -1.2522123430608691
P 6.573303507142188 1.9550800971447906 4.431467247787909 -0.0022224615726155273 0.3610584742774814 -0.6881477906983697
Ni 3.125040777006896 7.867996107637017 7.796068435564183 -0.27587885498534426 0.5916344915609681 0.6902113580956177
P 6.791481302945956 4.5002434119137975 12.619026261245153 -1.1620033888749406 0.6601312508807856 1.2268916049078935
P 7.1297462097048285 5.714444300717175 7.1396917824583275 -0.45084293933148156 0.10141716419692211 -1.0290691279063438
P 3.645122040495627 7.637743638943499 10.0940032809836 0.4228063449092395 0.019125922196173515 0.2692703485298911
Ni 2.377217257549831 3.442958302515289 8.519541975450942 -1.3078597572218444 0.19157161099583137 -1.745362013580362
