# total energy = -340860.0271288569 ev
CRYSTAL
PRIMVEC
9.31769303493059 0.00000000000000 0.00000000000000

0.00000000000000 9.31769303493059 0.00000000000000

0.00000000000000 0.00000000000000 13.63738560346820

PRIMCOORD
 96 1
Ni 6.5704550900631595 6.887908891146961 11.496315931959801 0.3299393842751737 -0.8320192674047606 -1.9440532663401098
Ni 7.725532222588973 6.6776271951428745 3.9141205763568103 -0.4475478135199776 0.5445421660588557 -1.0769073304355452
Ni 5.279926654151518 0.8612483420862146 0.27404173754903305 -0.017687647087750183 0.2120370779390348 -1.5297796414922298
Ni 3.1528091507227325 1.1474552596380363 9.79704359763185 0.09658786112907883 0.3218998018001489 0.32345069122703646
Ni 2.5657758552756644 0.2709147197725809 0.6225290469947271 0.767921151373271 -0.38786710982989325 0.4815298268923771
Ni 7.253497894355766 6.351414762623243 7.6828804828043795 -1.9950122738864802 1.6383221038800233 -1.7677876895737297
Ni 1.4820349804867923 4.491733684163852 2.702657424539579 -0.5804591916704389 -0.7846289510462552 0.15982594315311827
Ni 3.928069162803022 8.354895797411553 5.26967626006369 -0.5917185666343423 1.2342195060278742 1.7088549197932636
Ni 9.26151664564328 2.9629238847325134 7.411442108684252 -2.8068100720380436 1.3546695184865314 1.0405035949955306
Ni 6.65073633309627 4.17333879608535 11.928362448841929 3.210505921370077 5.124346154461916 -2.0837122476270498
Ni 4.8760605680295255 8.814733265485714 7.795742903009479 -0.3116997213386955 0.7765675141943593 0.01050501329638191
Ni 0.3951335442266077 7.631693736216358 7.963755816411965 -0.5485271188485328 -0.4503053216604567 0.9011680584862802
Ni 1.705026009765851 0.6989481062723554 3.137526270636509 0.7612653366196502 -0.3423909797749652 0.6090668281048026
Ni 6.963866724620255 5.105900101675963 5.5251049740422795 0.8625809422417015 0.6666597960279228 -0.5440112332560502
Ni 6.761029865336626 7.213115012820774 1.2366721702742969 -0.4396642970068428 -0.23018829492676485 0.02660937505741224
Ni 0.1417323602484826 1.1863100395182666 9.073825696358526 -0.3056619997850478 0.6760610347371647 -0.732320628560842
Ni 6.878628468902186 8.491297505485102 8.878524055417618 1.4563821024366854 0.19784638826094955 1.371430282884638
Ni 9.102808380487412 2.317859997176554 3.2587354802460955 1.174626734065906 -1.2180146141332377 1.832193309543309
Ni 6.654062749503281 0.3422854529736842 2.034398071987494 1.38372246998843 -1.2037503909047398 -0.918248925227967
Ni 5.808183942048347 3.2207258151224925 4.748755723648321 0.9803966024013052 0.07266631731647485 -0.9329180972043676
Ni 2.8965632750665655 4.432901770455512 0.636670509686388 -0.6914948527937317 -1.3636125866124322 1.2176353764169483
Ni 6.88041746596142 1.7634852157535164 8.454538274764358 1.7474988574177066 -0.466699446747764 -0.5815912483923532
Ni 8.036631357035288 5.841457423811489 13.046109176065068 0.2741400179173666 0.3754499671124631 3.454649392925354
Ni 3.060964650655723 6.333515474337889 3.961497318270244 -0.7521464050375175 0.4853679696915447 -0.614134215325381
P 3.2248628708219704 2.23555681475879 13.840173224422644 2.0236008841574504 0.8745663967383519 -1.92214309653058
P 8.662370349274317 5.735477983437931 11.164504497706348 0.8586607812516889 -0.39654509721986547 -2.539774526375942
P 2.2734332368722523 2.732357571030762 4.137705142681042 -1.393910209154709 1.1305148313483562 -1.29919719645084
P 9.003593585244081 8.914898465416764 3.4233250732341927 -0.3372816835728578 -1.3030677351498396 1.441893679012523
P 5.359154997873723 0.8091438027360351 9.823731333970688 -0.08678758720920537 -1.7929287076157314 0.09081804852483714
P 1.338085941069603 8.039184404921903 13.68497959307273 -0.3657353109278605 -0.5769295812506258 -1.3265092540022316
P 9.110299805672954 0.15060094046191264 7.0323629495256625 0.8475831832812887 1.9846607554488271 0.0404899896942464
P 7.459232556167634 3.9122104492883576 8.418426623708287 -0.23841042572624105 -0.3062991191484144 -0.6318583720780214
Ni 7.756876941897629 1.2758344340240828 5.633589942068068 1.359047335839253 0.5815557671687275 -0.25938419976443067
Ni 8.283820435079084 4.44943135786739 3.107128228938364 -0.18689605989703295 0.9684741399321062 0.5984731117493564
Ni 8.621726572334852 2.828143455243896 1.1041438271878505 -1.8677043579657253 0.9361108931100522 -1.5467607494312585
Ni 5.663666523357132 1.2902395874281205 6.315336655262032 -1.7391026629342112 0.2210644782486257 0.9176735123404711
Ni 1.3126113683615575 5.0977098495141595 7.590855219492843 0.5306762067100409 -0.4118632156341746 -0.7307599689419414
Ni 1.387795833314454 8.97910668799582 10.45437888689099 1.2434094000572586 0.6469407203324407 0.13167236353703776
Ni 2.048662528226977 7.344214953567739 1.8320326879705167 2.2489303083300167 -0.49934422936597866 1.2132025374565751
Ni 1.1523377307788614 7.032901512182036 11.583063653946597 0.9678146519712365 -1.8894070397501395 -0.5280238566888584
Ni 1.400766061993898 2.2489649750100256 1.1988842662444947 1.2797820251490217 1.2605949106976095 1.576603029603672
Ni 2.345477639278473 2.891308096205067 11.708295311631556 1.507999826612977 -0.6324461262606915 -0.05617474741935487
Ni 9.1243229336633 7.151301437347045 1.758800279704648 -1.3589344644104726 -0.007370067211826017 -0.8452247103514412
Ni 1.9831311932395286 2.4569545185319686 7.99823128057428 2.559337536109534 0.17069142511271249 -0.0024762294546344455
Ni 4.08701037028431 1.7599444924071164 4.496832325782667 -2.494011718318531 -0.5224767016183841 1.6999033670269306
Ni 0.8003152886025775 6.435162187458617 3.7849195814466783 -1.0295843769798654 0.7902488683361938 1.1278845928143608
Ni 4.577111705277173 8.313478651951693 1.5669489804878751 -0.18082439978165632 -0.174417467814048 -1.4975313229814855
Ni 5.263359795967573 7.404425885842571 3.7002590226956538 1.553961638055072 -0.2903904183379579 -1.071860254929941
Ni 4.288775694871003 1.7051750928541203 2.1419289082483566 -0.17943523274361353 1.157392886686123 -0.4655365367879144
Ni 2.280337647397732 9.221441247977843 7.902578639371286 -2.244782347599915 -1.7800654784998182 1.7956893010800044
Ni 3.512509371944894 8.00947959958421 10.32433277722423 0.25679869842544156 -0.7808000642184681 -0.295467061529917
Ni 4.827860142053403 5.45310529656254 5.067802850238002 0.1314615330778123 1.1529538770781627 -0.381964114081897
Ni 5.634129436493743 2.729189555405036 10.70039766269187 -2.839892970634941 -0.6171856005571952 -0.33488772941938455
Ni 1.5388635901965106 4.807715289750991 9.928575879334796 0.16829104320133598 -2.5006240814287257 1.7764217110996439
Ni 3.730888143180616 6.797089337311803 7.780483317155798 -0.7279011593369077 0.6034199142316704 -0.12423493342238603
Ni 7.805403487129341 2.948444189784341 10.386751070974752 1.1677536610951567 0.2868939751489253 -0.8654904025790127
P 3.386003053855233 0.9534608910273896 6.733663800946161 2.599091161858388 2.099735362528184 -1.925246418046252
P 6.99211796984732 2.4344057014312117 2.7758628114956982 -0.14250287849363844 0.2715516883649001 -0.06576701909348029
P 4.4483505054774355 5.598703567643709 13.366369466285539 0.28175845369457286 -0.5917836155443228 -1.089093588089092
P 1.9412574808218415 6.666716176620152 9.322066741943924 0.5787267823603647 2.55943678069156 -0.857495300188678
P 8.707542525019967 8.948097405635771 10.310354374160365 -1.5889330119239344 -1.4161795620758706 -0.3108695121279162
P 5.988406760380102 8.195097362172715 12.941333581629284 -1.7994487681224363 -0.04044165295481422 2.3141635664072147
P 5.993904199260039 5.030622459792898 3.087163208111177 -0.37222991751326856 1.188644902721869 0.6455608092657785
P 8.439360684609225 3.645696475927631 5.464213850177218 0.8618970288007994 -1.1242485387236703 -0.7798623828955472
Ni 8.979525984181578 8.377668239144715 12.537461904891483 -2.5109167216039854 0.9820950731496505 0.584675800854948
Ni 0.8461303851663887 2.0271945635161734 5.637218251728825 0.8465154041384066 -0.9616082660502085 -0.8381552050991694
Ni 9.116402894598984 0.4426668233827245 1.5085540665820258 0.2597672941354623 -0.5663458921975085 -1.1124479465443164
Ni 4.61948857311777 5.4536364050645 10.988473709462871 -0.7870542726582961 -0.24613067718863418 1.493131394141577
Ni 5.746444908118755 5.079130369638576 9.03236755304939 -0.3112760035377155 -1.3326598469846598 0.748742007341659
Ni 7.001361121320027 0.05726001889639803 11.474986800874948 -1.1481693112053257 1.7935450010434915 -0.18956537919907998
Ni 3.7245055234640794 4.140950495158807 2.945265924696296 0.9808470596751624 -1.5836419387283243 1.7286678407541325
Ni 0.4562147490292125 4.1496159496644704 12.478848956969037 -1.3265848444351733 0.04299707238681627 0.3906819535708691
Ni 6.8476285042351535 4.3594317610177145 1.1888379296337357 -0.8063871686589531 0.7348698773452569 0.19972097957584314
Ni 4.081205447534818 0.5651283309337748 12.012763975727085 -0.3352921639466548 0.0986866526396365 -0.8745190884401843
Ni 4.33330494979849 6.018335190350198 1.8521477236552746 0.8910960189622589 0.3678574994771858 -0.6743062568295871
Ni 8.260507567150945 8.013886868381176 5.8042621250575595 -1.08912958353335 -0.23756890366155214 -0.7691293127487592
Ni 5.989655331244359 0.8431515187089044 4.005258795293144 1.111161366522409 -0.718022466770615 1.4251056609209067
Ni 5.6918711801191115 3.1739416784849297 13.26925767435611 -3.603502639117052 -3.1645124853590985 3.1502220368783553
Ni 3.43551727454673 3.862398062420321 5.681443749863964 -1.4016091204608634 -1.4456652302398136 0.1520385858982156
Ni 0.3954074844013028 1.4027880013785525 12.87846524330605 -0.22986639281097185 -0.3376046141299154 0.12628461686256315
Ni 2.4865102407813913 5.264981074552503 12.221770079557167 1.024774871406364 0.5644309345629828 -0.8778880049124171
Ni 3.378847065618298 4.571604948704219 7.947882194588472 0.9798947230642221 -1.3508681424625704 1.2275238391752537
Ni 9.070466668025954 5.772748755505298 6.15481143996788 0.7507343551813394 0.2933325316854174 -1.248914646146204
Ni 8.875205093165018 5.492267560312325 8.759743036608219 -0.4138411652961518 -0.5618091806694195 2.9469922728183056
Ni 3.437008105429425 7.541694139366684 12.803936743941538 0.3119151797836112 0.23926686018926535 0.26907314491742046
Ni 4.707186699792285 2.3760303546806973 8.359376675983352 -1.1950148108039547 -0.13027445474824662 -1.362516525334776
Ni 5.444700737461348 4.254626349964278 6.998801551048301 1.1042628396303629 -1.1929805539827456 -0.25690051411062853
Ni 1.5134262882605325 8.095845296157318 5.774574091567297 -0.23559969575032327 -0.5192378829661123 -0.39688705394031654
P 7.41980007932036 0.8635703111860116 13.710755127265221 1.7551106083266932 0.8564822855431313 -1.1178284941299392
P 3.920764091477819 9.259103363151917 3.25347098369158 -0.7413197467356588 -1.111477612211247 1.1166000210394769
P 2.452267718944497 5.872913955436347 5.976979541664247 -0.03579438399078997 0.8401544949173854 -0.46429597951259394
P 5.2875205739602436 7.039656839619247 9.483833073947919 0.5473546958069864 1.0009116916355214 -0.17371298554785566
P 5.8736500531846785 7.264371642106421 5.873704095804176 0.7592904722814665 0.39197161891657006 0.48203839109767954
P 0.47687580152475756 5.138223178751388 0.9308878479247887 -0.6947933210393453 -0.6014550771958158 -0.34978161581208145
P 3.6357079090135764 3.4717071942241438 9.821277053630052 -0.8948997089790652 0.9427078296012796 1.235932374953923
P 0.3747855662164285 2.4114562235307297 11.029576848668064 1.0289151188269827 -0.7192627669356193 -0.5993974233358387
