# total energy = -340860.5805466349 ev
CRYSTAL
PRIMVEC
9.39493773786480 0.00000000000000 0.00000000000000
0.00000000000000 9.39493773786480 0.00000000000000
0.00000000000000 0.00000000000000 13.75044103422722
PRIMCOORD
 96 1
Ni 0.700917770848435 7.305832256345982 13.188267589333629 -0.9322038447461622 -0.9208390545526464 0.438001307482123
Ni 8.289228553797233 2.1018824018350575 8.254444737037577 1.1393748528421475 0.7839324391998628 0.9013066409466737
Ni 2.3692905091249505 2.3568328219427697 4.040374626376411 -0.7007366831069738 -0.14026601874331973 -0.44035566664691256
Ni 6.431699082521246 0.5374918927920667 4.323014745904968 1.3517348613382398 0.6659681692775369 -0.3994964665387055
Ni 5.291275798974247 6.130657098826975 8.049962042424008 -0.9304922613716943 -1.071058327853936 2.9360794825605434
Ni 3.7471238643866513 3.6998579336072024 2.298715738301015 -1.3759703368468368 -0.32994195537833504 1.6305918251153015
Ni 6.488453900219248 5.407895158697026 13.089663022349788 0.1673937281980472 1.6005749670382372 -0.5327621427047922
Ni 1.5361474478008563 5.229231631439467 8.979120425945059 0.06726108714050351 3.1041869489961638 -0.11026844393996493
Ni 6.9911018486513825 6.922424855211157 6.864137723199872 1.8509487357739411 -0.1358270091353596 -0.9796180723640677
Ni 8.811887719196218 8.597654958400398 2.9687617443827494 -4.165838895934535 0.06132440994109439 0.5603547076110801
Ni 1.5299279991473091 5.362480030613572 1.0123599504029424 -0.915473676475675 0.8830875468354855 -0.004708975439895117
Ni 8.916735222177465 1.6483793716909965 3.680305189592456 -0.8392569228037804 0.002738224866769478 -0.37324961702703463
Ni 3.7672572155415627 4.115189332513557 4.822760598130031 -1.0557137270770656 -0.18057628832659223 0.13407788765473683
Ni 4.765356590247799 2.1295223080869237 11.745351743735704 -0.13329858628655106 -1.5208509715440324 -0.1669792663684479
Ni 6.100208106249715 4.647262225330751 5.317253740774736 1.7351861014886247 0.35674287762126305 1.3041344858514572
Ni 6.771373049392836 8.2789598870626 11.594729286563101 -1.0259010145910072 0.08165797929212389 1.1412589572387377
Ni 1.918305322242446 3.1385479951558115 9.356239795382272 1.0725891626761654 -0.727272010393341 0.07565805295494711
Ni 5.7404195780983 5.592421126981493 2.3430617224920613 0.3504169354032352 0.8063311186100371 1.5069608438255016
Ni 2.912223949741993 3.78605648556535 0.16344184945019166 -0.6642365312984109 -1.7336848343527496 -2.2668686379759926
Ni 4.820523663501015 8.183263053248355 5.046109266823943 0.4059249957728686 -1.0048822462474951 0.2664580758920766
Ni 6.830448416663989 0.666565181722008 7.510930319368624 -1.2413419760052686 -0.9061086903210073 -1.2492126370025969
Ni 2.6156257715056195 2.2675339405953916 6.854966385170276 0.6203213179726994 0.33471880794168807 0.2916785410217622
Ni 7.113630624088785 8.244339542216194 9.009095913670146 -1.1904428751625562 -0.7686850261224891 0.22847054090470972
Ni 2.515560291733823 7.110887302326193 4.680498695877055 0.3880709983105833 -0.06576239110778997 -0.16378364224928565
P 2.2616339198183106 8.684952718051091 1.650135285517806 0.27727830643603213 0.08852642427718302 0.697727721077321
P 5.355217743892739 8.215816511835275 7.391164595062655 -1.4603354306574785 0.7516270421989378 -0.6741635606041357
P 2.5488653453241916 2.0740921765825013 12.083915228989696 -0.38469668252171163 0.31652028265579035 -0.5332851050877977
P 8.207248328795947 0.16433812649180554 5.554008985342683 -0.23687470580800493 1.2604200756826422 0.19340043667445403
P 3.6602112971752256 4.890093176007836 9.454073977487578 0.6161167929730486 0.5058313797522193 -0.6361030062869883
P 6.278702524631497 3.5481390872233187 11.961591263190734 0.9490782519039977 0.040971557316355246 0.27454265267242395
P 1.6525413290225996 4.476819268423425 3.9327499798574177 -0.4915291041969341 0.5016258263113038 -0.23761569773908756
P 8.411823093797437 0.8514199728204841 13.150673746754824 1.0090718588488106 0.546170445690898 0.26056305056388035
Ni 1.3778991198245027 4.364963142035009 11.382834925721765 -0.4934080663872018 -1.098210462788696 -0.6927202405604005
Ni 2.5664338785298306 5.940381428766117 12.450529179266189 0.6764726683532866 1.2421007085481641 0.8131815658729673
Ni 0.9337515684858829 2.2443660246140515 13.474647833498103 -1.3766213401672744 -0.5023907295017864 -1.094782153833437
Ni 5.693698553696352 3.1969093471736882 3.468920034365956 0.5228693090711124 -0.9868433864679134 0.6044776660722234
Ni 8.115365839624209 6.1006402733766985 11.67294120211584 -0.23749768410398453 1.8841730450447098 -1.8476559239552826
Ni 3.4846762841195273 6.818328947233361 6.825416488115893 -0.5022305497748383 2.937902394701895 -0.31796010042611045
Ni 0.24866896486638077 7.944152497838348 5.260409671170073 1.4782660469939704 1.4275422953868575 0.8160534881041236
Ni 7.8220934692781015 7.494106804710156 0.5650679134686395 -0.4469250923343142 0.07054644275999464 0.0509806048129251
Ni 0.4075354797330718 1.951770089771048 10.802304824044654 0.9880307219077953 -1.8139659879020051 -0.8849174009553727
Ni 8.918163252684018 3.929780240100037 4.627133571644611 0.11142055526653714 -0.055933320832510125 0.3923760534438404
Ni 8.966800844344762 9.104615183164826 7.6171945789313735 1.3008164772218178 0.24531718014840334 -0.17545465082931072
Ni 0.517312506443194 1.8542600330109804 5.771362744390328 -0.47926442789696816 -0.9401380119915745 0.5182773188250558
Ni 0.4716935082150547 3.716252099619951 7.349762044803869 0.41265177297374095 0.10871086964485793 -0.25657424111946137
Ni 6.335382182829155 3.9646730381351936 8.125974603097903 1.9687440842185706 0.7196967691492444 -1.1532698656566849
Ni 4.591399926699345 1.0855286634825339 5.821331598700933 1.1681609238359043 1.285001364566432 -0.043788457939860075
Ni 3.637052776131429 4.084016929745477 11.438345853689057 1.0105255605762016 0.3525918315673669 -0.1431461685045922
Ni 6.901427169802279 2.436201254307068 5.978802025848717 0.22555259592696641 0.29988653075385124 -0.23873464183487914
Ni 8.984773359864757 4.299828040048541 9.710300230113647 -1.6686019858104875 0.3330316500472522 -1.034889334132547
Ni 4.258236651545139 0.6505477527047386 3.4379815655427 -0.29524851776120764 0.7262795645730847 -1.3703545333219562
Ni 8.405115108391648 4.489136031542458 1.8481552025954597 1.399616515510867 1.02611801569782 0.963358930192728
Ni 4.796406858827819 2.8833908864221507 9.3016373578754 -1.2683509004939446 0.10174935072536025 0.504279461884067
Ni 1.4297779649376245 8.692121055396495 9.862104570429173 -0.13710356185493805 0.8011215493846396 0.15840386599461106
Ni 1.7659851998558027 9.271910835995206 12.849525600266317 1.0644930159315924 1.4774183542816943 -0.3438153709263176
Ni 6.260795773674307 8.009174860574298 2.7909268506164944 0.180405824186999 0.20802641411774495 -1.163815759493331
P 7.476228238565594 2.6657853430483502 2.480070915164678 0.011811647922947399 0.8303012562723895 0.3003652701624827
P 8.31263134321715 5.117281555675621 7.067630191396395 -0.4069691207666668 -0.34472914098983853 -0.9335140789171535
P 4.727588941324448 2.243839908111637 0.5898141789572239 -1.6397593505471826 -1.1649316182653293 0.9319642179315304
P 8.204946569097883 6.427255277063349 2.5381109603185794 -1.1365970329866941 2.117325307695805 0.6955733937384795
P 8.548763703425989 8.51888780203886 10.564463524696722 1.8499298075911237 1.6641292947511144 1.157227307642536
P 4.758657999779553 3.47950906847081 6.667286536352583 0.09316006639445246 -1.4580600043597405 0.8886421581051276
P 2.8891875628862573 7.9157046269577735 11.475127973664135 -0.8895566994995969 -0.7262692801604396 -0.5135068940196059
P 1.0328324588031603 7.4624834449400055 7.591714568820671 1.7104772858880348 -0.7389355627741985 -0.9808588867497043
Ni 7.566072026290473 0.8065826333959325 1.5646629622317414 -0.5750117954026226 -0.9141007073875482 0.16793828784760756
Ni 8.555631402770011 3.4442592628090143 11.78473250343521 -2.329434890743988 0.2730593832586782 1.2924603919476387
Ni 7.121249918436257 1.33302889811855 11.013428800007455 1.0975239782446322 0.34366676116359524 -0.23028265441278406
Ni 2.5391227950919735 1.4516305896629274 1.409791174808386 1.6568008794105016 -0.15009123236385763 0.12208034897322846
Ni 0.42663914573325695 0.11843728013737245 1.2844523735518358 -0.501712215377523 1.2825814422710298 -2.8030979132937786
Ni 0.9809817985026679 7.126276210021827 2.730094630024777 1.6430488199317315 -1.6543022813583639 0.036880160855801
Ni 9.298780357368535 7.035662037418413 9.382613264053326 -0.931265649202609 -2.7394991054962112 -0.888514888498644
Ni 3.0376181811300476 1.1645025084700207 10.091930109065313 0.17039163448410655 -0.6650268884101901 0.3478854272306331
Ni 7.424687611204025 3.429133413364587 0.26729348905186656 -0.4300308876821368 -2.061008378271631 -1.0874563095959853
Ni 0.7830981080193895 5.846779666023989 5.761737630877399 0.11908038580464009 -1.7161733078315478 1.0728246757257394
Ni 7.541757927928872 7.621577317295241 4.602506621862824 -1.306439222725234 -1.1770883082325212 0.535261254977562
Ni 1.0607730030564064 3.1632472859566807 1.7991765747018997 -0.5275937111299752 0.49485199792258 2.2023249497666524
Ni 5.096471769017605 4.295666082716939 0.6085476844182099 0.7975682848157426 -0.26155498216350437 -1.071310038853426
Ni 4.531366275798793 9.104878241416033 12.240848265710012 0.11712763295364345 0.26660822831669573 -0.9077606241021334
Ni 4.573371041554093 0.8416295084067964 8.051213448104754 0.35162226856524603 -0.02645382331615444 1.7271866282229156
Ni 3.848044283474872 8.1297213041901 9.366538525917044 0.7963539527926672 -0.06867236566573336 0.40477725532167064
Ni 2.8952191127889417 4.824864124645937 7.180755573846886 0.3312375342613069 -2.7815847218123513 0.009756822276447712
Ni 2.612159039552207 9.190466122433879 7.408613812561496 -1.672256037623307 -0.4167022888940307 -0.7895662404468724
Ni 5.2773994762230565 6.394279046286989 10.879513360267788 -0.8253487973631204 -0.2022136640907098 0.31220982820589455
Ni 6.271675111349242 1.1914941640314112 13.380636451479095 1.2837937174115759 0.8148813221728933 -1.7557027333847377
Ni 1.2767344323601608 0.12385628011224546 3.6084865290378114 2.1707430611953136 -0.08311065257825041 0.08246222036097411
Ni 3.513321448688507 7.81023705809868 0.2024928468419342 -1.4374019617897567 -0.6319720148377503 -1.1604311592918144
Ni 5.161024384876399 9.245886859000757 0.9192138421316554 -0.48092613187010724 -0.07910307408075408 2.0684447799450183
Ni 3.9057573848022726 7.777054138696372 2.8017347867661027 -0.42095669329501045 -1.3039028294566253 -0.8718387133945438
P 7.017266749708979 5.937468998127749 9.74268270083728 0.453425098236361 -0.4579047312742695 -1.3345691481922304
P 0.025444309348038378 5.075774721610107 12.824650624133392 1.83293507280534 0.43534792901967606 3.0504591204554043
P 3.7381704889080556 5.9468263559207 1.1299131669175069 -0.25317961361561553 -1.7146419587886859 0.7140089747358478
P 5.3435116517140075 0.48230227168874845 10.153958305206269 -0.8059102290225345 -0.22769869573569174 -0.0217895850712657
P 5.581720293119877 7.384298774706141 13.498422662444728 1.7413168969767105 0.3333327262274388 -0.7559601223566529
P 2.804210352808715 0.4147320018911036 5.012392714969185 -0.508904105140272 -0.7041691058272904 1.4927698970371002
P 1.1119002531660784 1.452767377105645 8.345871571738472 -0.39454914983575917 -0.6292512734724776 -0.2652918234981173
P 4.752053358686738 5.912177826261664 4.427958077249153 -0.6137421220932849 3.2061322177824136 -1.3743551698409169
