# total energy = -340894.8333967655 ev
CRYSTAL
PRIMVEC
9.04977449593228 0.00000000000000 0.00000000000000
0.00000000000000 9.04977449593228 0.00000000000000
0.00000000000000 0.00000000000000 13.24525974002738
PRIMCOORD
 96 1
Ni 6.211394039111993 1.9678281727706741 11.455665848053213 0.8295996022196745 0.10820564787366527 0.31509923393854766
Ni 4.492063618858552 0.18878643670515194 5.959876376910684 0.2826634820073454 0.18113113238879772 -0.027933236075158345
Ni 2.8758101278877257 1.6793123182966607 4.767313409185473 -0.7492670266071935 -1.254943111728471 0.31971333567179133
Ni 3.4432219267543287 4.374814743021366 4.703789423460593 -0.5856073115302818 0.1258470151045123 0.4843397855373465
Ni 4.993176771199744 4.627955029754753 2.566772100232485 1.634516099870372 0.5815837921931855 0.12780902392688956
Ni 7.3020094893872916 6.162832950215547 2.564573910054895 0.21591584416815074 -0.7947925218428183 -0.2719903185642154
Ni 5.09390980893853 4.706651867071839 11.38422059488311 0.3535050874102557 0.5084878435384598 0.13818933871994912
Ni 5.848253745756115 8.016217677182189 12.397403461311102 -1.4848514135209718 -0.5429622231662455 -0.01185535667668926
Ni 1.806886986610709 6.350814861985385 0.25037377072972616 1.7025911982717388 1.2672638380773529 -0.2272238129818022
Ni 2.6337196155752407 1.7293032715325836 0.3452823737287152 1.310236484984137 -1.0557607782649172 1.191691917078309
Ni 0.5812642883883675 -0.007150226674819424 4.475970405219986 -0.03215832990009946 -0.2381908535162672 0.8829139973720987
Ni 8.841059355800613 2.4674390625779847 1.4017059667418914 -0.7943911726393416 0.16167610898797963 0.6120356809251395
Ni 6.927882770030615 0.47256654428771744 4.8680301573305185 -0.902213469031659 0.3813215954018917 -0.9916582913580535
Ni 0.6398905362618206 7.174380522427439 2.2483693661310933 0.07831811628561351 0.3689345345914485 0.8142154064541203
Ni 7.716181460023648 3.9911948104234733 3.8255359769206607 -0.4628286509384481 -0.8192799654612213 -0.2862504280276554
Ni 7.564688238233398 3.886570369735475 12.562479489348963 0.998593842135622 -0.735041884146747 -0.1497006817936583
Ni 7.811475583407838 8.87075166528053 6.924899964421172 0.6843212178634279 -0.3245932894719119 0.5615677540825749
Ni 6.936778698167999 0.601614515857886 0.45788328548516777 0.0926396751146082 1.301615061863713 -0.050258896155552145
Ni 1.6126607305735305 6.531701750703637 9.340834951500192 0.8654322956475676 0.31039180116054926 -0.2783435144757529
Ni 0.10625249508465685 4.982796680077079 1.2103394393836688 -0.6263752374762632 -0.5980720196561957 0.5017682654264392
Ni 6.306217574232557 1.8538462654559664 6.942728019793143 0.6008318417895201 0.46457031621990313 -0.3110060377057805
Ni 3.639430083363315 4.474172215066478 0.5879674562127426 -0.6765356603807382 0.5101899138312309 -1.0240523914180428
Ni 5.716099891646017 5.558751465883347 4.850003006923937 0.7744059877666664 0.34215855204918494 -0.08258177665797391
Ni 5.40200937499881 2.68493228834173 9.27781413322642 0.28582311068224964 0.26625418741138657 -0.1666409091924227
P 0.2252751266847392 5.6094573512890085 12.292752776277634 -0.27228291010396977 0.23174895454566538 -0.04455079002718133
P 4.012887119421754 6.506280934693553 12.570188087098122 -0.214134841008328 -1.5337216568591134 0.030982050203811163
P 2.284588372836526 8.464100057087881 1.5113367425729223 0.22305425498514486 0.2548289762935805 -0.47468632160798246
P 6.103158738478097 7.583557017649925 5.80152976104267 1.1317484466451413 -0.009686374049828477 -0.4138571061357517
P 4.78028083078065 0.9992127298403203 12.821371812627744 -0.6147831617632895 0.5272568966158467 -1.5422795737314534
P 3.9024617734071403 6.044932490628726 8.358407743032425 -0.17910073222233025 0.13912419182939265 -0.16486916200398058
P 4.665122452806877 0.9549321841880087 3.6846590453623183 1.4152434234148468 1.0513955593176858 1.362354545835615
P 0.34978463644321034 5.410470913969771 3.6866852898281985 -0.3953155956881385 1.3425989604752424 -0.6326438440937944
Ni 1.6005430827851705 1.2721720222917867 2.741649938815209 -0.2368975886261404 -0.7458991385762251 -1.5665091357027796
Ni 1.914117762297249 6.45371079578199 4.869672691366058 -0.2556447873266565 -0.4016405094649018 -0.6366869038149163
Ni 5.9969596370618135 5.52152974418542 9.126129056220998 -0.6461999855116742 0.7743702494327244 0.11989105463139353
Ni 8.504688294825593 2.225746740334721 10.385833204458995 -0.05162569459609173 0.7707061703175759 -0.7122086883023153
Ni 2.282389277681506 4.964009348629256 7.323502703350962 0.14482561308954411 0.2274528982734728 -1.3183048638145682
Ni 0.4444769498364176 9.09882407720155 9.149030415065825 -0.4852787524118481 0.1668522538722804 -0.2819114343326693
Ni 1.4652942058643046 1.1877285782938876 11.459957251026506 0.047024962599286756 0.5016427955921683 -0.7880968549901975
Ni 4.256416545848018 6.813511722420986 1.5628344832298768 -0.5604542093034219 0.816416013649865 -0.19054779771700733
Ni 5.820253744070389 7.77332173495696 7.944242107238079 -1.764875658133257 0.2328820397088441 0.5854682148492563
Ni 5.114326099760443 2.75819021130422 4.899408439762618 1.2469606077436266 0.07292317052228732 -0.14420083502135164
Ni 0.661068818079834 7.4242085917668454 6.862673716330984 0.5746058182134556 0.43226131967455234 -0.023777562035571954
Ni 4.943647356453147 4.598914304024471 7.003576892234797 0.26742635334261683 -0.1110405462192991 0.20376712462075874
Ni 8.107249356870847 7.072471014029589 9.301523636916281 0.52235277444601 0.3128834572341515 -0.48674890919947145
Ni 4.564660908297107 0.2994516017387291 10.525173484341115 0.20566588430536836 0.11168846421594313 0.22414208873268493
Ni 8.1779914425778 7.106118074878822 4.6794048066079155 -0.5166346410153102 0.040573036326355935 0.4274045058028832
Ni 7.405231215058712 6.213339740586599 7.117684591412282 -1.0872920161039792 -0.464912015830038 -0.8786703916043964
Ni 2.305692446505275 5.312688102652946 2.4968110100476646 -0.07133988519556746 0.16015093059270485 0.698195661852675
Ni 2.603683414671905 5.21195506491416 11.330988012492751 -0.8858309139085776 -0.18570512491272534 0.6374492359022377
Ni 1.2170769963503858 3.334678933794217 3.790594798346458 -0.8103672363526238 0.5252532359222566 0.6377683098045532
Ni 3.709511535546332 2.7702083115752743 2.7029331944028403 -0.1807336398400629 -0.670757106025748 -0.37144521682844417
Ni 1.0461448593626763 3.194135938907563 8.377375164988829 -0.3715395763144633 -0.21058594731480507 -0.15977117865578291
Ni 3.7477649315145154 2.562036353341037 7.008874630110306 -0.2721085893096346 -0.1545880917929467 0.3844488281769637
Ni 3.9242988787942297 6.843964212942144 6.229920737059961 0.6020209770016148 -0.5518795802605334 -0.1200751456177416
Ni 0.5937122529386955 7.666181457013425 11.385559056502155 0.8150535860846995 -1.2650776290593115 0.49205129524899127
P 0.23225159769298917 5.571873638619063 7.9320955001719575 0.2717077543267902 -0.6540850446867058 1.7954424751765206
P 8.411186026752901 1.6731584717723256 7.980852064193292 0.5196124926967115 -0.3148107561638514 0.12519266934996504
P 1.8942987565791696 3.1006879694806733 10.52522597303206 0.20921606355047195 0.7808432587515778 -0.4816167301792287
P 3.902344126341234 6.30425377320935 3.770713349185705 -0.13457899566087145 -0.9971738218596441 -0.03319088492967187
P 6.903656524228196 3.9706156236641523 10.314176186570263 0.6148739217048829 -0.42441636970883684 0.8647437542209752
P 6.288271871794679 7.758045715937728 10.277526410608127 -0.08920056752607218 -0.4521284909121246 -0.3661114633203566
P 2.3981811398563124 8.389303672494309 5.665871834323422 -0.9552571270211999 1.406386744355165 1.832451191190386
P 7.021394087877607 4.203927854905159 1.5057213576194666 -0.48869677695446156 -1.037233665995007 0.7963125580317705
Ni 5.37665190740883 2.9305341130828064 0.41561631461471576 0.637497829751986 0.141064346274899 0.7354604597414043
Ni 1.5596200033983418 0.9903439510258373 7.111128029931575 -0.18626511118125338 0.32907420806140103 -1.134519067411743
Ni 6.782534344990398 0.5463176799495842 9.17280598210808 0.2810485721117418 0.7800156206439599 0.06144216646588128
Ni 3.013194751543508 1.5947602770071556 9.213018654212322 -1.2826403205334231 -0.33247320644062095 0.4764878935930955
Ni 6.319918932523503 1.9885793052417042 2.5846797936183 0.9841900080054662 0.7402928481330412 0.36794671675688245
Ni 4.139611108951557 6.972896347401266 10.33527573535186 -0.10973442581336586 -0.0757027901499535 -0.0381266316683924
Ni 8.135140761264966 7.372036642924504 0.214585533280997 0.06631620672873095 -0.531270388650614 0.058969536555672636
Ni 7.466208594295433 3.7348418538134114 8.130324471382243 1.0515230860344857 0.23877732214735656 -0.11212863707715527
Ni 2.949294295207728 8.57203671516986 12.40470210428445 0.7613041602773857 -0.7854787006410601 0.5027393710904567
Ni 0.2323936791495069 4.673593041552139 10.320785236741914 -0.4480507212983252 -0.2229454973214225 -0.23976873952634836
Ni 8.681701880143233 2.3455567022989467 5.753899893921746 0.12515924500886833 0.008872362788965365 0.05903278569344026
Ni 3.839384846532705 2.856678905016484 11.801129217267938 -1.0277331827037397 -0.8659058928498765 -1.0034586264270913
Ni 1.275303244199757 3.4365974919663684 12.765303935949039 -0.860736432833795 0.9663666066708002 -1.1084650506371683
Ni 3.06738480005486 8.238679229036904 8.105688270804013 0.40468032473249016 0.23407734556852589 0.30557638204977694
Ni 5.638941515960014 7.684986888009849 3.5247757778180806 -0.7584602630706874 0.7418406522361353 1.324640833334925
Ni 3.162887068247961 8.463991459796276 3.5914391302478013 -0.35565992896972937 -0.524805863972193 -0.3719697218733465
Ni 3.594479854412767 4.057665402660593 9.379510971928209 -0.7989489672133531 0.7941091226225484 -0.3894514235978776
Ni 7.287050212468576 6.032289955930938 11.317425115748604 0.22548214770034716 0.0762820596921912 0.169670697157682
Ni 0.6488579576161788 0.2719321430683603 0.25625250411532635 0.2054077455479753 -2.0471131083467773 1.3456531739205342
Ni 4.695602092650938 0.4161013825172222 1.6401476100564176 -1.0870153654038246 -0.9622186459406977 -0.5381809997275183
Ni 6.101819371881625 5.678099889358248 0.19606426519760828 -0.7245998628778166 0.7975266329445297 0.7341183438912131
Ni 7.874579659605176 9.04372000148585 11.289133711330402 -0.4083503173849096 0.20933227741336205 0.3460892545621588
Ni -0.07203710840935337 5.014181297351188 5.864113475217728 0.6361150904718463 -1.5654138457560718 -0.7121593231216187
Ni 7.8719552250580325 8.67043491113912 2.5902960835491857 0.9473959791055685 0.9845687315011238 0.679232747596927
P 8.344941678873292 1.6223530388493586 3.5282056422779675 0.747626405679977 0.4020763114507398 0.24709304110190347
P 1.911620024590313 3.356543188504208 1.6460019090514064 -0.21910401208814523 -0.3767180351916093 -0.6571518565374876
P 4.792995763672843 0.9141086523184853 8.17889461005299 -0.39780313799668265 -0.9320914875380142 -0.3907804268219463
P 8.544824043848278 1.6831946714715722 12.569989897040942 -1.1612747382390323 1.5335355089902365 -0.9840897349821762
P 6.282489066016665 7.829330788102711 1.5209792770900974 0.3014299639815712 -0.9604659249156491 -2.1214012775373914
P 1.9113756806841997 3.1682626341824536 5.9465786385535395 -0.861088159746259 0.45932963664625404 1.278473076529611
P 6.819710817816823 3.9913215072636805 5.982883618114827 0.2674556639186555 -0.45003072784283144 -0.2546042618772841
P 2.2173937986553662 8.5599100176072 10.210373465388749 1.3784473376324196 -0.015399879494837993 -0.09152304501166172
