# total energy = -340889.4034400825 ev
CRYSTAL
PRIMVEC
9.09413905556114 0.00000000000000 0.00000000000000
0.00000000000000 9.09413905556114 0.00000000000000
0.00000000000000 0.00000000000000 13.31019175747766
PRIMCOORD
 96 1
Ni 6.258086234060281 2.3244437222581573 11.232403802534996 0.18408738680364423 -0.7777355663605315 0.9757148806549196
Ni 4.709763610514468 0.06774951620153061 5.55113515605035 -0.7421530412702315 1.1509946964692628 0.5109141935917653
Ni 2.5848816729386366 1.6558426281164984 4.70697625693239 0.6032080553311805 -1.002382362643777 0.21215637712571847
Ni 3.6944302813845207 4.228328989693396 5.007506628500151 -0.5277993993828781 0.357680558944184 0.3331056978182973
Ni 5.236359725262465 4.486638911864229 2.7277242225277614 1.1161256525062198 0.8254580692474752 -0.18321938237639412
Ni 6.9597718056296785 6.114871734188915 2.6480759349500755 0.5020148342196064 -0.03909645178082944 -1.4117125274434525
Ni 5.363559446477909 4.891682765672381 11.616110078171431 -0.9758033266036679 -1.5900812665957649 -0.9428016748666666
Ni 5.94931293496627 8.089318425582874 12.380327858438156 -0.8410129862629387 0.09799219767577318 -0.6363148651874783
Ni 1.5092360144242014 6.882371589195516 0.49306784334046916 1.9056394424486023 -0.6039431337249922 -0.20365682429513957
Ni 2.603033574243135 1.4782704713671782 0.4106531187002438 0.02129027683734398 0.6364135955488717 0.0044212689961472245
Ni 0.5943492686051 0.09136699500302528 4.879023724281669 0.2444718014289725 -1.0113292874244195 0.37847512709203207
Ni 8.65409173555947 2.4689950605522495 1.3015622578162183 0.15968787491335726 0.4424171771616316 0.6909862885884294
Ni 7.155123003987364 0.6035352583384037 4.813577753471135 -0.7158830518301091 -1.1419796374548463 0.5064993523535212
Ni 0.892451505078521 7.531774956055713 2.798467529265084 0.4130608354867016 0.13116817020710958 -0.02573957085794922
Ni 7.8025620368386575 3.9342700073883012 3.797237703161624 -0.5629227254485726 -0.26514732750045306 -0.3974727512404574
Ni 7.5963069659037705 3.8285961130204273 12.635232025579665 1.0510510314940738 0.08410078440566161 -0.319950648493578
Ni 7.9536975317181495 8.56685166080293 7.30756168897554 -1.348548236080142 1.5154866219083254 -0.5399769152856765
Ni 7.125066874823352 0.7899823852696181 0.37468034274830214 -1.3086236319710625 -0.09179301084359676 0.46114894924318
Ni 1.5697029441705004 6.619359997197816 9.357011381781684 1.5478146446170697 -0.35669094133740503 -1.4263467324168597
Ni 9.234916200747712 5.200119581625979 1.5564273201603263 -0.8523759766842417 -1.554391269393323 -0.023084392623289273
Ni 6.218617671103606 1.5002782875780436 6.734730971906865 0.5673501650923068 0.8559366974523067 1.7399920075177
Ni 3.303273177722646 4.203611120081358 0.1813498620608879 0.3368713355083166 0.4897100487103244 1.2046914146617704
Ni 6.277474938259275 5.611884004103482 5.054797969764507 -0.9809007957312331 -1.2517870825979924 -0.7349318409314439
Ni 5.0738565567203375 3.3114942793154647 9.351581271426515 0.6298295145734507 -0.9025184018665876 0.2385016998884667
P 0.3129920701436896 5.465786662191271 12.601463668904382 -0.17082666513899614 0.828177010840535 -0.0801597974800426
P 4.014225676861825 6.162115785930834 12.828189646570943 -0.9671235394414828 0.6717670353475012 -0.04748390451357629
P 2.3443144158204468 8.6374585554563 1.5184401924353654 0.44484815520062737 -0.1160498265084324 -0.8632710263301907
P 6.500499601381283 7.656710236677559 5.824313995371913 -0.6292569298994324 1.430768258523323 -0.12564132685160945
P 4.995783374005346 1.1198431737147678 12.792571542037276 -0.8776244668383851 -0.7236552395763602 -2.0661331010927064
P 3.94660165977753 6.177803175585273 8.469062384887462 -0.3709623636547547 0.586895434214086 -0.39067629714391433
P 4.508455751157562 1.0219083915764173 3.615354015145538 0.5775078223515989 -0.6356800598169569 0.81441466694912
P 0.4326763949472902 5.662783899695306 3.657946414824707 -0.03035932901814771 -1.5374111898955587 0.245608486136577
Ni 1.2462062341486408 1.1048196562022268 2.5705838677127186 0.11525201319748538 -0.08256583581837393 -0.11426111003912579
Ni 2.2244900412773227 6.15423116747843 4.793891670929126 -0.7160635432720314 1.1976049401286342 -0.2270299518034413
Ni 6.0228390482162055 5.796222200216804 9.491417298685347 -0.7052044890703403 0.3286065243963631 -0.9326293623193551
Ni 8.894177003314365 2.112695791409485 10.296284970555767 -0.6926202246474266 1.2723309681876154 -1.036377231531983
Ni 2.127128189891569 5.436285275501995 6.940692302154309 0.5849941034263151 -0.9572263349324289 1.3441624483076204
Ni 0.6635965894884196 8.893367624949585 9.018586642706051 -0.46382881006818827 0.8509947800659989 0.22501266426309635
Ni 1.6332255045973159 1.1954154682239788 11.467781943979665 0.13203900284783712 -0.19104993416440647 0.4878529408969275
Ni 4.055231149297689 6.8300348196527345 1.8444996308077295 0.9710514137409793 1.07870813108971 -2.7800227766418706
Ni 5.594132244911909 8.17774983253926 8.133871521615374 0.061504901383016654 -0.36461636683206883 -1.4654557826031793
Ni 5.541622686729455 2.8773946516256124 4.78876712364201 -0.5480049277964756 -1.0053195908952297 -0.5876299983872654
Ni 0.7085952983284949 7.435149729923299 6.862148952456631 1.0931515602085495 -0.6638033004157342 -0.4877752935814567
Ni 4.98115999860573 4.55219855941139 7.3142295116390965 0.3464052431406809 0.2903220269938677 -0.900773651261339
Ni 8.122039137453408 7.114417638136193 9.240268101508082 1.5230600633802092 -0.5935026551179585 0.5378033046731254
Ni 4.416095676183368 0.3031931354464965 10.65834901436633 0.6560722503200637 1.3690538122326616 -0.5209978030800124
Ni 8.125022015022484 7.0552420761179695 4.4669664705306165 0.4590133909574159 1.2908123148212542 0.7297862921747624
Ni 6.971121291014455 6.183959907640958 7.300174519922611 0.3431026611300091 -0.9689767906001375 -0.1448263844204925
Ni 2.493139999411691 5.189906863607466 2.486929611936319 -0.5786043978498875 -0.8429922214764966 0.1289778474240101
Ni 2.7295148584831 5.018755168942803 11.232284669315012 -0.44182016700758103 0.5935867301913326 0.3603007701758505
Ni 1.0327667934589684 3.3166779385056273 3.6341079484472103 0.18387835611663172 0.701664851348198 0.6318568294161248
Ni 3.843519595004737 2.8628531234763672 2.879114353297296 -2.379980979122656 -0.9924226803279036 -1.0610294828630242
Ni 0.9104597189879241 3.3334202482759587 7.986992993169066 -0.3107083039597036 0.8202819243631743 0.9381168677964876
Ni 3.738609608306993 2.321733668856985 6.920487853693285 0.4422806515837673 0.7622084172592098 -0.19873830394759967
Ni 4.346807431674864 6.929415569880973 6.051864811439437 -0.6926526205472587 -1.272840303723866 0.6699940026074784
Ni 0.6608156018035921 7.319554129982676 11.407579653676232 0.2832491793074864 0.6940453871297273 0.5032031981007528
P -0.11852573150390464 5.48316556168671 7.934218795543747 1.3809639334066863 0.4362349596103197 0.8329875448553009
P 8.56598771760457 1.4856094414837766 8.005108517917844 0.6733557199908596 -0.4167953628284693 -0.1805130391888246
P 1.794437305411369 3.2165150923293995 10.329999671811363 -0.6971523081898252 0.8216872893511333 1.7677714916238134
P 4.154275416385513 6.088626049236618 3.765785623671839 0.8396019648480251 -0.22330133799894447 1.905385931676899
P 7.101813161579061 4.1670708698601775 10.358296994506293 -0.05333599241897911 -0.31107031528481266 0.5303555901458286
P 6.40646620484395 7.93964708707113 10.01199309346161 -0.46267052809402903 0.6988232681343448 3.1726173738544197
P 2.5163027712666803 8.39858280817911 5.953236146500719 -0.20506733148942102 0.16781333223396905 -0.17410944965532596
P 7.016782962582536 3.9953735268597077 1.3965714554607522 0.0440378549465048 0.5180160947438692 2.054115250696224
Ni 5.340278450816829 2.8637898197861684 0.5596478532755876 -0.16224329434535928 0.8672775763864226 0.11517770831612421
Ni 1.6206392163180443 1.1746353607686784 7.101719491948081 -0.45264425420627846 -1.3964520017399562 -1.1634120962970094
Ni 6.794403983324566 1.0979899578657144 9.252712521220044 -0.4306983460628066 -0.6420042022627718 -0.14333257348378542
Ni 2.5451493799529876 1.6760770872359922 9.2175336635967 1.2017788690006657 -1.053683069800282 -0.2924413873297157
Ni 6.3125146555569875 1.9076957116469542 2.6927181535440905 1.2015484981574145 0.08813175994192564 -0.30895506871402273
Ni 4.244816663573684 7.02618630223627 10.774253815030576 -0.2113721906615263 -0.5810731711053541 -1.1812853770330043
Ni 8.250557508813717 7.195273627363798 0.42023470347700725 -0.12052277467812146 -0.5484965227209135 -0.003355546735794221
Ni 7.570907035871976 3.454472331574648 8.292342348955891 -0.6670290064418835 0.6628638193206003 -0.25177373440702444
Ni 3.1736271331350028 8.332477512296144 12.55559646979648 -0.14937543724375565 -0.06456374281399849 0.6273874807908615
Ni 9.283569844023798 5.00190372950531 10.466601823266647 -0.07154634477941871 -1.5797868266482922 -0.837006693317023
Ni 8.90693608023331 2.4525892339223323 5.938541836817448 -1.0506879917277 -0.14502718757738892 -0.5620837744870448
Ni 3.6921203700962724 2.7429559958218017 11.67053577142646 0.2800756666755112 -0.5900375793874935 -0.4491056449254007
Ni 1.1262545416604952 3.454390484324277 12.750111916786487 -0.3222217039159419 -0.4387536122671154 -0.439650670160088
Ni 3.3032368011669253 8.567488250528037 8.25576572217899 -1.2864712642437393 -0.9241516638656472 -0.34140341905071525
Ni 5.791593283501379 8.069320414075563 3.6084197342113296 -1.0088936813997333 -0.29831558672230557 -0.5208435368903352
Ni 3.085695903819773 8.156569582971034 3.601684614919691 0.7382480497888705 1.4444195307581706 0.9023708205451297
Ni 2.999456184345543 4.254647427757133 8.943037992958057 0.15211597610337027 0.35779574436580963 -0.8786829900098866
Ni 7.530019787242202 6.234396002147346 11.67542023344582 -0.7623783671781709 -0.30273017085023346 -1.1083370096997363
Ni 0.4878378040417631 -0.05225219405073082 0.02313458002430585 0.5141697244145854 0.8789038477714413 0.5783429166583847
Ni 4.482537455206749 0.44850656258293203 1.4857103864259007 0.7770154003650553 -1.2434209700214844 0.40992666073309403
Ni 5.976431657255857 5.675133740362394 0.34145308733936064 0.4898797415189693 0.828408924345683 1.4146628683210283
Ni 7.949823428533922 9.099959179024886 11.345594002728605 0.1557826263216801 -0.9189060991959918 -0.942862610011589
Ni -0.07950278135480428 5.091008102742523 5.770061090756558 -0.303253133233239 -0.8180265526700943 -0.154234822218586
Ni 7.966747621082856 -0.5770331186682782 2.529682068460657 -0.5048561603231434 1.7623140680536682 -0.19336778366430568
P 8.565014644739048 1.5905648988761716 3.7439969762091896 0.35656881393724393 1.2897815595638946 -1.565698723986342
P 1.8310503087439902 3.190560419822867 1.614486121917932 0.5070829927711331 0.007104729365581312 -0.4349671486414896
P 4.707235439891898 1.1714887886988603 8.489519650410744 0.27329978140425837 0.7104050594346734 -0.26454286114723474
P 8.596071129185372 1.733524762857495 12.43895959094836 0.7300583148892266 0.5555066354901594 0.2676592952890294
P 6.388096044205128 7.867585130188941 1.1316200836292598 -0.8920414135946637 -0.499366855073798 2.4388096192250903
P 1.8425362062127189 3.2883406015994057 5.973321461741758 0.833763246679061 0.8340666368520926 0.09397510609658008
P 6.9432750376104595 3.655643778847603 6.075384073540486 0.1317710938984311 1.1188587351666668 0.5758065233897761
P 2.33873970865629 8.589714326073224 10.312137873538735 0.4650932786029087 -0.8706503495133974 0.7070361429624403
