# total energy = -381172.8805276598 ev
CRYSTAL
PRIMVEC
9.21026011728601 0.00000000000000 0.00000000000000
0.00000000000000 9.21026011728601 0.00000000000000
0.00000000000000 0.00000000000000 13.48014666900475
PRIMCOORD
 96 1
Ni 0.9188311939624879 5.873281482239626 8.084920029843227 -1.2480003618620505 0.4702830503339643 -0.3424138625931006
Ni 5.752811281581164 6.046636995755955 9.998332201049207 -3.0489678806218583 1.3543172773534353 0.07912364290604439
Ni 5.143460480697075 2.6260109075947646 10.534195258505633 -1.3566875773578249 0.43087318107777406 1.7931282252210474
Ni 3.1621585620848585 6.420278822996973 13.494435448795722 -0.1420195110993167 1.7817755192123894 1.234574575374448
Ni 3.0259480271048886 4.209392753634488 0.4506478899845449 -1.360043124093619 -1.544576083075114 -0.46262476245775813
Ni 2.5688980854018655 5.705719222256492 6.612645234156966 1.9377566346981208 -1.3433042140723834 -0.43547057064046935
Ni 6.523406104095812 1.670299069557607 8.166353464563553 0.6771149299229757 0.07987697613230113 0.5788399108994611
Ni 6.78832081216457 4.613870531319277 11.943085965972363 -1.1001557594405247 0.2581403000550006 -0.3033096975027873
Ni 6.697802376990918 9.274731809103345 5.676489541154833 -0.07918174983748943 -0.05697975981915348 -1.0608497627520501
Ni 4.200302227025169 7.384464100224175 2.491225199835121 -1.9461502580784547 2.178414461697642 -0.019442167885011675
Ni 0.05870067101503403 6.872143388326089 4.122295930046816 0.2298954462766944 1.1130732388331412 -0.8903802238421569
Ni 8.572274489988645 7.950388525259285 1.5973160483773527 0.8654387234054709 0.23096373964020867 0.26471023996303444
Ni 2.3560766078319038 6.115446848135112 4.271844763543115 0.6831266833346945 -0.17833788591437671 1.5505150742673686
Ni 2.523030990655753 8.499292389834391 12.677862087389093 -1.659001743716562 1.032638590425157 -0.37674168934069313
Ni 7.1290359599442725 4.454081730767009 5.434629034864989 0.9216309543263225 0.5515417373051404 -0.0676763203010512
Ni 6.102893263769861 3.9545540699938924 9.188943763460136 0.6723699590388227 0.016294366284649357 -2.3632407835498395
Ni 6.283957764897134 8.02303905605393 8.183621781017266 -1.639632595161331 -0.09954308710266083 -0.8771285010385732
Ni 7.643005308380422 2.4680825795603107 10.693961954433927 -1.4214636932929454 2.103660665724519 -3.156765494423828
Ni 5.861096308273942 0.788774033681289 11.749726688785536 -0.4893259258980282 -0.44198086095516137 0.7805442394539203
Ni 4.499608045893522 8.974551015536022 0.2355929243672077 0.2579299838164074 -0.9492003793041589 -0.16179669372624392
Ni 8.769889828316472 5.922860311761378 11.654476022029444 0.12683560427002671 -0.0011909349843076263 0.2317124448807751
Ni 6.244961524102949 7.4394861933995315 1.1935400925037394 -1.3333797558698197 0.5484042201174232 -0.28930952656895337
Ni 3.1627388084641765 0.7535226845987048 2.3750267177596402 0.3021161914153184 -1.5052446324653432 -0.5606514129158926
Ni 0.9237614461346955 1.3711314045890917 7.108391162178528 0.28776095113491085 0.4164564914318118 0.07572053076176638
P 5.277423712239686 5.773313320317077 2.899201955289799 1.2956490740882654 -2.4562460695339827 0.551014918267393
Ni 2.213022849679974 1.8376218627810235 0.11132349146320877 -0.8710462994002354 0.33855797918212016 1.875125590130461
P 7.870765827652832 0.4902658233279988 9.590840826295958 0.06001340443915472 -0.22589763797121096 -0.1442571421805838
Ni 8.80245730763821 2.0868514980882096 1.1495666272114025 1.368580472140669 -0.5025190275495346 -1.000045229870168
P 4.68553556429508 3.233952538700509 12.86422525108814 0.11159384761960782 -0.03471220667020473 -1.8118738812596664
P 1.9158169700891539 2.9042344413478864 2.1286900251150547 0.2042440642571773 -0.5642540426654863 0.14805646132201597
P 9.1791016796357 5.571608626554054 5.744954929810394 -0.2734787301842838 0.2197331610317119 1.2101439531359095
Ni 3.8363495932927676 8.019493105958095 6.538612243337946 -0.33322114035023903 -1.091096991672366 0.22598942635406888
Ni 7.5959593003556956 5.672341240055706 7.879792803468225 -0.5564368606139126 -0.4595975455956601 -1.429074158650352
Ni 4.695731322103101 0.6041073998722492 9.507668494489677 0.12173402137740325 -0.13283064551119705 -0.158317734038708
Ni 6.6330450390069995 8.091664703233302 10.508515211603806 -1.1544543728830892 1.8612421472801495 1.8830265901450924
Ni 8.031512495243973 1.1727331941621848 12.222664328969895 0.9329996011745803 -1.939498299979576 1.3432185963371126
Ni 2.789833802022293 3.2120781712262088 6.224282648375245 0.2802278759826593 -0.33053048089195336 0.28665949054061596
Ni 1.2115175989766178 2.1631124507986126 4.2895579355543045 1.5302092728304808 -1.4006932935148135 -1.8677218414672219
Ni 4.644098604603763 9.090047675800328 4.666719003137187 1.4560964528754665 -0.1768836699663534 -2.7717921612019616
Ni 3.178875183965218 4.98127701254762 9.371923998665157 0.6502893250896994 1.0257788871908464 -0.7056942842225653
Ni 8.331923545311028 2.939675521786248 3.753587118056003 -1.1109032277650157 0.3700809894910658 -0.3754512526640437
Ni 5.200425938730148 5.0865502842239385 0.6119241475250654 0.8128439800278905 1.078825887614497 0.223288482483138
Ni 8.31260963011372 7.388056101619955 9.285475577380724 1.7223580964860208 -0.5543753500991937 -0.4921613384642944
Ni 7.949274083800594 1.9886056547836364 5.968833324497365 0.16522577401245092 0.3799439983280747 0.5926781023341342
Ni 2.553424848620044 2.757266322700556 10.333664872891232 0.5575730311008849 0.9953835627284406 -0.5680960421193959
Ni 7.561724763975917 7.305430859257029 6.147944329480931 0.7302884286221616 -1.995841454655995 -1.2003408510025584
Ni 0.12666133742318872 0.0395166204835729 5.1352891380346755 -0.5300059201158936 0.3910213391881588 -0.6538706146830545
Ni 1.7589478219534558 6.3351483899169905 2.0884927664182813 -0.680718331003518 0.5407916978774879 -1.0699892631594734
Ni 1.2344971976496195 8.344210032136594 8.622050419074165 -0.31644109267842274 -0.2866337795090031 -0.562645817638102
Ni 0.8882273420704436 0.4435440164548911 2.4414032194496555 0.07266991686090066 -0.23588817352501956 0.22448995899040688
Ni 7.437671772181663 5.69574451068821 3.156847926175097 -0.12542381152416462 -0.8408155255401519 0.03270391799092432
Ni 7.134433172297931 8.128478112410052 3.324244401478427 -2.197491790044067 -2.0850484499399706 2.226986199958758
Ni 3.363927727667804 4.6053049895293405 2.766598158121592 -0.0633165006704587 -0.19110289888952894 0.14218611858416805
Ni 0.44523778326690117 4.444300434658501 0.4786019500777024 1.3130960659201194 0.4413637961964528 0.5170287911299354
Ni 8.472932625745361 3.4742942731181374 8.327333151732422 0.3506097681403317 -0.5361935369838443 -0.23405317719880983
Ni 0.40959223505678016 8.499706851533904 11.014007436745915 -0.15428675850244394 0.8285202531125666 0.31384453559584014
P 7.621011207526262 5.273306726024522 9.97431092197143 2.9105502279411875 -1.1630171748514355 -0.07081615148161352
Ni 7.697658991156211 7.969389291616961 12.695251058248664 -0.5965352712966953 -0.35859021524264695 0.22087755904880024
P 5.7682476773230285 3.479405967412132 6.704701782748812 -0.4329971693993124 -0.7414835260070327 0.9185790548738761
Ni 2.9456161394792684 0.9903424155964712 5.4569786517547305 -1.7825473643814074 0.7782024786946211 1.1607492047528656
P 5.634717327999909 6.6728794134601985 12.506650722398245 0.3694071033524928 0.8529614168740665 -0.23860043024986005
P 1.633025147381399 4.71873855155607 12.18152301862423 0.42840620759452025 -0.047426568913079614 -0.9720492588778743
P 2.306101737130618 8.28835901556221 1.3832244759548837 -0.26346582603297203 -0.5017785498390843 -1.0053393883895718
Ni 4.389619121102745 4.332533929689813 5.019993261438134 0.7178633154849314 0.0013511147112557375 -0.7204853264888107
Ni 6.123597928225536 2.268809394434432 4.413818158198314 0.002528937069440806 -0.7570302154923801 0.3340019843803215
Ni 3.0904198470291417 0.5397193933138971 7.81937441896521 -0.48793058821239843 0.8750657049722735 0.6073950968293346
Ni 6.73559207372652 3.1386355580724947 0.3168937313436894 0.492928555647622 -0.9339478240204626 -0.9995914301622011
Ni 4.026587513369262 5.338616679607791 11.726932216338318 0.3331386079387617 -1.4706522392024544 -1.0202425307536493
Ni 0.802112332197618 4.637384325071651 9.89630094088908 -0.3755954915513918 -1.367829195796941 1.7491433349996652
Ni 4.995460812930956 1.3598580463623364 6.458984940601498 -0.5204789544620649 0.752541326483091 0.22208006399733368
Ni 0.580524529169956 1.7744302689952656 9.76566537628056 -0.7512562891230804 -1.1841308169015992 -0.3439400694296399
Ni 2.3525582885160374 8.446812328416048 4.299627512800473 -0.8738410885365531 -0.90075565353921 -0.9473934080024071
Ni 0.44599026150801707 0.1516542989298251 13.348189414531541 0.1795769005278004 0.47216149830359977 0.8533697080560787
Ni 0.3017087756995298 2.9114644954393922 12.07659328964551 1.2073890160985916 0.5322790324207866 -0.19435637282982013
Ni 6.878019534199185 0.6362641015984689 0.6414338205303952 -0.22320157919628658 -0.5296678200501845 0.06807689817357952
Ni 8.215192710208173 -0.06713266403512749 7.327524430919073 1.5006508424470737 0.6020451453713308 1.688657618909782
Ni 3.926057525587372 2.2496612639169284 3.6599408785900263 -0.33920949672319 1.8698018639247025 1.290286267114455
Ni 0.7294083818950361 4.537922727448507 3.260725843463054 0.3060052420570794 -0.21820669708485646 -0.1334705930880411
Ni 7.784870942993747 5.929491698953587 0.7388977127618874 0.5058547767909868 -1.968734571136874 -1.1597307907906802
Ni 0.676711879366948 7.0795860740623695 13.367883713466403 0.55332428312686 -1.1998942503834433 0.014823438166077696
Ni 5.6100154107089315 3.4852084312053146 2.4861706091530595 1.0946235167683858 1.7358872413207074 0.49261513817226127
Ni 7.865792287258675 0.8142017194594144 2.8483143478235857 0.41071856050677014 1.963001782418155 1.1519773720975064
Ni 3.458323682296901 1.3658815563952593 11.850774293178818 1.4314804540989992 -1.1730653031160572 -0.5103981731872952
Ni 5.224584450681765 6.711737500354546 4.894384656731708 0.3597436121207998 0.4612417660673024 -0.9603242571314624
Ni 4.778430246545941 1.8590080864758973 1.0792241875700461 -0.9750888170351465 0.9594066304131993 -0.6895855515861609
Ni 1.8374468678412292 6.585418784602954 11.186230088283574 0.9471141861990915 0.25409081257597527 -0.636000419270853
Ni 1.1835644599094595 7.442433476596069 6.30008124603419 -0.6414205618451598 1.2728567587840982 -0.34303478400655113
Ni 4.029884786445388 8.133902955543679 11.005205191274257 0.8963973765705143 -1.1674199319048217 -0.3052940749226678
P 1.5541669013540478 3.230388168084697 8.26171189136152 0.4562610250232594 0.26373810585775226 -0.19190431174490175
Ni 4.079859657146674 3.014812822777971 8.132868643346894 0.1824709342461438 -0.44499059431576266 0.834903273820775
P 2.359696240007651 9.383320774375768 10.085239293281102 0.8003401911339248 0.7467959393588816 0.7802984419917013
Ni 4.9918780217951655 5.610549605788304 6.913131808355932 0.9238179346753123 -0.18823149087900484 1.5218434173642887
P 8.07294945493529 3.90329897315411 1.7687567488419313 -1.4333247063965895 1.875165699339777 2.220621948303627
P 4.216199135766492 6.976265377503759 8.446214582542751 0.0250667131606407 -0.33182477422334467 0.5103768330310565
P 5.715546569664945 0.6629554350471101 2.5486235400876853 -0.6216708900220583 -0.7437543243190803 1.5263934986288163
Ni 0.6389931016332628 3.504292089902894 5.867502965122416 -2.2241371605457374 2.2468978512810205 1.303362383572123
