# total energy = -340890.3111483096 ev
CRYSTAL
PRIMVEC
9.06903855556654 0.00000000000000 0.00000000000000

0.00000000000000 9.06903855556654 0.00000000000000

0.00000000000000 0.00000000000000 13.27345463853540

PRIMCOORD
 96 1
Ni 6.339693202688906 1.88212476029348 11.46993671462903 -0.07145121396245115 -0.4614726511311859 0.32212965842276775
Ni 4.569289927277615 0.34998417040644975 6.05309344903626 -0.007803298094502691 -0.5551785627267793 -1.2108474069608373
Ni 2.7135469998863417 1.5323591537140995 4.448319836966182 -0.23349936157786885 0.06608917831958941 2.045476344074303
Ni 3.2792010671866025 4.505289722811862 4.908390344619114 -0.2386917044120857 -0.20549516305545898 -0.41849460490776313
Ni 5.239110970416566 4.464796466054092 2.8972766502011624 -0.6874224824965709 0.44730253027839095 -0.40470732131568365
Ni 7.392690190121824 5.893813926430051 2.153352493743568 -0.09443584778308252 0.6020042648310664 1.5683811559145115
Ni 4.714730097182288 4.665222216187737 11.067326727802875 0.8641030353131828 0.24233855713605362 1.176801630230038
Ni 5.695020603220571 7.636783360476896 12.097333702720462 -0.8898716596368547 0.5630109142870046 1.9571304112390424
Ni 1.6527687774482356 6.751481963348105 0.5668665977433767 1.3834440195160624 0.0440270563132274 -0.5915087646163814
Ni 2.9134376767504 1.915652995508145 0.21948614828097082 -1.2360552736850325 -1.374921583867348 0.7341250287594324
Ni 0.5326300706243936 0.015873538029815396 4.6637874943021655 -0.4292891244201058 -0.06954679785088667 1.6463616863550485
Ni 8.60368796573702 2.5008236335906497 1.4710705917501545 -0.004649325846553283 -0.135361896573483 -0.22669930793689994
Ni 7.062577189901702 0.7336824913161496 5.051000974521901 -0.9242802190237114 -0.8647008167981818 -0.5250956272984698
Ni 0.8191409477000571 7.625628443161764 2.740397702077323 0.49516001608130206 -1.4880395814409664 -0.3423357010569975
Ni 7.624739677391942 3.9671601872607245 3.9036034587760366 -0.03384548779453526 0.17742874383654603 0.26211522554234856
Ni 7.550237526380724 3.763251926355526 12.665039186522092 0.6201912201527384 -0.09494235510585584 -0.09636520359531145
Ni 8.204514237586233 8.783599550856987 7.172961898513768 -1.1502447056771157 0.1440098020564681 -0.7476536593734866
Ni 7.059520923938125 0.6763861200856361 0.41003027410033516 -0.2965538668361925 -0.17695463241360493 -0.7712273329283686
Ni 1.7347347471182761 6.696995180234851 9.118744053618926 0.9219279167414509 -0.16586289337581755 0.37802364137691025
Ni 0.3173927668654866 4.855118812660517 1.3004067051555852 -0.1933058200781187 -0.09451863730487593 0.5472112282505867
Ni 6.409524798889317 2.1740117633727283 6.960121541621844 -0.7921473709104874 -0.5647741768350144 0.6087292422597259
Ni 3.468227035966493 4.2354948974396525 0.5043927124517185 -0.7066113967201959 1.3115145803656123 0.21495733690962332
Ni 5.98284467706634 5.78852238982138 4.872565828864459 0.315329861892115 -1.3137159588923053 1.09812715904627
Ni 5.334018457979852 2.7675440549223476 9.44813787908857 -0.21131356950944896 0.2081169169490222 -1.4021485379041012
P 0.22277820924470446 5.671005789358403 12.47386204181769 0.5178679992017791 -1.624804786119879 -0.1821426043724476
P 3.8186546823540075 6.134914314090818 12.720376645443606 0.5414856386207191 0.7014643053016177 -0.12305453996103968
P 2.5446361584275565 8.615432370552545 1.7127931154497988 -0.2083406029240541 -0.03566685727399018 -1.6628779388425168
P 6.672227636179874 7.776482829031586 5.868379808047707 -0.9943908597978681 -0.2608019060475637 0.7844240341243006
P 4.715274239490344 0.9608918327561164 12.639381969793444 0.9920789238352398 -0.45657289983672333 0.10701908376473182
P 3.934112611084842 6.277706324762957 8.265459989896103 -0.12074363243967592 -0.8663362955190758 -0.10593639222351432
P 5.044834028363944 1.0048494622085047 4.128389553137465 -0.2601647866841971 0.7971039435848143 -2.351534550856505
P 0.21520374831657682 5.4351473059319 3.4837505091114593 0.3559183248374386 1.3397936298159634 0.2112698607557071
Ni 1.1648273007767178 0.9243073315778754 2.655620330482331 0.15905409798410025 1.9285186610396203 -0.8961150694434051
Ni 1.850754956234101 6.653237069628749 4.8361563601286415 0.5448879794340487 0.06364277366162588 -1.1145174274788352
Ni 6.064783439620978 5.6206272806709645 9.205286260099712 -0.8086949908565233 0.5358382105269547 0.1373439600005183
Ni 8.438522637165349 2.4992365518588224 10.438974769960808 0.9019740993273434 -0.7177458160704606 -0.14801969454680958
Ni 2.4087638241061864 5.222396732520806 7.093825468845615 -1.7640405638264718 -0.12359575717649036 -0.05610224231020661
Ni 0.5592386294882903 0.02355319980416704 9.002017366406477 0.8203333464264 0.15421965270993437 1.5580970003796843
Ni 1.4855266390674864 1.1999063415693398 11.44933639374991 0.21908704280728075 1.0350168608493466 -1.043103751622539
Ni 3.9989471670896126 6.876770729777803 1.6115699494976872 0.9405804988456317 0.8319812150779735 -1.0569630261031344
Ni 5.560644660246352 7.766642922294256 7.988734605326964 0.7686575153186632 -0.3287739032121628 -0.33376158623474134
Ni 5.195234962310385 3.0161082612419388 4.938441510485307 0.056994157996856684 0.057794285300648854 0.10407234243158206
Ni 0.8346952555758136 7.220523563853176 6.831701236209289 -0.09855449793714639 0.4990750348649921 0.547983844750553
Ni 4.647646419637556 4.600496488644578 6.8889894453051825 2.1543715618158252 0.08159807258846592 0.5471042703590772
Ni 8.34805897845118 7.1837214057517125 9.397792018939613 -0.4875534073786377 -0.33593853928140205 -0.40459367855595485
Ni 4.539135374372893 0.05082198466850397 10.657176742394768 0.5790011190676738 1.7895384509872598 -1.1866710668249498
Ni 8.116562702527585 7.095017140500255 4.473286899867446 1.0880561479635134 -0.23787332227584837 -0.09626313079980842
Ni 7.466276368247814 6.217279321453433 7.3569318783479805 -0.5719804647754665 -0.72599828588724 -1.804932416944827
Ni 2.386617232168342 5.398998118600104 2.63179415262029 -0.944084141123516 -1.0053568718910684 0.04108674273798085
Ni 2.3545309740700233 5.303918319305933 11.444983255285468 -1.5746014257926109 0.13420155771679468 0.25644311485823573
Ni 1.1143853088200057 3.409740806889032 3.8972451559064125 -0.5321594761237868 -0.05814832620595792 -0.6486780147385216
Ni 3.873331915275082 2.4790579412684437 2.640554843779978 -0.4341734490956007 0.22026126562104 -0.2675808766426101
Ni 1.1501626655746315 3.1193501951569353 8.10528898080853 -1.0307395736302314 1.3114922117681092 1.20381081182903
Ni 3.437791342869275 2.615420003667064 7.238399545576634 0.40971505894292015 -0.4925614021161904 -0.4984263455373997
Ni 4.1057441640839025 6.878711504009868 6.009543019411066 -0.1531315618520782 0.7049656335866569 -0.22054023031403952
Ni 0.9264929698485636 7.474583607484123 11.476082801998514 -0.1263866896580662 -0.25668685543792563 0.1294982387038544
P 0.2181602548570098 5.402045315525212 8.117686356393719 0.880624944227606 0.10191492976894705 -0.39358472903996083
P 8.434731779085897 1.6659914355339758 8.16245747859665 0.4520621564505634 0.6054587990385703 -0.4884211546955717
P 1.8469096839238446 3.41662420708593 10.602158513627312 -1.2115953408704552 -1.9247190847878721 -0.2452361903988228
P 4.081647728875528 6.253210851862008 3.661999739480318 0.13185645452338582 -0.5398558163267799 1.9272410798787778
P 6.7863977614483115 4.099241663502644 10.614263866173847 0.17243668993859335 -0.28361787550081474 -0.22842374682717434
P 6.323314519216447 7.961055899923893 10.096161488270678 0.7082167935341029 -1.854727486090083 0.13919592560759256
P 2.3831982046660625 8.657050188080296 5.807494818295569 0.2232661138856348 -1.0549912470887444 -0.8797052606268139
P 6.727140664101106 3.997586811319475 1.4138884904043327 0.5870260462546792 -0.7611660920376245 -0.15388566640928336
Ni 5.113169233217202 2.687292133522681 0.5035547332973136 2.052254800448717 0.3210585368457761 0.20495446006064055
Ni 1.4021640374734379 1.0571324689741368 7.021391965508854 -0.019239050735270092 -0.6941842267004368 -0.5142697403275595
Ni 6.675900596759246 0.7118877780708474 9.035359686332557 1.221408213195819 0.22404053015781417 1.4082019431870327
Ni 2.986697369491558 1.3244967920370332 9.37794805586869 -0.6761566797747645 0.9832464131452743 -1.3643728618172246
Ni 6.369711720016616 2.171372673178661 2.734039399207699 -0.6140149161386974 -0.45854647862332637 -0.8380644451575762
Ni 3.9297413345434657 6.878312466317293 10.43836442367194 0.15302460396056872 -0.0960157906756927 -0.48638741209499464
Ni 8.186484989112671 7.20840732846048 0.16945679757453386 -0.1105990878065063 1.2287507696038193 1.0827900144685674
Ni 7.524653768863664 3.6845326724568817 8.469711967359222 0.6181739326123934 0.7958155637906938 -0.5379490862223703
Ni 3.0004188246930155 8.666092019432478 12.430151997115466 0.46286541771365447 -1.2949281367618408 1.2681706661623384
Ni 0.00823468692856789 4.8555359884300255 10.220334762968863 0.63191956433326 -0.19760444745347258 0.5692779782426389
Ni 8.594618927269435 2.3999487187156934 5.907377580362173 0.2672358345983656 0.704173990923297 -0.243932898206367
Ni 3.7636509640480997 2.5519548724708985 11.192854009944272 0.0533403632943533 -0.3479365921835427 1.4500674730725673
Ni 1.0504304495465908 3.41587147689312 12.873671509565055 0.16494603798850302 -0.22514224786242515 -1.347985935818769
Ni 3.269751129103378 8.51646195375578 7.8487657863297855 -1.9794229040886553 -1.2217823087057864 0.6379215475529658
Ni 5.920222966447661 7.643585139327584 3.595805734609256 -0.6282372303856665 1.4773522769304492 -0.912968650665634
Ni 3.5445611327481625 8.506449735287566 3.6245817936669056 -0.306002413843602 -0.6993552293784149 0.9224285105269533
Ni 3.2352252996572792 4.159596114504427 9.18480565052836 0.6156933322823849 0.6076714904191728 -0.41334314261381067
Ni 7.418754606677664 6.2146855764517035 11.430661429737459 -0.30192618689169937 -1.4144296692642995 -0.520551202460897
Ni 0.8481890779117345 0.07723646610919431 0.25437927378500713 -0.4104874183325705 -0.4662821567046873 0.8754292589592794
Ni 4.9724540323541415 0.27924657726312735 1.6680355968045695 -0.9094621801742724 0.03777233365276721 0.0658750054262543
Ni 5.834547760044378 5.612365386626994 0.16375962760919646 -0.03380769257806436 0.022628278922477155 0.4106740804220798
Ni 8.026398322082848 8.656206767502809 11.318354084970263 -0.47441249912130556 1.549266803682564 0.12485019840888174
Ni 9.200086073442398 5.061811268375264 5.764926565536415 -0.30377532428529613 -0.8322504095789602 0.18090307553839166
Ni 7.94209254048817 8.85687738167508 2.5421847973297687 -0.5537940236744269 0.5641815375563382 0.25392780463554976
P 8.236346562607459 1.8204099535215588 3.568687495783481 2.2481031844430315 -0.783850678119334 0.8755117913707566
P 1.882850283370887 3.1457138899822072 1.8158482271723633 0.14143407090949192 -0.10023497096336285 -0.742516081036605
P 4.870400142478398 0.8229844062026199 8.037873376455885 -0.7797757367190119 2.7973710381123307 1.4425608802828769
P 8.704907504073745 1.4590269086652006 12.41304234914252 -1.8960985928377023 1.2266923444128939 0.8032866753567586
P 6.381347296370527 7.69619463147805 1.3776912371686576 -0.03551387663589368 -0.04111219665927759 -0.7806519686763781
P 1.6477173230217903 2.9275400315674958 5.93672498884328 1.4417921204376525 1.1217291147359263 -0.07439024198611704
P 6.824923036858616 4.170787307973428 6.146207080790657 0.31740139970916303 0.1057569292228566 0.19833875451633584
P 2.341562249061376 8.544367385120541 10.298249593155433 0.36023263594207633 -0.08214880288561335 -0.9237919665333834
