# total energy = -340870.339263324 ev
CRYSTAL
PRIMVEC
9.26346019340694 0.00000000000000 0.00000000000000
0.00000000000000 9.26346019340694 0.00000000000000
0.00000000000000 0.00000000000000 13.55801035795490
PRIMCOORD
 96 1
Ni 8.631053120061752 7.353214353729197 7.290495169485364 0.541807283626196 -0.6336159781990766 -1.1533415994348846
Ni 5.882528871066021 7.368174842098587 3.4749990797910875 -0.06276268504951772 -0.9047436916526805 0.13536112524253463
Ni 9.376196602380842 8.055514332204059 0.9183164616844409 0.9010464453067514 0.6503320054021768 -1.3130371876577256
Ni 0.605634843995966 6.13837638083331 9.033241070116516 0.9281168191609822 0.17905496658605938 -0.8148129308288031
Ni 9.09410570961016 1.2765881991933188 8.745120591042653 -0.7855200954019568 1.3612343161882425 1.0946348296222954
Ni 2.210150463824101 5.218412875909192 4.8789589316347275 0.7336820276847429 -0.8403650682662946 0.37366202197410486
Ni 3.43738294658887 1.0248166119539135 10.951875996670232 -1.56852539480186 -0.445725158488942 1.0481863083517688
Ni 5.937044334876459 4.665152710050497 4.715205038692903 0.26769220540949384 0.5380871544621314 0.1494839377971619
Ni 1.842956161363275 0.1169178377123305 9.394956035815426 -0.8381963427497501 0.4658818359424751 0.5363115506189473
Ni 1.7817617426832826 8.595564803688296 6.920727477755798 -0.4780030446860413 -2.229206604648845 0.805379039109413
Ni 7.2598294105392185 -0.13338734376306596 7.965561501051764 -0.936482417516858 0.4053634668424438 -0.2317376416917557
Ni 1.0828521906747963 7.062656658252867 12.47936223879755 0.40163948102363733 -0.11623057506067079 0.7052026892981275
Ni -0.07276355423697727 5.856229907300884 1.5031085200264585 0.3480957434692263 -0.5244808765326064 0.25491433691853516
Ni 0.29999345612838024 3.6834389788289488 9.126276780853537 0.3538465299100745 -0.47611071275933486 0.8991751964259675
Ni 4.878666206289544 0.9114003622314464 13.435473618467816 -0.2493630680830028 0.4738175458497839 -0.47085537789766657
Ni 3.6671167617968345 5.8590830530704014 6.721966968375631 -0.12550762948722255 0.15149608313118426 -0.28259303378072625
Ni 0.5316475866545947 5.164360585113287 11.323081377436909 -0.6599674716094118 -0.9808887115463752 -0.36161588944284817
Ni 6.518307941193771 5.598279592047619 7.703499135775482 -2.4310957955206005 1.1615724719851093 -0.8886640124819987
Ni 8.158801914444737 6.97895203106661 10.459706498736274 -0.12897733320337787 -0.3347082664187268 0.9075665058134563
Ni 2.0901238088382303 5.551712177166553 2.583058468592196 -0.05339821311548222 0.4370569412909827 -0.5772329714236575
Ni 4.060285806912625 9.136819525010319 3.5689704000174642 1.0330191136930273 0.12483477178991405 -3.4049605103406586
Ni 4.98928118562012 2.2886027090255627 5.750873794377306 -1.2257209816385601 -0.014877945553096959 -0.9602124141439464
Ni 7.2446095452816905 8.758712866327114 1.288235147816745 -1.3344889297735985 0.7887131484179579 -0.07244031734859781
Ni 4.529961770568843 8.150020154089207 1.025642912611839 -1.0620368410816161 0.6296030003849414 0.5468597584484388
P 1.1327451878002033 5.942148501496604 6.7189572701272 2.0754008995478768 -0.05050443650745495 3.0881784893830493
P 0.9198699439751818 -0.049012968397795856 5.101703466053401 -1.3927475563051754 0.48603568518253065 -0.5185529410839457
P 2.8906349933144972 2.8497368161313057 5.572979229301813 -0.3624946925033757 0.5174409389666895 0.09575482370482219
P 2.189150199345212 7.434936600413256 1.347047930856013 0.638387688556107 -0.3351276133443325 -0.43314655049298306
P 5.1513917407063845 2.1968018175452837 11.520146673583886 1.3453338429079025 0.019293043901657096 1.9899513144238048
P 8.542550020444944 8.281718769041289 12.240212116204145 -0.7474173749929643 0.03346676429887785 0.8728820670573935
P 2.6888490378034056 5.333965279574682 12.013007225655528 -0.11480129881331196 -0.6823491817387216 0.37018820449289147
P 3.1422491017289613 8.005250796667028 8.562832366751307 1.265544541393401 -1.4780534167625319 -0.708751068771018
Ni 5.079257175423142 8.010317909446009 7.685100977292235 -0.2810783969084127 0.02738276288832704 -1.4220169946932544
Ni 9.024129530574639 2.2633597797335585 12.820956042399153 -0.7553296878615057 1.600522773644063 -0.7241614897888173
Ni 2.2793855660363724 0.3293419510211977 1.6088481402060693 0.5619467346885484 0.3647690903598492 0.11654296409476703
Ni 5.680928184760742 9.23454903107661 5.508551862980386 -0.36437031225953376 -0.1931314992837835 1.7665918694934155
Ni 9.32867505108984 9.05091945773518 2.9982726965076614 -0.9554191065203611 0.79194065421632 1.0394651264286874
Ni 4.44948082756373 3.4610603510917555 8.022966238126854 0.7221660566253434 -0.3013867694484616 -0.2767697422307298
Ni 6.564301021536816 3.624273257952607 12.490560835942908 0.5256201323433721 -0.08292244782684428 -0.3201298543839196
Ni 6.16212789301852 6.564791984932221 0.6928549543625218 0.3608191045731657 -0.5694258166744128 3.6007078499807346
Ni 6.7606863796984635 3.1952638849723156 6.613353822813862 -0.6886915790169816 0.7003443327645617 -1.2774400072794065
Ni 5.35825407245675 5.862038096903117 12.298660845253991 -1.023604762357663 -1.0114149051596903 -1.9857802137652507
Ni 8.365729090417137 2.1291229766618405 3.4352884782171555 1.017522046498693 -0.9511898989303617 0.6315009887386027
Ni 6.277004064082793 2.6767509586638245 3.485547382024043 -0.5302640588732868 1.5896300379909591 0.16158072106069593
Ni 2.7331283779926823 7.132503148844321 10.48915503900023 -0.545762411619202 0.13006362428902118 1.0294617353590723
Ni 7.400587689655549 0.287397929171192 10.49063256091659 1.1731203247237088 0.3434518169393117 -0.4696392461023783
Ni 6.708181086771095 0.43804773118587254 3.6000317087180216 0.39441776646421756 -0.5663865156274568 -1.2955703983315299
Ni 9.30347843909929 6.043796451265837 5.093296875839642 -2.2479548317906253 0.43026948605550414 -2.713749507335933
Ni 7.920138123516593 5.969308967068772 12.955234531042178 1.0178102671630729 0.11211655289229723 -1.3745965964277618
Ni 3.714082505470398 5.738509853927383 0.7157088372455689 -1.9852053150983875 1.2034104910668177 -1.4900103320140918
Ni 7.173114158758502 4.698417795954198 2.1835448795233434 -0.35618649089716076 -0.3586825178461371 0.11143161101013067
Ni 1.929458353557306 7.890661792871764 3.6562701761425194 1.0883443686278933 -0.9145095127901927 0.08779263143495201
Ni 6.379013288803361 7.931986089228325 12.537173641779397 -0.09220027358434445 1.8990188518082909 -1.4209561575289076
Ni 7.219449987132302 2.218793272275272 1.1093354972997176 -0.5695548860531094 0.559154516655392 0.6458418308413071
Ni 1.7291082343912638 1.6158346419572727 3.8016120154106616 -0.40474640208373525 0.0505939108974677 -1.0648503992710112
Ni 5.194967057913574 1.3966055907188988 9.644408978944083 1.3661947455173116 -0.38770821565452585 -1.6109285423584192
P 5.426664726703153 4.542272909295107 0.7039877809398174 1.1342750697217368 -0.560454466413738 0.06697903712371045
P 8.379976292344146 4.025862788472593 0.3019165504847179 0.17644683953925097 1.1904613871053176 1.0519419187394592
P 9.109131042201584 8.468368230437468 9.070376429729647 -0.23792294456686122 -1.0145765907171238 0.7033368397339823
P 8.20185847787565 4.333029868250048 4.18697103715541 -1.1122137190463233 -0.9020905703005495 0.4828511168069619
P 4.178922942854899 5.862121468045733 4.110734611655471 -0.10915644182270878 0.6389818704966801 0.7399061542175839
P 8.050326794441299 7.28575783589273 2.784896299480916 -0.5078000734428157 -0.255042120745651 -0.5772537973592639
P 4.307360819784674 8.156773216641085 11.659875782261928 1.8250667258008568 -0.08440803123343528 -0.6711263164397087
P 8.334937348411037 2.876971389385798 10.910402558602993 0.24761600348490906 -0.21833293825007563 -1.6206185159526736
Ni 1.733035941554497 2.9796939005487455 11.47936428965433 0.3753255257194568 -0.2922611529981095 -0.5762356405073947
Ni 2.57580703187668 4.684189120947769 9.917887632682554 -0.5783313466941589 -0.7660303621084613 -0.20765463260062303
Ni 8.467321459424625 4.769811284414189 7.235422045365429 2.6058932723818864 -0.12162166416925506 -0.8249335642025728
Ni 0.6792348886971884 3.153504205982094 5.286498382699395 -1.281662015780554 1.596446289581844 -0.6395349147866728
Ni 3.8933304620943536 7.7557487571988295 5.234544265659319 0.02001963765503649 -2.5745319844617858 0.9924800159284005
Ni 3.14193414407908 0.6354326167128796 5.428084815165708 -0.5244831905254516 0.898096361539492 0.48415775143352746
Ni 2.7118872635462363 8.82702162251032 12.779997652724072 -0.8068409683669201 0.27064306050770165 1.317602181320589
Ni 5.971819364807536 7.8741820970147085 9.80133014357553 -1.2125178526847245 -1.0055047103228425 1.134719099237691
Ni 3.3214692679720454 1.003408755222236 7.730615136738255 2.7185096477287374 -0.11865049735607308 1.567301806807404
Ni 7.919202514027238 1.0615277050857346 5.553103548902207 1.111849136618053 1.0405025665542662 1.1021308808890244
Ni 4.270797942017503 5.877295016001807 8.936410119698415 1.136512700803004 1.20344288696665 0.3850916039672852
Ni 7.858582429885265 8.133892469723197 4.883405392574237 2.4703974213337 -0.5848853457625927 -1.452312303242686
Ni 2.2222855968048445 3.9855852631288746 7.483615157894559 -0.8510796264703214 0.5585706191274639 -0.7901912756253809
Ni 4.128696461159029 2.1658155428730805 3.332599315511254 -1.8008304789613117 -0.23006796729881665 0.16016070078471772
Ni 1.3707790634285841 1.67796467012662 6.9547030710637925 -0.9440890262195224 0.11665814951639265 -0.45681998285052294
Ni 4.044250757149521 3.4112507251089643 12.972575728706262 -0.9900302688363273 0.5035119875904231 -0.3160842235596363
Ni 0.441767936838595 3.722234350526164 2.721377678614001 0.5583258501065094 1.315802923328321 -0.861848177840735
Ni 7.1103449518291 3.482551578966049 8.783584330861464 -0.29319677743850153 -0.5061980190630185 2.7514706760357903
Ni 7.140516041995728 1.0134503461772937 12.669933849280786 -0.4211510686940037 -0.5505572619046841 -0.35402007937346125
Ni 4.857804893715014 4.017914739543221 10.293187462897691 1.0501362329892883 0.08032126275857135 0.9707714206067153
Ni 4.193939011986032 4.375076714509279 2.564714964524663 0.7984658569293475 -0.3936780600847155 0.35921216509736204
Ni 0.6779546784850213 0.5293965658039682 11.581266058235526 0.15385044229597375 -0.5097728808984705 -1.104402964752653
Ni 1.3872772862062206 3.9729962205938896 0.2646376072370804 0.4111011406571694 0.08970193264252292 0.21483392395788165
Ni 0.12529015312301428 1.3876941419192994 1.2638750262904392 0.8822696789198805 -0.3230028050563405 1.3930378338520848
P 6.635231336982276 7.224544890292155 6.133332426705054 -1.6103729269652653 -1.0830478961156444 2.045182466982968
P 1.7672181100269722 1.6185210454415593 13.209501694483883 1.3408485534430392 -0.4718072002879745 0.5687095073336788
P 8.64424428751563 2.579845900563401 7.087436414530338 1.042977767567636 -0.23435451048931252 0.2264691942039648
P 2.3558832211165077 3.0548390904264475 2.1088804632347258 1.0219062916093176 0.1454046255214657 0.21724973248822585
P 5.510610203856967 1.0215558739316069 1.9908315570209079 -1.118591854658525 -0.45566889996521526 -0.7724550346878826
P 6.59587089420733 5.4873496550671605 9.85458577678644 -0.9963112167490326 0.051534677544182214 0.577077933903032
P 2.4212647238478713 2.4802451755184 9.230131286864001 -0.11704047255647584 0.26393890901464867 0.25584199093912713
P 5.500939151313535 1.1431758440874682 7.599712253025139 0.7281305017388944 0.45031869139689545 -1.9690801274017509
