# total energy = -340877.2381413933 ev
CRYSTAL
PRIMVEC
9.13413697039566 0.00000000000000 0.00000000000000
0.00000000000000 9.13413697039566 0.00000000000000
0.00000000000000 0.00000000000000 13.36873274888604
PRIMCOORD
 96 1
Ni 0.4357293809196079 3.8809303073551327 12.194115544295938 -0.5204257326266263 0.09055425334048921 1.8294347729615656
Ni 3.0393018094427493 2.2420926187372325 1.8371845555861077 -0.6541297818817122 -1.792771356102261 -0.5270640638787503
Ni 8.53997945952593 1.3277107212972543 8.931489570834358 0.4869551116730066 0.39500372087467456 -0.003378172443613537
Ni 1.1906804011826304 6.0438390942650315 3.6645033300259806 0.8509287027147537 -0.6123622110266228 -0.6077221411514502
Ni 1.875676721430331 1.8678944368857595 12.416170063301042 -0.23584497899190995 -0.42828459441499145 -0.31515168444303787
Ni 8.332479274081061 6.789842314129154 12.961267031068568 -0.6138974167242265 -0.21424025623794074 -0.8782718706143972
Ni 1.265625993539682 5.2125687074718305 6.326939789674752 -0.25725481212625373 -0.8110552635585838 -1.6061519469053822
Ni 2.663587360884235 4.572594547459097 2.2830583088240264 0.3907089501540626 0.1103391492769003 1.2516736969485798
Ni 3.5235298030593714 5.167108108670972 9.69751847219557 -0.11675173767146345 -0.44272056733466336 1.133801472519428
Ni 4.770184194487463 6.629793969305235 0.211973172230639 -0.1803636580951539 0.5814601221311276 1.4241952332914956
Ni 9.249500937053178 0.6030649400741134 6.420761989120783 -0.053531910479869105 1.4945300742613166 0.3469145786769316
Ni 1.8948675428248665 1.0707309168641899 9.963702746271315 -0.8798009056644139 0.9540350816886409 0.3208975857878796
Ni 7.663038388785715 8.45719677780357 7.873809508614868 1.7280358635970885 -0.33470158155050744 -1.4125180540638835
Ni 2.699091750584645 5.579888884320883 13.248895518084794 0.035539330557190406 0.16707491140604777 1.0339966471149482
Ni 4.827373024925916 4.555614187167597 5.51515068982599 1.4015466426540444 -1.3064168541277308 0.5885501962086896
Ni 1.2752442395789234 6.11407147203875 11.540745259267867 -0.6897994673691797 -0.5095790197201094 -1.593798824656668
Ni 3.550512043135268 2.4042966198434517 4.158585230411011 1.4513478824468875 0.17059732273700942 1.476453933485896
Ni 0.8357324126148237 8.839533475534402 4.152141096906087 -1.144544569968545 0.24919954592194507 -0.09441913561253418
Ni 5.656231999606714 7.653876849585943 11.690328623572167 0.7142897392010602 -0.12307150924190419 -1.0001215916340582
Ni 5.597618243829115 2.8947175582032894 11.368783259829529 -1.0380515339106122 -1.8828841510299572 0.36388437376205074
Ni 3.5962101294926514 8.27467845647772 7.819853249186186 -0.3611281511731522 0.3823310105030125 1.891001123710137
Ni 1.6565305115789735 7.793720483831703 6.361658643611272 -0.7610300806803926 -1.6602595273830634 0.6048309356465841
Ni 4.104780597653033 7.378281674376075 5.7915085654577725 2.130859080516182 0.6125128776718741 -1.9633751065971732
Ni 6.702200271634832 4.701714705114099 12.727942814092698 0.01099300867639397 0.46021692434721384 -0.9377623126705463
P 1.956413356511864 0.5821057497971491 7.401638575560257 1.4771095647920238 0.9960965296350651 1.6798099387111651
P 7.394522169587634 3.3386640085786436 8.398251452860515 -0.4322482070484297 0.32030083274414517 0.5487268935641646
P 3.5600754843537734 8.890237068852379 1.0609747453594287 0.01264854200194596 1.0132231620130228 -1.4099369236002686
P 0.16545484038956731 3.166704749381343 5.98591679264239 -1.0017321306542877 -0.6018569406199248 -2.120574667871038
P 4.752683188398968 5.650989005089596 11.732867212014096 -0.8399873732119018 -1.084630410111416 -1.1655376272804443
P 2.249527806083807 3.5339061824521334 0.4419890048613858 -1.1704767164532743 0.6873268374589712 -1.815421489401609
P 6.807462063995913 8.45216386843261 0.18237126172354173 -0.6293404907521742 0.1339135941627307 -0.17021859924135202
P 5.68628330964385 8.377044727476559 4.331095278056713 -0.02808878781641614 -0.5965658674243145 1.7838262310938313
Ni 6.83242565984135 0.6136514046130314 11.593792672086005 0.5982766794678341 0.27833940071069485 -1.2483284346254309
Ni 4.119532228567919 9.056615370471354 10.346636816548175 0.7935460510302269 -1.5584476988508837 -0.8549622493541792
Ni 0.009195335505892016 4.033981903398369 3.399174011153723 -0.44481833040395646 0.2409787006740495 0.6048623031051519
Ni 3.705865441649435 1.7450128946579206 8.744982371972576 0.41306983434776606 0.5394572953367807 -1.4533137479240066
Ni 4.853213497903137 3.371135864864972 2.6881983790496027 1.848207425583378 -0.15291713184842698 0.6708530081736639
Ni 6.8426467589086934 -0.18775126829250008 2.56868185281498 2.2650598669020283 0.7184652107349885 0.24761626059522518
Ni 3.14011527718739 7.966392205698578 12.338417550708607 -0.46698278231613766 -0.3344290446154111 0.06078062162248241
Ni 7.3635209093244 2.1059026392072338 2.0964844307636805 -0.8893582103355459 0.959090127614045 -0.3594031980622455
Ni 2.3415542342370426 2.956911895602334 6.220163557433987 -0.3300162602596961 -0.295339277702801 0.24503590146255863
Ni 1.6749814678935677 5.876839671344375 8.494572752132129 -1.9137582149009942 1.035563991602068 1.3027152369064274
Ni 8.205076334142468 5.4735949345026 8.949070043912924 -0.3476869380665818 -1.483564062168116 -0.0027757629729242518
Ni 4.708035527772366 0.6111815340251767 12.772620617370706 -0.040119493728705095 0.7395971076175972 -0.5844379738125289
Ni 2.9727048181112123 0.1904622800915949 3.104272924425773 -0.31936649385533383 0.2951940103741884 0.1790238562378078
Ni 6.727821525329108 6.697834154249498 1.5106537799838127 -0.5378282443737898 0.5160250324557694 -0.1989105678594058
Ni 6.610027697292967 6.315972431631715 5.040507145942488 -1.5093997922842972 1.2198876627862347 -0.45669631278846506
Ni 7.520390574545607 4.5766683724671715 1.5385138106051708 -0.55052897976991 -1.7991073256226178 0.5167914783081488
Ni 5.133567558380284 3.7554729385526824 8.254630853052337 -0.19627852955319747 0.4473614085407844 -1.0828280667953545
Ni 8.036651985882665 1.8899990479161146 4.460798193638879 0.2794622014612284 0.21512085907068113 -0.26395844939867447
Ni 0.8059469059582595 8.478534121343616 8.892613771244982 0.43324965172975066 -1.4037238528110212 -1.3498345589917333
Ni 0.534004472050474 5.365282340453859 1.293610248421376 0.8057225384917607 0.8356668914596769 -0.3427738170356806
Ni 3.2498345283016996 3.9428232182401275 11.734926046446429 0.393213204633155 -0.951396358514213 0.2523244647041719
Ni 8.852924120067666 7.936103408104917 1.9057125034349247 1.0667869541720918 -0.9585311697867813 -0.4957200023498301
Ni 1.454803100585008 0.20781348633674485 0.8295522556631136 0.6530185510954045 0.2675929608274682 0.6565695016714562
Ni 7.712837702561539 8.669976494312714 5.112604714448604 -1.8293486410056625 0.2599416149297975 0.058421120251370355
P 1.2540347739539297 7.3037014474905995 0.07434547956998798 -0.39700686734763235 -0.27154088973162266 0.3862665981119928
P 2.47225459755661 7.289570937877394 10.030653228696602 0.6615358445377962 0.6754532259498368 -0.15237025820602146
P 2.8690232314146984 4.7055053718817 4.689657644552087 -1.1779452569161777 -0.9113501412256046 -0.10929708116563111
P 5.9590560365857925 2.5615955894937614 4.888451170809296 -0.7609231227888831 0.10246668850735902 -0.49690450957623455
P 5.151461332350724 4.945824510810894 1.4635289414599246 0.9157955785914681 1.8735147939999155 0.10270451554977797
P 2.506516744653661 7.528044981175126 4.353701353196807 1.2117341804411648 0.4669807254336087 -0.8262767084940287
P 3.681468162284939 1.8339702528499164 11.064858559367327 -0.07121595802319348 1.0155734074127543 0.4238165313413088
P 6.103905177792145 8.588600469655923 9.229077920605752 -0.9300582591580692 0.026356378506341704 1.6790635474634439
Ni 5.2117009644768375 1.184076420283892 1.694808025208646 -0.9283456473423366 0.11613493002307096 0.21222322580791192
Ni 8.480881594498493 0.7539910224864561 -0.06457926051475828 0.5172383360375801 0.26062167171595757 0.3268810570648241
Ni 4.873728769132136 8.000672621069208 2.4091395391691934 -0.7807193315792038 -1.638214374657566 0.186398294325008
Ni 6.75011795323204 4.2663086726368356 3.903375621687733 0.6462421516035193 -0.10740680612145373 -0.15948707175646082
Ni 4.38084161383916 5.961595326613247 3.7039810692297803 -0.1957779357676951 0.5566597752579961 -1.2179655060628571
Ni 7.080380937126485 2.0009331392234144 6.721317106521374 0.5966998218990175 0.06605164021343464 0.0041965545798508365
Ni 7.847968122223969 3.16016470744013 10.539654828113443 1.0955933368808226 -0.3365877428296267 0.20392164792075204
Ni 4.534550867731234 2.06587685179607 6.410254078158254 0.6958487588870531 0.3304564331209083 0.25918622482101167
Ni 5.7252952078713895 0.1170749714708153 7.09641774108764 -1.6234174188540493 -0.4382242221262066 -0.7448943514607945
Ni 7.6219530415069805 4.690571058231027 6.636372374620963 0.17173169345176875 -0.3734247091523182 -0.37540882946188253
Ni 0.9934287172154721 8.443385962977993 11.338957562971093 -0.7964223441367574 0.4109890405593374 1.0270531259175795
Ni 8.837460026483209 6.649788594737237 5.206774011092633 0.025404556116033667 0.43489670041487033 0.9260776772437663
Ni 0.31429194571817376 2.9018969897197597 1.365522393950667 1.242002749517719 -1.0093721636980486 -0.7393196855864944
Ni 2.6475112801348857 7.008951987433354 1.913466472155449 -0.2616436852225688 0.5154169665581252 0.19085118789003905
Ni 5.154767889868488 6.577418828954797 9.122194818964552 0.7585975599795 2.398371565814702 -1.163609557019796
Ni 0.5934594818263771 3.347551523674733 8.094353241395003 -1.2631325895177987 -0.07856134264467116 -1.911645539433366
Ni 8.080093940453066 7.542166356651545 10.03868852883024 -0.8272861235951494 0.1340614325945046 1.666999160099742
Ni 1.3971758315806642 2.158944571543297 3.9663427070591615 -1.6903990270809208 -0.47191364395885177 -0.30821716210673367
Ni 6.163140054871424 1.6445099875641194 9.151164647205823 -0.9117206371911458 -0.3410015556266063 0.09719669835767132
Ni 5.959640621340314 4.734314439315479 10.2004093341003 1.5199480001137888 0.729035530051667 0.28809905120061996
Ni 3.0011393859366238 0.44294443556955737 5.505163424660457 0.3288579782855368 0.26648738646811526 0.08595480689526487
Ni 4.8836301734118495 3.165261555768617 0.2502506858603113 0.03088949049000487 -0.46061107446183897 0.22371811382138893
Ni 3.5228264745265876 5.745746540142863 7.146736787246783 0.6549445644735236 -1.3434564233795314 1.0873205553490695
Ni 1.3199923757102088 3.8028243036689475 10.088620287589514 1.0706212403165174 0.17947508484261349 1.0012220237870886
P 5.7899192256564165 5.972510620076583 7.083021616072302 -0.8357581656219025 -0.3023295929777051 0.053163728507172964
P 2.7097878247650353 3.7840262501563564 8.209150159150543 0.7873697470161859 -0.008939982802107184 0.6010331591670488
P 8.994293155157257 6.795313662066007 7.450127140706804 0.7581085361582235 -0.045431907080554015 -0.549299478238183
P -0.021696315115868985 0.9096659426156097 2.474138056562585 0.15065404684586314 0.45420594226644356 0.2855688285795985
P 7.151691143041354 2.4920482719792467 12.957016003806778 -0.5165677923331169 0.5955163431138776 0.6818251909144515
P 8.07055790164493 6.146397182136448 3.0799149218494724 0.6980928177262236 -0.7003042235552456 1.1641829130247627
P 8.243996891002114 5.343168595286715 11.124897240484074 0.051687915292594845 0.5810376898817283 0.6934892575159411
P -0.07901850395144656 1.2007462199245524 11.070607585062577 0.12208600540018327 0.6007652502176428 0.1386577937159354
