# total energy = -340896.45809815434 ev
CRYSTAL
PRIMVEC
8.97623396539407 0.00000000000000 0.00000000000000

0.00000000000000 8.97623396539407 0.00000000000000

0.00000000000000 0.00000000000000 13.13762573999444

PRIMCOORD
 96 1
Ni 6.4181868451699025 1.9429686861135935 11.047324079369377 -0.34370069972532424 0.6935111118928121 1.4678103988782851
Ni 4.459428963424504 0.48517083423336455 5.934699054814289 0.9578459707942987 -0.698381552611236 0.7935895026736526
Ni 2.812523403816796 1.452480330849938 4.674629685809228 -1.1416505362502016 0.9194051503195972 -0.2680303054752029
Ni 3.3158926548915044 4.19911817699905 4.645897658351668 -1.1857830077930418 -0.12861197944415914 1.0389215952203914
Ni 5.0393385619423094 4.262705818758978 3.021785449777415 1.1662397955537913 0.21598963482887965 -1.329747044213239
Ni 7.410913446022417 5.984302621602761 2.5765507782987216 -0.9690199851332473 0.39950058030376356 0.3735735760253566
Ni 4.846959914539885 4.4879105539530535 11.369616659289534 0.8383351823204594 0.4483417701761827 0.029755633995877783
Ni 5.485313772727212 7.825426956585899 12.387440810447067 -0.3303821282395471 0.43578475944677847 0.5163255944153237
Ni 1.6765450843241498 6.491450867197646 0.34621155069904913 0.5775772421369537 -0.3313858869137132 -0.38592078473679986
Ni 2.7279313744625386 1.4853692522796915 0.29014958353702125 0.3088961904516293 1.0237891104543273 0.6985124217621455
Ni 0.46091166418531526 8.93975459963516 4.767026550639241 0.8508117175209153 1.3949597334651458 -0.6177682125335425
Ni 8.624985001442699 2.339404061371529 1.300907643278207 -0.05022932846919737 0.2171312046324906 0.6730101637259829
Ni 6.711467339131241 0.8377438419786108 4.929789011533662 0.3393856172897381 0.434458070215555 -0.7778432955829894
Ni 0.7943293885432542 7.320082934027964 2.479647843993343 0.5469826571795483 -0.5172409071407414 0.5581116772131742
Ni 7.468801179183029 3.8184719973729213 4.013242811140255 0.28041968027849123 -0.05821877443257715 -0.6042696638264755
Ni 7.554299808172769 3.728835324502419 12.706922033873829 -0.6881058817168408 0.20851312394617638 -1.2629898932923473
Ni 8.120655293328422 8.882899133386235 6.8750636921656225 -0.17217058076140027 -1.2205985728103301 -0.17465015265014439
Ni 6.77636551105731 0.741082368368227 0.6028241287104574 0.2828969381743902 -0.3384235104867849 -1.4890189146351
Ni 1.9064892710779713 6.472026296789898 9.07993913911248 -0.2075859841462167 0.00023679860115443087 -0.6227193858912308
Ni 0.1360105906604961 4.799008872433513 1.3219865336148584 -0.20792948352856447 0.1466485252308958 0.5129127120790328
Ni 6.471487722749018 1.6918944444892368 7.145134337835227 -0.3193734358338693 1.1293956301422485 -0.8272778960650333
Ni 3.2459857443852482 4.2624814129086115 0.3462528413755166 1.5470926788493808 -0.21734460619487728 -1.2824400315971591
Ni 6.014615363870304 5.650108453002553 4.954238477742821 0.022734722593354396 -0.21151308711476474 -1.2377460311238941
Ni 5.403199183961004 2.8909487604029747 8.941547153567889 -0.3205692559141834 0.21473776469964953 0.5014710459009944
P -0.027887363836779182 5.48252216394865 12.34692478297505 0.8694522154402381 0.3909004973395784 -0.16382580834113075
P 4.020975836743895 6.100517923390703 12.61072822205561 -1.1036750854476927 0.46557587466628203 -0.47668124055082417
P 2.4570555606018183 8.466796829402156 1.491054798904584 -0.8953941321169806 0.4855967978728992 -0.5411205419718165
P 6.518765547304288 7.808282349617878 5.869050469724592 -0.8008279294036208 -0.5472263977592382 -0.4080209590699489
P 4.765132565262146 1.0020080268236848 12.392761921970964 -0.055676724737013794 0.3796555205533784 1.404735324794671
P 4.01372303966004 6.216697320242587 8.123480114172839 -1.072919806542707 -0.5696327904788965 -0.2119686865949446
P 4.758256770006908 1.127935613815501 3.6482269478038725 -0.4575370635222056 -0.2599724681677329 1.431478140106154
P 0.2851327663462218 5.412426752528085 3.6219912110257924 -0.23572388003301337 -0.07955018892050171 -0.6445570505916125
Ni 1.3867742978625477 1.1641098368946243 2.6231769282645274 -0.2653000510282334 -1.15851080234065 -0.4614947626183729
Ni 1.867613201560432 6.297303901694331 4.737060291004664 0.683955349883577 0.22182809588752764 -1.0784651618409684
Ni 5.932366131593875 5.65169724642315 9.132226599871336 -0.7546642863633648 0.020293460141713435 0.08189940587896861
Ni 8.628548566346524 2.276417827290584 10.080579187872326 0.744697147848324 1.147041882469102 0.5699760327509281
Ni 2.3975072241484927 5.274309439744346 6.842732194868181 -0.0799260842026817 -0.9625078950463424 0.5175057307663539
Ni 0.497865024376912 8.885089334485814 9.027519727713603 -0.05750195087121064 0.14131451461249211 -0.14217454861994225
Ni 1.4703250840711035 1.1072633468797144 11.39206891343043 -0.4821219519504213 0.011790307766708728 -0.33193636010054445
Ni 4.168913149539683 6.9864901731067395 1.6003207003183686 0.19294380875300965 -1.13371765455637 -0.4269648471623034
Ni 5.540059823982689 7.770187212459615 7.780154422709506 0.2162835119202146 1.037495661407142 1.0567503958716962
Ni 5.160167648013792 2.8938391077556984 5.055279455928963 0.8335467597928806 -0.7423258194026698 0.08567609931258148
Ni 0.9845402754311354 7.254385877274589 6.649504395727968 -1.2157317316363319 0.06596627958847993 1.4771609868552495
Ni 4.979529914702558 4.5973577752939345 6.8972933357029556 -0.4655185390657854 0.023483684944236975 0.7062681544481644
Ni 7.884346956658198 7.154731727243713 9.105753890515269 0.45212052049232454 -0.030715426805985817 0.05061833637749993
Ni 4.488592747738168 0.3246838486616642 10.354144281443842 -0.3202221569874098 -0.35575146024227117 -1.1536444753872843
Ni 8.24459015636898 7.069125383445797 4.767644115539451 -0.5818085066094818 -1.0164234141178752 -0.29992509730127054
Ni 7.214612184355582 5.967265729442915 6.961431220607982 -0.4661705708274874 0.6478534619546972 0.3871420587384107
Ni 2.5478142627241547 5.210219128879597 2.3698173374600358 -0.9030555053169802 0.3276739852797647 1.2612541415481633
Ni 2.3455079005015045 5.298464485477825 11.188632443345332 0.07328775295055766 -0.24180865277451255 1.4035109654692666
Ni 1.126436582735051 3.3033349035049797 3.6236589953057186 -0.8302678319312926 0.6632258306457094 0.4324443822196359
Ni 3.386104757354259 2.624210990423018 2.5659229172253513 0.6681353521321848 0.011889295238418232 -0.4373955555773241
Ni 1.183965266535076 3.3037208815676107 8.13937702461282 -0.8283721575704766 0.6977847995675014 -0.41515808433536244
Ni 3.4745565673348247 2.6951681203089906 6.913885904279074 0.10308478170733214 -0.1602216359296402 0.2991411679473945
Ni 4.129085599216589 6.956383884221532 5.81807623200208 -0.08016365413478453 0.043074205481654845 0.18296047228805262
Ni 0.6156574504812322 7.255849003418979 11.141205613305418 0.008039582475024865 0.2361882212639416 0.41389567268317107
P 0.09932113174893074 5.633592182415558 7.941129715411604 1.5276870206292594 -0.024956669945337663 0.5004019812065318
P 8.54711617136543 1.6786814280196416 7.962439294962432 0.36582607086945385 0.5070541964157267 0.341934866074153
P 1.801664810254646 3.332552545222733 10.328841175379885 0.381272230221195 -0.8637834471902349 -0.4359639653371202
P 4.103305855126454 6.032899952558189 3.7712076371686725 0.05633364159472234 0.8212743701834306 -0.05758576883426857
P 6.810708582397441 4.0781095662472735 10.391901014579753 0.17396186833386815 -0.5730402734985486 0.05106313722440239
P 6.091110830143329 7.807339845046338 10.205873052742708 0.48605162602213065 -0.6883992445875435 -0.404322170062123
P 2.432451703167606 8.45929269776589 5.629262047126881 0.31350206465475683 -0.09530050977622297 -0.21737031722649014
P 6.843965529421796 4.0253113577729795 1.6858462580101519 0.06055179344112797 -0.31414715443792346 -0.0710822606588066
Ni 5.325213662841544 2.7838443361399228 0.4518124557646435 -0.7477400484397058 0.39613860581006616 -0.25404041895401414
Ni 1.4650380822364624 0.9408080633116593 6.967447990268016 -0.2852268718591475 1.445680142638149 -0.7468131657500623
Ni 7.075839606488772 0.6153738014863687 9.174792799192307 -1.3368006086259108 -0.9618077836555243 0.4381062084911035
Ni 2.6171377180194573 1.6193934023527412 9.073947502907686 0.3385489803210556 -0.6624717260885042 0.48421431570307577
Ni 6.374759825006925 2.0251281560498753 2.6006977454215874 0.24929750495239 0.37617501820394567 -0.01615938336868185
Ni 3.9229822900057334 6.875391324707159 10.4219731937757 0.9453894901985008 0.4140553381894869 -0.27722482749027744
Ni 8.19549015630873 7.202835365328334 0.3773716494575773 -0.8822046300098999 -0.5326832098377406 0.020354395286635914
Ni 7.691007852216204 3.8939351967342586 8.283982359342364 -0.16189388142574054 -0.5656774053755742 0.1167306546255409
Ni 2.9094487787072114 8.276464763355078 12.476448249313142 0.8997624363880053 -0.45072364014479793 -1.0463040037273916
Ni 0.25514227087980523 4.973246550892289 10.117299165979542 -1.4145790503579703 -0.6519543714969481 -0.13238687310555908
Ni 8.594483758260848 2.2390946462575827 5.68144538357117 0.10343779417137669 0.3856952989895551 0.49074851727716773
Ni 3.7299932586903113 2.476076200478906 11.146408238540321 -0.47863887849782727 0.4167614242667403 0.26707076977541105
Ni 1.1019314638749997 3.381392234496557 12.379545315007764 -0.9305172010723587 0.2075384187377329 0.15211211944862835
Ni 2.980827791591873 8.369135403322538 7.915774547190363 1.1253402291259522 -0.5875688061320268 0.20174340932251064
Ni 5.851203023633222 7.946911307740454 3.8014377980832803 -1.4724885210802447 -0.8149623119224739 -1.1350353449265291
Ni 3.158359747934032 8.090333574826865 3.51283033154998 0.29806156172997056 0.45767744575481173 0.8322362685115733
Ni 3.4008616860743777 4.22600199787299 9.127378535880014 0.27225822751362144 0.5378323581388479 -0.32442308244263485
Ni 7.032933207898646 6.151799148316518 11.400949999364544 0.4137599184362552 -1.073621717705738 -0.23979213656511603
Ni 0.5194681267800202 0.11356282463660738 0.45407985247674937 0.4500451260205346 0.15910603426795825 -0.19896327547421216
Ni 4.590912839271401 0.3571149821566697 1.6472349873960455 -0.05575900003817494 0.4556159352400927 -0.48158536272066094
Ni 5.958756259597008 5.624382566316506 0.41476035699888547 0.0014747847733135892 -0.05668356873497334 0.543833055806973
Ni 7.711303117323375 8.693356975932446 11.503318562561455 0.1614681067422316 0.22664582899114513 -0.28486511764435457
Ni -0.006843480812785004 4.760770115531016 5.774288367231713 0.6380711857569527 -0.30068023029974017 0.4327068918524032
Ni 7.915674013369399 8.679389955805618 2.6175802463563804 0.0578171681187843 0.497619276255072 0.3778354366255041
P 8.298941253327813 1.632076821015471 3.5498393443924674 1.175340472303479 0.10858771380343234 0.006941721425155787
P 1.7072797095903827 3.3271578285799164 1.3838911314970355 -0.0758745398411274 -1.7845088589831526 0.8415446903966926
P 4.598407994673651 1.0024209335883596 8.115873653468807 -0.08844337764507348 0.5035063311634683 0.05771689509549415
P 8.395480650155598 1.625066382250013 12.311426470317228 0.09878332611850085 0.07466072203868432 -0.06539189514224866
P 6.317222164972885 7.7457718559397115 1.4788632778658581 -0.1610554446848452 -0.7568471529472965 0.015908186589824215
P 1.606009837436867 3.1361704974497657 5.8769989249445835 1.2534732120511638 0.20852469391040218 -0.19628495731110066
P 6.880462896925447 3.79219856041198 6.230466863221093 -0.2762532076056275 0.06217467375653163 -1.0834998960513986
P 2.191834774170341 8.463933410751476 10.144822094715325 1.8442749232981914 -0.42345709111936103 0.6432329324635503
