# total energy = -340869.91921193973 ev
CRYSTAL
PRIMVEC
9.29435676623994 0.00000000000000 0.00000000000000
0.00000000000000 9.29435676623994 0.00000000000000
0.00000000000000 0.00000000000000 13.60323061537411
PRIMCOORD
 96 1
Ni 8.185558649890414 4.666993984329289 3.3510468957795587 -0.8229849251166342 -0.2859686351211784 0.622706016154792
Ni 0.039297470117703445 7.2023086407251045 0.4110011062510123 0.16653909350723575 0.1406861369998738 -1.2872451662952862
Ni 4.370829303905311 3.8183355564355814 7.353906106690626 0.8366796489949074 -1.3696315391130025 0.008166337860876258
Ni 8.153669711602806 0.09094156384988082 5.549900258274347 0.7842232309674042 0.596510845816663 -0.9222014821178117
Ni 6.894869905464965 0.38562658266634253 7.534258453820301 -0.9937095174601273 0.294491584990525 -0.291710165590646
Ni 6.506235668928068 4.952395799542817 6.5632184412240475 -1.0344108518342314 1.0320240967696095 -0.8232772595460724
Ni 1.8819306655241623 5.451874535647778 -0.004081152084549462 -0.5498646067130336 -0.0804009669565712 -0.4304134678325361
Ni 0.5890912069279896 8.732196952556531 9.922251048392914 0.2684645647991441 0.09742629786997414 0.7091701585863077
Ni 2.585801602702517 1.2529071839069033 0.15478264205155093 1.1902235600628985 -1.4371350812816153 -1.3721010836994176
Ni 9.044570991294002 0.480880728085868 0.9160592447617005 0.3568416079826564 0.06204303327467379 -0.5531252797421764
Ni 8.725560781779105 7.355451758231643 6.9644056360970685 -0.7270249273795414 0.03574527592040941 0.2840670472230914
Ni 2.4479012303990317 9.240077787236835 4.22062041485036 0.6590416173610327 -0.09269752493573713 0.7052654242152627
Ni 1.8566686036571494 1.9532183824189344 2.082613488786252 -0.9619329963794787 1.328235492664719 1.1905644883420852
Ni 6.452941826858365 2.4680513960089225 10.554882599332018 0.32485939864910507 0.14044548174397747 0.23555701543784593
Ni 7.564686319214056 8.14574162522585 9.556786714000342 -1.023111110550696 -0.9411636250426114 -1.0959430069107579
Ni 7.9099066149927415 2.6319016125849246 1.7109461006445847 0.5655046272431358 0.6944248819563331 0.7922337599767065
Ni 6.9683975623560395 1.2751950515879544 13.583207119478326 0.145371201180369 0.08050663929650007 -1.514033948622199
Ni 1.0785264610412302 3.124753472269289 13.10962432037626 -1.9036977453411987 -0.12901847085395843 -0.4640306416663492
Ni 4.115364612044854 1.3638260383296164 2.8919512106701784 0.3576540765816228 1.4821137028748348 -0.19970221052276577
Ni 4.809653067330313 9.066301197565185 0.40965063620344905 -0.4606488696783099 0.9487154692479403 -1.384758367452112
Ni 3.7560912487374996 8.486128855452348 2.438623603410197 -0.16567597417599209 -2.1857621603119646 -0.21995556145516312
Ni 6.359821665767267 3.617307912535057 13.523719518016359 0.741294035704046 -0.4256880373324088 -0.1142899063945322
Ni 2.041477594887351 3.6955106309121906 6.059028395641387 1.2912548016753118 -0.01086933861433612 -1.6754886856279918
Ni 5.325675758594686 6.641487149534681 1.2507490342507146 0.2839438913816658 3.8848366036796964 2.4499491807816773
P 1.6912011689925308 9.144680508722109 1.805270810380997 1.2471074177341361 -1.0341257164936448 -1.3811863338301373
P 4.3482068393783395 7.900900383223377 5.0205847778700905 -1.5444871229057335 0.279141584897016 0.6370455727059159
P 7.605758082050823 7.644775792027909 2.436311167430612 1.1789883534687116 -0.26819896984258323 -0.01333014145000285
P 3.2539078547946803 6.185171406553491 1.7771126269254036 0.4190193670629816 -0.3537889371992617 0.704020238954252
P 2.4814259754889196 2.455225183581962 4.152114498955145 0.5465465980833942 0.02025129404986835 -0.6248937678347303
P 0.9239706012963589 6.824511624253306 11.233003520909726 -0.6395639682523954 1.1734887638067208 0.65813658904826
P 5.943936375001496 5.232462653935277 4.256504997139672 0.6846158662857112 0.058549932519750776 0.31164572817230846
P 5.399305653410902 7.378120694542771 12.713389158822867 0.662605166342575 1.3598922003380518 -0.7744874917368791
Ni 3.464685279011061 7.303096646201885 7.595717388366152 -0.2206045078930717 -1.161412549368477 -0.29245887083121247
Ni 1.2414100645067945 6.655233503287923 8.603308388636512 -0.1760316063787033 0.3489943440240957 1.0721572173450697
Ni 7.088703717178194 8.240581242330707 0.4392392211753534 0.3911712345024618 -1.0916096696427264 -0.9725768492465703
Ni 4.773711789464331 0.37094149887315614 9.863906652821173 -0.8117867424079697 -0.03290086449307882 -0.9961613214347296
Ni 4.028778383806041 5.519035558109528 5.82087723168596 0.5492210595917638 1.8210244374106832 0.6205529743675312
Ni 4.420154455608121 9.155294664223259 6.844955491539061 0.597662700032919 1.4206784783874888 -0.31579086068893353
Ni 2.54990679662069 7.602430702305278 0.2929674216740688 0.8885334004414052 1.2449142667375592 0.696546042064394
Ni 1.8255232139160307 1.7975100224270029 11.301958354239883 0.45207732595921496 -0.24622760777781466 -0.377751104441814
Ni 9.045574781831764 3.011882802912038 10.458544731905983 -0.8313497521415617 -0.5538960964699299 0.4161515585968833
Ni 3.7941330512473175 5.919101853548715 9.412592203250817 -1.2370587752488824 -1.3328624499137691 0.4849540220825777
Ni 0.23577645578507264 9.31880098959651 3.279289813864815 -1.902196478205324 0.12246061513078266 1.0407653332973497
Ni 1.2571361162650676 4.822869642744181 10.321138819385913 0.8675513988730995 0.9588803255960842 0.874574881378784
Ni 0.478554350571036 6.8406001559279925 2.5877153107740467 -0.9105795816081673 1.3885671996752407 1.2679829756315648
Ni 5.023479040587305 4.324041511617399 11.047986336086506 -0.902561082179065 0.5501312301108591 0.7995233516595843
Ni 5.853437222536777 4.9295781535223915 8.982158455737276 1.4244124915086243 0.6146265815807672 -0.6772136602843692
Ni 1.468684972098432 6.251384404618466 6.267280543106749 0.39848473744473956 -0.3430234711526415 0.012113495434082364
Ni 4.174885673191415 1.8869031464288173 5.458092460367804 -0.9175801812957166 1.1815463440038747 0.6762451257235127
Ni 8.291356313699174 6.023068529061742 10.472910089824179 0.34917149303190836 -0.34105220635888356 -1.899265163491142
Ni 2.5580393588479295 6.649526768193609 4.239092949052232 0.9879587310192791 0.580445050603052 -1.7372162445447756
Ni 1.274869749098865 1.4436738578658594 5.585363806199208 -1.3734928218406217 -0.30537403623098375 0.6244427963402407
Ni 5.0810389924424975 5.411406906005035 13.204506691522543 -1.9409193486968184 -2.096863183186711 -2.372784718484533
Ni 0.4312646630142434 0.15351675065115095 7.533319723780356 -0.23357418067986224 0.45292219045801346 0.32909451977637516
Ni 8.033772508481219 6.6876522199149075 4.654794211552747 -0.30779138742322476 0.7355900433407331 -0.6430496128081507
Ni 5.586652004056003 6.884097745897684 10.517908718422097 0.5662289070036699 0.6398725006317496 0.6269480792605977
P 8.320075876307369 0.9046903874858614 11.646392347430654 0.39387012149086364 1.7837501264402569 -0.524550039207645
P 0.696569290451818 8.012869499968007 5.1101349765023505 -0.2644261330637123 1.296731765629483 0.4839721177852826
P 7.10831481009188 4.489982958480406 11.463347425127001 -0.15501463780740402 -2.4510454991696498 -1.002390590173893
P 5.166138123588329 2.071489073095072 1.0083893855221522 -0.453749057234683 0.41753789742144864 -0.013252237024215886
P 8.268510784608255 5.540412578821128 8.109701827177458 -1.0588340178736022 0.9818127660225414 1.0133249776982096
P 7.620247984350556 1.7660393301967945 4.0516545842745035 1.0387570446180692 0.005981157284099377 -0.7149173454827301
P 0.159246721637543 4.460250310977619 0.9628284483359498 -1.355184253339421 -0.18164509591073877 0.7155122987542516
P 9.001296465888258 2.289497506926072 6.9945500236074745 -0.08859044474589904 -0.6558164255555157 -0.18688706103596847
Ni 3.0624255153597266 3.513926781502391 0.288809126427821 3.136927633762294 0.12420279463286997 0.9446292149937086
Ni 1.6712183018055997 4.8677056200975555 2.583742902664421 1.2034506002761338 -1.9632393523502574 -1.2305340867564871
Ni 7.523484435381654 6.068304163758855 12.674266422613588 -0.8267374501805309 0.4652300612910891 1.5493681051471186
Ni 6.708768998635236 2.52499792031326 6.044391642503722 0.25037993938329134 -0.23514178227729826 -0.031407310666687845
Ni 0.36304780161647693 2.901568081683349 3.6964465726450855 -0.532067944851245 -0.46213188198173966 0.5550875456748698
Ni 2.9527521047523853 7.558542749348678 11.0409802499072 0.2885201978984386 0.3093972984577639 -0.0754446513925604
Ni 5.879182590959008 3.0165857474685907 3.609399344307448 1.5546926026838257 -0.8230137214720407 -0.07994999546208166
Ni 8.762003954913967 4.768367534286431 6.0775427544489995 -0.9345072960683583 -0.34772473328305276 -3.056013217504414
Ni 2.6963486828519843 1.5504753122123816 7.562253986031349 0.08077146292211251 0.34203128244270126 1.0571103503142762
Ni 7.883622173874304 1.0618245018156884 9.33593792472175 1.5175347626866058 1.231405176507531 1.370310053237266
Ni 4.557896823845478 2.0186692432237563 12.200438252491184 0.31422840129782015 0.20738235277584283 0.4336741408616789
Ni 1.3510370033299803 8.971275693323705 12.528439822804517 -1.3677299512149155 -0.3185118591645224 -1.3412293338212256
Ni 5.011405671063666 4.588410197322079 2.0870078606960103 0.09730108514601954 -0.6491832365097142 -0.7318403464903138
Ni 3.966013592125416 4.112427595286217 4.0976876747877276 -1.9692331080398475 -0.6134734418129305 0.18613861290571815
Ni 8.187975182666507 8.11492153797382 11.903860902623904 2.46341147693417 -0.7874911030853986 -0.48589684561182117
Ni 5.781461723236502 7.516355663692178 3.544607453401953 0.4715526610750072 -0.5377053456426804 0.10831466264770379
Ni 5.818825037697646 0.6338658415262782 4.577269051788603 0.4752475934280912 -1.4660841602157977 0.3599901809139671
Ni 0.6631755957932488 4.257754158697776 7.725655285172407 1.2280334318218207 -1.4920150211489467 4.3832395521783285
Ni 7.48645571776643 5.5940317233799215 1.332062573859227 0.3556948959727229 -0.2679493157256224 -0.08932500891907841
Ni 6.2598794467621195 9.193736124076816 11.537798011651407 -1.1296221443307577 0.5748467305796681 0.5284753424039802
Ni 6.504051495072752 0.369970238584303 2.204349115689035 0.20550133370304607 0.801232363930891 0.9736212313506845
Ni 7.567446743192902 3.439302390505243 8.19872131803466 0.16296551722336453 -0.9138050305240005 0.4502423296330052
Ni 6.427419523000081 7.8842541901388214 6.195972378626949 -1.0336189520605554 -1.4840970518534504 -0.8404725403784363
Ni 3.9875764999736396 2.8500866391957165 9.626992567759972 -0.18258637677808554 -0.9766587326254277 -0.561302159126014
P 1.7994060712205535 3.0009805223491224 9.4436074719963 0.06654786312356281 -1.5103307887389987 -0.5883679049945545
P 5.140132513174826 1.795028429153091 7.918385856729782 -0.04711777942340918 0.010516326150291567 -0.16053325363278803
P 5.644360665620493 7.381959263914028 8.142635451172886 0.15479635114901083 -0.2536328991029503 1.3601979045039283
P 2.3047588408427884 8.836172922426389 8.504304899671308 -0.06754056605413529 0.3414059901538765 0.1457452966903361
P 2.7046764265726773 5.06282205305348 7.702271612820967 0.1936907142213632 1.1775413366095395 0.19174104669416012
P 2.9981736265861207 4.440843693914219 11.80735945451764 -0.1717394067612526 -0.4229855507995812 0.4781187443282991
P 3.4481692069221417 0.255426584997449 11.77562294368206 -0.35172485558138133 0.06469898284028212 0.11440560603679006
P 0.7304435033585567 5.463724840607469 4.3599037874503175 -1.2544625725476266 -0.9725333976031445 0.8869565428725886
