# total energy = -340857.3835879492 ev
CRYSTAL
PRIMVEC
9.37463833832584 0.00000000000000 0.00000000000000

0.00000000000000 9.37463833832584 0.00000000000000

0.00000000000000 0.00000000000000 13.72073081110376

PRIMCOORD
 96 1
Ni 2.179415913241706 5.076179149613382 11.524865344823935 -0.16126653225438678 0.15800431656334724 0.884520165516954
Ni 6.191864228978527 3.1513127902784723 9.654811558196927 0.5706979985186171 -1.327639510951933 -0.23086475216849917
Ni 0.21279960221365327 -0.1414079816626343 3.418602477642321 -0.5142124047270628 0.9913214768439248 -1.7403517048499642
Ni 2.763615248519938 5.499331573442976 9.163472702652934 -1.44311521012445 -0.46779962179047824 -1.2913671588834599
Ni 3.1971641462302327 0.6177146046839032 0.8315622914601013 0.5325387138400763 -0.6626288204916588 -0.2819165765389919
Ni 8.554807436325243 5.796263867128531 6.797730228308222 1.4206000597410695 1.6397853186891116 -5.188559970135664
Ni 6.53918520355566 5.394166880932888 10.463923465843234 1.8046038299608147 0.021778529327672172 0.6531967285444815
Ni 8.200127370678363 1.3158429818239519 6.615999114902527 -0.8687747297572392 -3.206215007304207 -1.5827903893613062
Ni 1.4029802448727375 3.9464414874284284 4.886007111877498 0.02622396669353548 -2.1401093954698562 1.0283348208434806
Ni 5.787986061504855 7.173163868235619 6.029479556643707 -0.0891620009786529 -0.7004800870114775 0.5660059923595866
Ni 6.764157773608888 3.040692058274635 5.015887100815968 -1.0220258479063171 1.0761303430602047 0.3099863381920145
Ni 4.173935835185811 5.510853003920325 6.539067083113012 -0.40561646339351437 1.6013696950253904 0.6266102363052046
Ni 2.0856226569960796 1.1713798055375846 10.516391441510951 -3.1652028265579037 -0.9807087343250851 -0.7332097160340146
Ni 3.5238890404503804 2.8983944234368173 0.8908250049715809 1.0714491355344515 0.6079034039243207 1.8104669736098111
Ni 8.106268491964599 4.838972676571594 8.554752125959242 0.24945665623807362 -1.2492236927461906 2.956544178172799
Ni 4.631811919298645 2.501631606436952 6.173477750870125 0.0662149052641763 0.8071153050742295 0.9361790273438263
Ni 7.056833981503787 0.35457413223402906 9.89256457265192 0.3634693977118192 0.11003524488323631 -0.17795324888144837
Ni 1.3729720276571202 1.796265071061296 7.479334867971155 1.2458596613699642 0.47682059434216584 -1.0138433120955248
Ni 4.8010991378177375 6.831345806343761 3.263434401875006 1.4198662668988384 -3.625432092200292 1.9759714552049452
Ni 3.925536044007364 1.097254540456708 9.346562201149082 1.659740935875432 0.46982230864746183 -0.3300530270349025
Ni 4.364569105126323 8.653794242192067 2.5760531100882793 -0.25776543321408507 4.4636613450705065 -1.7596419205381437
Ni 7.016119927343391 2.2862117928169363 11.921600037908886 -1.2510656310509358 -0.07889250073184478 -0.1159536672502003
Ni 0.9720187473347365 9.145906505396256 0.9924638960150051 -1.3214637211585243 -0.03971968718712514 0.8645239249006853
Ni 7.717024134885672 1.0967764339031323 4.042936514433674 0.18603422611736994 0.041640815469237966 -0.14264506049845754
P 7.8954141271993175 7.932040839058554 3.0200425424793083 1.2902083626886682 1.3583803916792154 0.8627107829513465
P 3.1448630391243504 7.1016166286887294 11.638445650140792 1.1409285704825125 -4.136108201639322 -1.9489105944324114
P 6.012939882281472 0.27084642513692114 0.7953152524522338 -0.14089748167973154 0.5528900238029187 0.8305892198264534
P 5.670981200815033 5.2660343245745445 4.8670590929346025 0.3091622996288224 1.1340351857967887 3.928594979712569
P 4.551049410297538 5.8434932949111875 1.400310347883357 -0.5102135679803148 0.25151173899488943 1.5413244089070357
P 2.8329125748735287 3.9109397321658412 7.177094654077077 -2.7906560879860005 -1.329997212550832 -0.8477564756343593
P 6.31817810550562 4.534062565688135 13.265915671194028 0.17495585681602127 -0.44131545945702055 -0.14870746464245357
P 0.6362932628775647 5.50320329906311 2.5740638118398715 0.2710742345078493 -1.367577741907767 -1.7291951740125122
Ni 1.739464137568817 0.7809626812066511 12.701280268595356 -2.2469667568457434 -0.4719262423643421 -0.801702104478458
Ni 4.642705249009531 3.942091655254718 8.063893251896484 0.8439175615042432 -0.9322262133436654 3.216147178816255
Ni 8.258512618044456 0.8682152523065932 13.78329727195045 0.362187445675602 0.8733176119329153 0.4668706822183056
Ni 2.744706603057926 1.2913376772936105 5.48523211743164 -0.683565570644326 0.3473202987557825 -0.035386607029410024
Ni 0.6187467523613288 8.62311105101846 7.385320370261521 0.04864810002500654 -0.2063307715828769 0.07494714293085158
Ni 3.17206823948665 5.321419687682907 4.493676623868429 0.6414565572894179 0.17436270331671264 -1.2048387388729123
Ni 1.4365695739210214 7.648308036107016 10.32000683097007 0.24625743257448554 -0.4062846931051326 -0.4850488957892291
Ni 2.4767888149276156 5.262546959124932 0.7723333266465212 0.38868034975980803 -0.5620066413922062 -1.217684998707961
Ni 4.339060714297303 5.648866429052571 13.095134135329053 -0.6207080118881567 -0.6072428875221865 -1.4244636564615338
Ni 2.458077036870017 6.929301401996989 2.517191631096271 -0.5389315047402977 0.6580581704018409 0.18258354856460812
Ni 6.630137944394747 9.086611918114539 12.531857117820836 1.3297105345483489 -0.06437065296658591 -0.6634423175318896
Ni 6.546131810539968 4.62152794107761 6.937819198361285 -0.9689068565941505 1.1661240959115335 -1.3928000068096658
Ni -0.3370229343986406 1.7515199224295743 11.021766942989636 1.1910056896445618 -0.9859776960335085 0.26447395558251224
Ni 0.5828043890983872 6.104698842014825 4.513461798011997 -0.08318444323897932 0.6173079850676724 1.6645586689790497
Ni 7.548655630920509 6.788663078139229 1.4096812363334446 -0.1566819982074979 -0.8614576272705357 -1.7655212621370562
Ni 6.86698818118093 4.281584806846834 1.9525562284975992 2.2346285469953644 3.1241590212427166 -2.3238496833467273
Ni 2.1567105392660033 7.809458068577014 13.235826832088984 -0.5104046009451985 -0.34744396881784034 1.7174886842088615
Ni 8.120536691465432 7.463130805660254 10.370320514755207 -0.22758531008627905 0.08642943253883824 0.7304095275810581
Ni 3.371794908583409 9.034057695774411 11.791842856732213 2.556332944955255 2.294753280201403 -1.6434206014488537
Ni 8.888666430295808 1.8349542033477226 8.575676318656916 -1.810613526490004 0.687660823759622 2.941963966365778
Ni 6.379685107427414 6.725365520301102 12.909410363469084 2.6432246618424924 -1.376044898838514 -0.7888679288282672
Ni 1.3465355476358642 5.604027534037796 7.384524463469392 0.5875785763240396 0.012322783231411035 -1.3230097254894053
Ni 8.737106652812244 8.041902225359653 5.2976971654510665 -0.3380920952892952 -0.31380519771747245 -0.34670940464466093
Ni 4.007348512498677 8.672787259398827 4.984824236790993 1.8770037809897804 -0.9209105312205301 0.8519219198659587
P 8.30307027391007 3.6189291235906262 10.26220093625125 -1.257198226311235 -1.5866534718611385 0.7069523249993825
P -0.00716691098448591 6.855044891979837 8.700795866263901 0.2356727150801038 -0.34527961417666986 -0.07550095855179256
P 6.600223473562184 2.512028080317651 2.7790102795450826 0.17187079013279433 -2.1789736766352212 2.2943555305423518
P 2.400244893163943 6.771319997274221 5.731519802599879 -0.6047093224670554 1.1176189492222945 0.5573598866488143
P 1.249386170876901 2.0783479376710816 0.4548602629699826 -0.12744264172640635 1.040700284387369 0.9818721585055671
P 5.338284661994339 0.362449765874404 11.0759092290587 -1.2248920579793612 1.0127269391028946 -1.485253791165713
P 5.20074934341567 6.019352134882372 8.896632060463915 0.07828212084135551 0.8995554625835217 -1.5657462893948262
P 3.029114379967454 2.964129387234352 10.417491819780368 1.611812487625269 1.8422308962849692 0.45442165782167543
Ni 4.912094855353792 9.307506520504914 7.536824837379081 1.0625022107538087 -0.019280445496166795 -1.7346479695969674
Ni 8.217564197926425 3.5315387453075946 13.551279661210708 1.0159660148654825 0.38378162690660994 0.23004816980447476
Ni 1.8662654952877922 8.600124437893594 4.643986762065881 -0.6168449293883247 -1.2585778802675807 0.8216145271316688
Ni 6.046594833797894 2.4923038413230687 0.7350728892378389 0.4964818202165191 -0.12998931940766 -0.6032815888815933
Ni 4.855425166797588 8.063632636951594 -0.02909325251700925 -2.49223457181345 0.27883485228987465 1.1319880734597731
Ni 4.711711961575654 1.3786061852786715 12.98647926497786 -0.08869431731361499 -0.8591917140544945 -1.2108237528117534
Ni 4.839985137508578 3.46809119325658 11.872575366890745 0.7083080676963285 -0.18164946678611296 0.3777932705336591
Ni 8.76364625385486 3.3316339580830325 6.341406584298765 0.9293267803086834 3.0538604328274697 0.21764825347822514
Ni 6.331705708580326 8.477935402220881 4.262317112737725 -0.26531702030909793 0.8319228510362124 -0.0607112018371277
Ni 0.6271923640106727 6.483452978829997 0.5079169659232808 -1.6840787412898481 -0.18710946145941967 1.7968547821430152
Ni 3.600882944852712 7.7462167585687185 8.737512574650868 -0.12818389076780504 -0.536023072844251 0.5976107637490612
Ni 9.460416245904455 5.299670526814356 10.64194972219063 -0.5739391311637341 1.826522998631409 -1.5042460159974995
Ni 2.4996816816694265 4.0445564519328485 2.6660890113010973 -1.1484403054785253 -0.24676162590441375 0.08405990386539716
Ni 1.089567337046272 3.367266958281896 9.528746109584928 0.6830310382970947 0.2637710159782167 -0.5180536328500239
Ni 5.079544644765024 4.37660614071047 3.262515687321076 -2.181681562484688 -2.575803394975041 -2.510754227884192
Ni 4.2423050723471665 5.253200444734439 10.668334641701204 1.203268823282631 -0.1513814119301909 0.7904594416851032
Ni 5.1805282485909 1.2923220143156784 4.301051243288018 0.1151414557615501 -0.40456565353149676 -1.132491752569069
Ni 9.276354597416036 2.6934929539954715 1.9316592222510098 0.06006688338490945 -1.0976119099727484 -1.5903610026197126
Ni 8.63771673749829 3.645993704378345 3.735880548842107 0.16049905796074293 1.2654717791739367 1.4060275612435333
Ni 2.6760561267474094 3.044676279554434 12.684376858266871 -1.460060579729537 -0.2819955094060434 -1.639998206030866
Ni 7.3155083762649635 5.9226339914854575 3.7103740329407477 0.8557855165864228 0.17318925183390174 0.3244387661719187
Ni 5.229266993140727 7.425800995928111 10.818658841856116 0.3400163088952015 1.317856720533556 -0.11179053701144617
Ni 7.328998480786448 7.269938259462365 7.903099455682093 -1.1607006109031173 1.1813393701993913 1.4107429644413316
Ni 8.625032851871069 7.952018193287383 13.140865495910504 0.3276811843686164 -0.040946360505374646 -0.9195100513285778
P 9.413074322462135 9.003515124175385 11.239776031709605 -0.5207417212051484 0.7828386919150517 1.107436609372654
P 6.598798528539762 2.5761787302415717 7.450040998194409 -0.3840559636139192 -0.5512164927552377 0.3347938841539976
P 2.3106608495174457 9.571880695355778 2.6641540859548605 0.14607028412992262 -1.0571846551956374 1.3988554689751262
P 3.4895122417844417 2.564338562061839 3.7803219591927335 -0.0415971067154961 0.030083192538625608 0.6163278805425902
P 0.3838295659937219 1.6795414495206367 5.0735973742240725 0.5324428116921605 0.701984953691778 -0.2617586135338782
P 7.1393495478680045 8.884588462632953 6.393161149991441 -1.6933126011832902 -0.22217956568967542 0.5759430489676404
P 2.6684814189966377 0.0632609967487369 7.676968180334316 0.7621770498006422 0.32643857021076683 0.009106076066326253
P 0.34365549099971815 5.040452403031464 12.685227137961173 -0.46891676611405697 -0.4124998207769089 1.4917597106050309
