# total energy = -381174.19458606734 ev
CRYSTAL
PRIMVEC
9.18847743749315 0.00000000000000 0.00000000000000

0.00000000000000 9.18847743749315 0.00000000000000

0.00000000000000 0.00000000000000 13.44826551530797

PRIMCOORD
 96 1
Ni 3.258491387433827 3.8303362826393497 6.800424333554123 -1.001210968043495 0.7626501327823189 -0.9738402893400261
Ni 6.0597733245498 6.732057466955316 9.049646923995882 0.5821957147455715 -0.5440315449710244 -0.6277276377390997
Ni 7.387793161441412 5.082174452845833 1.0589821354835904 -0.6312850160730548 1.1179827603196164 -1.0353842714910941
Ni 5.2386082817343045 0.8581808242943333 11.498118891782598 -0.5470438494347869 -0.013374107314060838 -1.3546476641096605
Ni 3.945431151400407 6.699383241079992 5.678745540917076 -1.1671157704008417 -1.0634974847875427 -0.6098309599643369
Ni 1.0051643041072225 6.112597881511904 12.354921444456767 -0.06886725528535881 0.9505532937876274 -0.07248094077854614
Ni 6.717842892312705 8.777394174321895 4.167778523403794 -0.07343610560296385 1.5556359404337015 0.6895405572808383
Ni 3.5290461064717737 6.992431352958994 8.674252595898636 0.03596664790259612 -0.8715535780539571 -0.034708092905146676
Ni 9.244710949854275 8.496364590970712 3.2355045733527525 1.2034603704681466 -0.6213538730022719 1.0633938693301428
Ni 2.842988436342098 2.0136272716253676 13.024901116713371 0.455808253756557 -1.1292840442650487 0.33288586849800733
Ni 2.0816128164092618 0.7318061805938645 1.4516324242652745 0.09452249395961786 -0.7123369863500635 -0.15340975521412933
Ni 4.859583586189549 7.800530380815347 10.558851591530848 -0.7094198127032686 0.3195361866639787 -0.3405942928858586
Ni 5.367283720192698 5.082018248728881 13.309102562486423 -0.01821318057391702 1.5688413833803818 -0.19291141285317745
Ni 1.0989143397106922 8.594865069425008 12.930654903326642 1.4758654079722777 0.2358652907068841 -0.7477549608380413
Ni 8.562935110224572 5.541506441458737 7.430032592360667 -1.9075130053222311 0.15548077881054512 0.7036021775802269
Ni 4.825071664820674 8.170155263910592 7.05697765062671 0.8489340408822281 -0.03637005398860187 1.950628862675099
Ni 4.222610762692603 7.195018904167982 1.1181614434623917 -1.3605046371110698 0.6202909789553962 0.26451894988783475
Ni 0.854127786883308 2.8070523009657213 11.346422641876497 -0.9681494096028357 2.1107599957734617 -0.26111043842691806
Ni 5.86250590179464 3.4243801596366152 5.718955237163704 -0.744047430079467 -0.12486382525563658 1.064307639393664
Ni 0.6569862462694565 3.872401132486717 6.3389211077155885 0.44153246056383316 -0.4585194820401329 0.3649896910110875
Ni 0.18228193485300373 4.286764712372444 3.3908183268379055 -0.8316469716670064 1.4299514190489824 -0.0802238179487586
Ni 0.35579346796303846 7.722455887771862 10.713749106986713 -0.6840692497536219 -0.9030994711810383 -0.039815589335041104
Ni 2.5773403642719304 7.924547261197591 10.762297346535325 -0.11972650402907122 0.13194695735466308 0.2548562299870901
Ni 8.833701164244278 5.304406968880874 10.28210016328865 1.0116604455115932 0.5664263677264567 -0.28484069216432234
P 5.0879540051730485 2.1072946109316275 9.449975104549619 -0.25376376825385977 0.3586166976052082 0.826407577644938
Ni 6.9718675403861665 2.0023070673850976 12.787996439857825 -0.6024300395145755 0.9912245462547447 -0.3710292123369481
P 3.5869978338608837 8.884761533532572 12.545389393885792 -0.4866406657563812 -0.22325840057615096 0.15334239231130367
Ni 6.9696071749290995 4.350284657107012 9.170237421130402 -0.9515123152667873 0.4112939733942659 -0.29477877721364076
P 5.218788735836364 7.417710844076411 3.756921266519761 -2.012656726441121 -1.4608774192038776 -1.1597544449397639
P 7.682633026426626 3.675767714676832 6.59379201456383 1.42127677409312 0.7530298360837354 1.3397792316382604
P 4.261331006741708 2.194557581442865 4.990463340392457 -1.6939834019980697 0.47627809157513457 -0.5979894872447186
Ni 6.47698533245053 7.292389199893747 1.2239805442197533 0.516780165454239 -0.17090431245446697 1.0246627713085321
Ni 1.757866001310501 3.3458462427197415 1.9099095756648807 -0.24291011336880747 -0.93810941159732 -1.9140554344264393
Ni 4.9265583984519905 3.0653404025842197 12.375833500325623 -0.8363443771426758 -0.032142903281131736 -1.1377254901641827
Ni 7.252391757476624 8.511516390315034 11.05498527009759 0.23767611866337773 0.10115748277763224 0.30110060566661045
Ni 6.977104972542785 0.3917865718997152 2.022323246700848 0.05031623175604883 1.0624831845904155 0.2156278806140867
Ni 9.132289928036334 3.1779268169965804 8.73802430491582 -0.6744216993615287 -0.1525209248512728 0.07266168933078453
Ni 8.23350981605074 2.738708405560585 4.637809575180149 0.1463081111723416 -1.0308935827095922 0.5173486363631993
Ni 2.0150698625878047 3.3815894200692957 4.3079900953229515 0.8859625543904355 -1.952817385685985 0.7297850066231818
Ni 8.688945890217317 8.113967724195291 1.0274867912673782 0.13528373503737992 -0.5534479531889177 0.49679060970618955
Ni 2.0563628803278804 4.160855005631844 12.771051049711795 1.2010296495394672 0.5734220823179996 0.9886166763182522
Ni 0.3586418959780415 5.456393574674953 1.153776900975144 1.0716671650825285 -0.5612659065714398 -0.030547533769553846
Ni 9.362691000540208 0.7753172967946557 11.279692243114699 -1.5092779219944523 -0.8383207841427562 -0.4692525521869209
Ni 1.4555559041440043 1.5820352964876054 6.271396824500576 1.0154402242689995 -0.2189230064255907 -1.0382741914443796
Ni 3.839644210314183 0.20940172609907268 9.128440874825094 0.26972054869343226 0.6100333057831301 -0.16297143076063547
Ni 7.221996274013302 2.218153591580051 10.44238947732259 -0.15186915019988684 -0.9592474791275158 -0.569767773394864
Ni 7.693227340946945 3.2583995026591492 2.065841713683613 1.2394894961775622 -3.1110165703234873 0.48964577113129215
Ni 5.362358696269983 5.292581398379878 2.277584663841469 -0.4631819205128087 0.7253501107802799 0.74503344814182
Ni 3.3473439645469854 6.270115950741571 12.332785483389207 0.6107262180850965 0.48547467047273807 1.107270773218751
Ni 6.801917461142632 4.3855592221057105 3.8872212277944533 0.1484341563764089 1.581568086918431 -0.38842478210557624
Ni 6.850065083073651 2.2251000805456713 8.007474189191797 0.17942649099286517 1.5326561917090764 -0.2858642483328303
Ni 4.493588151694066 9.258769320379935 5.058390078920558 -0.9242421666969245 -0.09642202497517587 -0.44465943622858906
Ni 7.999837645568348 6.696378608948037 12.69233887633205 -0.18803840103159228 -0.0437365216560021 -0.09029945701720578
Ni 8.443668672693155 8.002787146835496 8.631109937644302 -0.5295801454323847 -0.4414643263300591 -0.018296484316342686
Ni 7.242991945027114 4.169914844415048 11.626469058138632 0.4382620173426775 0.30665675959814925 1.5512396111382187
Ni 5.9468469364711325 2.1246148909583393 3.517905077542125 1.2608371086154029 -0.9139014468925486 0.7915930410689141
P 6.978814029351787 7.456881323521436 7.240720553397086 -0.14442503521701577 -0.10431068369463325 -1.4514512407939713
Ni 7.517415013078984 6.861357721881518 3.3975562373650074 -0.037327789916180874 -2.119318426866434 -1.9129372616615958
P 8.64545682636245 1.0030601427671073 9.193543994227353 -0.05330231096756626 -0.2977340031872227 1.1508561140088696
Ni 2.410293843908206 0.9767535317769342 3.9309142758491062 0.024544007887951278 0.07881742451953523 0.44216520905182555
P 6.705282243614288 6.202369306371837 11.068891111897285 0.4561332411961435 0.3685105596801524 -0.6836612156819257
P 3.8159287499699155 4.09213438265053 0.9545495759761126 -1.4072712038426474 0.25809813396315545 -1.4576941363798896
P 1.668912350945197 4.464524997463568 8.701161971010693 0.2426486321773047 -1.2533983929491703 -1.8024839554043346
Ni 6.36472970322701 0.19094575025734675 8.958615758875121 -0.34200480008014006 -0.8145681618078487 0.1314067685804769
Ni 1.7023400319728776 7.313403247862494 1.3535812623591499 1.085584546494569 0.6185007198241929 0.712738078443224
Ni 2.150122104408818 2.0741517727054477 8.533462149899012 0.3176811357331109 0.8110714615085001 -0.1521699692697573
Ni 0.4288078664650333 1.546916935605859 2.7990408674615885 -1.3565649357370315 1.2941683757776807 1.2964857110569479
Ni 4.51690850750722 4.171173665828129 8.726512061496473 -0.31900756785401835 -0.953715750676009 0.8233201969688658
Ni 3.1108233660495905 3.266953975181626 10.481483692404632 0.7742321811929633 0.33508853257628096 0.2979497187424546
Ni 6.506186313843045 0.5425557044293179 6.410183263564484 -0.20198097925461342 -0.8352424023277487 -1.04838813994993
Ni 5.60287628246585 7.468706894022432 12.597514707712598 -0.0675883885729352 0.4314912742777472 0.6851007763419298
Ni 3.9854745362048685 2.8464984347347793 2.681113191097224 -2.4394320833004373 -0.5740517454821984 0.9613480704102862
Ni 1.4135921275487826 7.847373238945946 6.443440957759011 0.5889723713477728 0.7684019476644315 -1.3736200914471053
Ni 5.382894943410408 5.4471315893874594 7.128629397920236 -0.2525602348640618 -0.309161528297874 1.0820186835201817
Ni 4.164943878104993 4.414034313778273 4.408032400296338 0.3366193673985106 1.1600511502445763 0.6076748328532825
Ni 6.268452836319908 6.3320738543066195 5.38519665701608 1.0990069905480622 0.8098082785253603 -1.082552958757097
Ni 5.59380725520518 2.9465517658811264 1.1942273353314268 1.5997175041339482 -0.4189574034767946 -0.6550723483006395
Ni 2.8241979999205458 7.545338796103481 3.847172329903511 -0.1399870540503202 0.41401959985554504 -1.158043118675612
Ni 8.771642187427082 6.455851834274702 5.307022009568196 0.5366851319082822 0.044495768419529826 -0.23719275126905603
Ni 4.871399968213078 5.116511793142821 10.879525779764393 -0.10602226706910127 -0.09163488799917767 -0.2620828296425164
Ni 4.471636879023608 1.8402315133314266 7.266178149069238 0.10669846720051945 -0.6927102132580715 -0.28894083037562496
Ni 5.120729304300519 0.694070941329302 0.4645730961605098 -0.6647803196170229 -0.5997918305607799 -0.6948200605122228
Ni 2.8881130491862264 5.365501155563954 2.418630549514697 -0.39249792373368536 0.5593275518981464 0.6863181936887987
Ni 1.4013990179490763 8.895778518016407 8.739826165347246 0.7631435274789695 0.9325512007832519 0.40114042990003174
Ni 8.65918441169927 1.4131051382429918 0.6052891154926454 3.2139375727594452 0.43761435645634955 0.5652387751762588
Ni 2.4477552665442293 1.164630330560052 10.830452878152371 0.40062852326061976 -1.6261448450875413 0.41691157669135936
Ni 1.184900111853912 6.584995885083952 8.260839104583074 0.7712365888997492 -0.9986712323407769 1.2421680714509897
Ni 1.8036981269196461 5.477012518112589 5.08932125062025 0.8333953218166807 1.5175244782739608 0.08001093060700414
P -0.7400068967338328 0.6087467395637604 4.810189087866156 1.1605049499525433 0.30251882617037573 0.5677440580966158
Ni 2.2928007825280656 5.46519613608906 10.35367197082821 0.26632540696895424 1.103897485871144 0.9527035073614107
P 2.9793638189184675 0.1850862581761615 7.088916798304615 -0.9795584227707259 -0.3088473394915649 -0.03140139712941689
Ni 8.653965356497586 0.8733381367251364 7.071837256387557 0.8062262176010567 -0.2746452396885593 -0.37330361019342156
P 0.9238738439500237 6.320882288750899 3.278888888564489 -0.48830494083268167 1.3209425585477315 -0.193580413895744
P 7.223466430408141 9.139879610424698 13.30665567093676 -0.7703279610425507 -1.22519699081429 -1.1079598288659755
P -0.07955108137255334 3.610079289259876 -0.1618577871376854 -0.7286485790258935 -0.10290866114078406 0.18308928455643306
Ni 4.220543355262359 0.47445530367707667 2.5710793357254045 0.882190746052829 -1.283501382982138 0.42430889759669504
