# total energy = -340887.530129096 ev
CRYSTAL
PRIMVEC
9.08432540472153 0.00000000000000 0.00000000000000

0.00000000000000 9.08432540472153 0.00000000000000

0.00000000000000 0.00000000000000 13.29582848749888

PRIMCOORD
 96 1
Ni 6.630113089581044 2.2353435988124115 11.33378961289971 1.068530676336076 -0.11472108039467985 0.6149009182880765
Ni 5.066864216632984 0.6798127686721793 5.741031985539645 -2.4093002969120634 -1.4365856365360485 0.9443679909125219
Ni 2.9633341784862806 1.7106329672444385 4.490572785791414 0.04323489942923522 -0.5935000840147973 0.7216988871809377
Ni 3.4765803914767126 4.3933795889918 4.628104929257884 -0.04213549571746937 0.8111791907309578 0.021071990178950808
Ni 3.983612925935418 2.881420816906495 2.699824244951735 -0.5157368117913892 0.20723888521944306 -1.545633577805351
Ni 5.259361070561748 4.923268286002878 2.284488890462681 0.8692010186613806 -0.5364853571926502 0.7280693094836558
Ni 5.6700361661520065 3.196110930967197 0.25027679681354376 -0.10851932245934214 -1.5756900308710993 1.6863693370962378
Ni 6.057010256933386 8.252164800447032 12.151057308272982 -0.40401852277877515 -0.03548045229479695 0.4761256251576703
Ni 2.0623962130127045 6.542549277640537 0.36369369023568693 0.47705173651636545 0.7307764240021737 -0.738108953107845
Ni 0.5283579881914936 0.4936567738298852 0.6053967007944895 0.7079820518154775 1.4435145024453977 -1.3194852572759146
Ni 8.125056920306813 8.983725519979041 6.900508033289852 -0.2322708884874064 -0.9218746949060124 0.008071721264540938
Ni 9.088504128436538 2.872227479663649 1.2516837668038985 -0.6318578578573892 -1.8378751904194348 -0.00846510004821768
Ni 7.141633280757108 1.0709420298635177 4.903621615592697 0.9989224291196345 -0.6661915981422527 -1.7309136993655159
Ni 0.6667240727240641 7.5785439079257655 2.308062714716817 0.3670182914053421 0.5602341228728158 0.1731051767605277
Ni 8.135113268456843 3.9769631997874306 3.6278462179903515 -1.6087821854393776 0.7338787170765813 0.38966071139520636
Ni 7.854244097632421 4.285984694836734 12.233930883041078 1.956608220186985 -1.6362986456920918 2.8723963425792856
Ni 8.651202875278313 7.532204764372645 9.170704554697028 -0.24413627246642466 0.12747966561192883 0.13795485411163982
Ni 7.059011341800898 1.039364914985916 0.4068978331143941 0.5536736960464788 -0.2857279798652821 -1.5488934795035454
Ni 2.1628143453075865 6.955513623216169 8.790217580640073 -0.09341974781374233 0.07980267125093998 0.7671336224749692
Ni 0.3111990078330088 5.15026740756833 1.2470289585003074 0.055375648556827216 0.5658720378848835 -0.38855385148427274
Ni 6.55623935592608 2.1218077007283305 6.822594500156732 -0.709888781919887 1.2401572116685482 0.8443356228782686
Ni 3.7606472448203845 4.609277664993261 0.49124216015483735 -0.695856215086221 -0.04470994131286493 -0.7478398072423637
Ni 6.198080745119311 5.5903938859069155 4.503868604357254 -0.132692577271436 -0.0804449328206292 0.4579926630023854
Ni 5.727430933642422 3.0227547505272447 9.07625119041959 0.7488571927632846 -0.18930492644884173 0.2840739892016269
P 0.29877437606715845 6.029611931711624 12.400527416996443 0.6704238910560454 -0.49288561822482857 -0.5255602256397143
P 4.055987745909484 6.32631508160154 12.431546754298243 0.7845209647134812 -0.529282668796624 -0.4384864746486577
P 2.465803848331939 8.501874735359436 1.4721140127168784 0.5126023799274656 0.2936140674815782 -0.7071721543196725
P 6.499671262041492 8.06003131953182 5.696796771734987 0.1297111260456089 -0.40046294421703293 0.08217862768228427
P 5.068717419002096 1.1865673227755187 12.606041200703142 -0.737077169409221 0.4321651604163202 0.3124476552483135
P 4.176663923709847 6.0135780974886766 7.841015503074089 0.5233760735042019 1.9464829588275252 1.2060777534863358
P 5.120398145854419 1.2357135228583223 3.644718535442069 -0.2780203268083793 -0.17116887896976327 0.1312923544897997
P 0.5162313222967553 5.848770267192517 3.540240618153286 -0.45982817354922745 -0.8652476904405874 0.8228890229687182
Ni 0.8678719296729479 0.37925241424341666 4.592538887124024 -1.1458411772927815 -0.5375132842365324 -0.022725723732289895
Ni 2.232418446053324 6.862935263688654 4.539714443711548 -1.3168624749410869 0.1709045695647831 0.6561318999134054
Ni 5.695590373329996 5.553002802812494 9.379103520131329 0.9352269478432021 -0.1072240006866863 -0.6689084828527835
Ni 0.030110904767922504 2.7566203554023256 10.268913187064898 -0.8882924880751928 -0.556557445352177 -0.5117621434143573
Ni 2.4120518953023735 5.561860020017805 6.822688068707721 -0.3335684963873287 -1.1864165276119825 -0.7360189033480357
Ni 0.6580866961919515 0.5335569475828779 9.179586299580755 -0.1090692814255412 -0.30154720628572584 0.13960987321655957
Ni 1.7530385979258667 1.4340697666305988 11.648754073585645 -0.44549504475600693 -1.1774747450376626 -0.5328655010518758
Ni 4.3908541465476185 6.986291317463958 1.3968867145864354 -0.05607601705796149 0.9991142334154666 -0.4581749542165206
Ni 5.56346794560277 8.028063578664652 8.137871269629697 -0.34636256282820344 0.4400998418823646 -0.4007632490662711
Ni 5.5150030699203745 3.139978884698871 4.584402056918078 0.7170050812496942 -0.09141197335509417 0.21063994048119206
Ni 0.9089594247477192 7.4950952953637255 6.5708378667455 -0.24269414070325943 0.23056084777483518 0.25332770915770564
Ni 5.240056879216838 4.656198205368064 6.522148608227237 -0.4697773143421394 0.41262117684612165 1.0433104683167065
Ni 1.3100414727802259 7.944624050427951 11.467625344385832 -0.8999257014387468 -0.788459637646255 -0.8768508218971544
Ni 4.82087885510948 0.9662633489847479 10.429885615203025 -0.37957581635537857 -0.8309838841617109 -0.6279333259920024
Ni 8.345551664929697 7.669823208929834 4.548848732839692 -0.05183729638626556 -1.0698231698952545 0.33821088025534657
Ni 6.985237535724659 6.344383804700375 7.052453367338831 1.0733982888410223 -0.16961850376350787 -0.32765264512352604
Ni 2.541539868681354 5.426176536757777 2.54487472451322 0.6160100921918552 0.4519986502024796 -0.8686063225001751
Ni 2.7050395561287286 5.618964089097381 10.735942894894283 1.0429227459599844 -0.43403949462089764 1.3998846815705892
Ni 1.330299518285707 3.695848752178862 3.38792373519795 0.586129759692655 -1.4288571575435391 0.7114193596318006
Ni 1.537785509023458 1.3000305462568897 2.4380694030726415 0.6701238433171233 0.13899049446500578 0.9647630096291062
Ni 1.296651177230863 3.4641530344132603 8.1273143751535 -0.574618416618946 0.690589824480959 -0.9265345622755269
Ni 3.901190842136661 2.819901765712272 6.66255321536583 0.528786960107128 -1.1711171782507508 0.4966294015379769
Ni 4.366798853050527 7.122574366196346 5.808455848204075 0.4667459837149833 0.3837204346513714 0.5337561311869453
Ni 8.587103875687877 7.779798051481113 0.11063254770580687 -2.073347359452958 -2.1092268469583866 -0.37600866782941045
P 0.13648744605251062 5.93166473590889 7.946225616985177 0.8412929793972028 -1.1405264499480874 -0.5186038489265391
P 8.39738682531278 1.7748864003656342 7.773193746959819 2.211036361497721 0.8993487458893543 0.9060706379942203
P 2.1502779763400692 3.5730377579238857 10.237933820794588 -0.2929106136566504 0.370953107683374 0.6497931021795712
P 4.158195490296106 6.44604648956667 3.6550764831933464 0.9512318079118908 -2.390614290466786 -0.2864671720241518
P 7.280950494152648 4.221186202195211 10.278486249106905 -0.5108504302333654 -0.1795049096392844 -2.3702802068951243
P 6.715396735861518 7.900919361223076 10.023618234267142 -1.0124945113771144 0.2734545618145678 0.008129828195985999
P 2.539377799250724 8.814357358362814 5.678355591297261 1.3535701147747656 -0.4806651648992368 -0.4604580938237425
P 7.312173320342038 4.095559067085213 1.4106476506096204 -0.9889020687691548 1.2355546798995303 0.25754611811442746
Ni 3.111953741028733 1.3379848575223152 0.532229727650882 -0.8998477970129598 1.0423825571857983 -1.2508997948970328
Ni 1.370025272992195 1.2020651818034784 6.935835157667302 -0.09355164540591632 0.4727366540807795 -0.2932844520563014
Ni 7.208275891442403 0.9261287996380148 9.356992272256736 -0.7331852905539824 -0.34096170352760635 -0.9585913336007554
Ni 2.648525968196174 1.8062818287364604 9.191964601287378 1.5272753870131375 0.1439252127624618 -0.38527749472584616
Ni 6.805667676752981 2.013613385943452 2.4668812493171184 -0.8769611222227734 2.643883892693047 0.3494725692120949
Ni 4.4218135273021835 7.23831775533775 10.299453780421345 -0.2985976367390986 1.2198172145596153 0.21033037966057325
Ni 7.5425245579575 6.303713280158654 11.25018565837438 -0.1575813700933157 1.2107463626065986 -0.85087316688647
Ni 7.929934696355142 3.9466488061319196 7.7569328046034025 0.12575188428754472 0.755938267979782 1.619599844880172
Ni 3.3797687363413265 8.371814449484113 12.369534424238124 1.0946471709174697 1.0556715609852205 0.46627290073330663
Ni 0.5239575409973883 5.125957752961752 10.092610959917579 -1.465546799655089 0.7397534306898035 -0.3014129947007067
Ni 9.055019305237794 2.6972542893133937 5.651511409921165 -0.7279546382826624 -0.9654682632262469 0.14923119835640752
Ni 3.6002271436628566 2.991477418385823 11.78684490306045 0.4494478587561679 -0.042864917684326174 0.09319451917681369
Ni 1.1568343259416896 3.7087575784852693 12.43235707611846 1.0352714000623138 0.9368295164436319 0.27968974409100217
Ni 3.072800298818588 8.926557860622095 7.788643459063484 1.3718205763445213 -0.4578047153612954 -0.1341951299588915
Ni 6.07888531234917 7.5718578444764235 3.4231972620559015 -0.978079010011722 2.176608004616522 -0.2718463367871834
Ni 3.69742942478781 8.45856067214413 3.3611858404283166 -0.8425721032199426 1.9241495854376474 0.8706688614561585
Ni 3.7322859811127116 4.078516872749661 8.69056525697125 -0.8081216348515566 0.610529014472626 0.4549158238492746
Ni 5.563767728338949 4.43331428318108 11.734074057167474 -2.162844632283843 -0.1383729154856649 -4.094449645558271
Ni 7.907705352251146 9.152457778821555 2.651680045953799 1.0839225854111139 -1.4939963132450333 -0.4455174133535101
Ni 4.885813612631085 0.5135178343180615 1.6427530714480012 1.1736083201037208 -0.45934532037553794 -0.5118978976612732
Ni 6.167775435789139 5.73982195340452 -0.06149906567847758 0.3524933583162897 2.8472951766362837 3.0437277152688416
Ni 8.2945795154538 0.02881547997461238 11.230294619612584 0.13396887288069834 0.24241440467931152 1.0269004023897992
Ni 0.19562277027783745 4.9544456905655725 5.868259778774337 0.41548024356147156 1.9818968195504447 -0.5213251045124441
Ni 7.578080607333487 6.092321029525228 2.5541688977673265 0.39285582129373636 0.3342002164340567 -1.1163537093566258
P 8.72080697602405 1.9182370542115939 3.603927189373342 1.049054312779019 -0.3928316529240202 -0.8408535778669389
P 2.18133728467336 3.263625636885015 1.2666847132358274 0.0488653582421352 0.34593524548279775 0.3101287773071497
P 4.740309973679834 1.3617312839578881 8.03684993813232 0.47250319791373463 -0.5858507949996555 0.51661407219002
P 8.725785186309704 2.0227976388609594 12.345934255440506 0.09637137424289854 -0.8696949275786635 0.6440078629563618
P 6.514197098258203 8.101165144665819 1.175619802309754 0.7864045548894392 -1.4132258787641856 0.1987125929159868
P 2.091584150326207 3.2353188791293745 5.8677946613169905 -2.2280267254081303 1.1167771700472895 -0.4335049622736663
P 7.1662427180998645 4.19810293150937 5.783459418601887 0.5682531365225504 -0.6045501711813718 -0.5864511475878158
P 2.827614357924897 8.94664330394614 10.047803433616576 -0.9236549267348867 -1.3413095522398577 1.1815561141958877
