# total energy = -340870.7326026532 ev
CRYSTAL
PRIMVEC
9.20473066161192 0.00000000000000 0.00000000000000

0.00000000000000 9.20473066161192 0.00000000000000

0.00000000000000 0.00000000000000 13.47205375170265

PRIMCOORD
 96 1
Ni 6.603409311183594 2.0059501243377005 11.801761596934055 0.5210597666661994 -0.08149702823422739 0.22777634305116257
Ni 8.610583664693293 3.142697536556567 3.3993760521637864 -0.2849975294571608 1.3938747279310832 0.7536826391763859
Ni 0.4693574983943689 2.2361328228652413 1.5291183846827099 0.26351493410335264 0.6355957276332667 -0.2778776305829279
Ni 1.0986766463889022 6.212162236328029 12.697842122453155 -0.11464111908636387 -0.2961226928360448 1.5332141210950756
Ni 1.9378351177753856 0.4157795228947386 10.586164621307878 0.7504307078979915 0.57053576190914 0.18781677193908944
Ni 3.8779345992824377 3.4061829504547094 3.7843675920923587 -1.1609847178024393 1.2612577410925891 1.0988756071765204
Ni 1.426714836100763 6.781981085144257 4.271018017896001 -1.9846540705806077 0.992109519962859 2.196331451187379
Ni 5.135954337374074 4.402162417354997 0.49437043337172487 0.4238643538601087 -0.042967247590145356 -2.002005931595494
Ni 7.54309264563319 5.178112003597776 0.3482241639539088 0.3816715225421427 -0.7419463245760641 -1.6301444531652376
Ni 6.652314044949212 6.607625077805964 9.709619295576239 0.021355839967956765 1.3260192017396903 -0.060457433955108775
Ni 7.750346360194958 4.625128607079179 9.706399480806578 1.7287151490523003 -1.8141169116575724 1.038171090207612
Ni 7.543865843004979 8.812332950346375 13.151904119982039 -0.23639390951684447 0.20374629868515232 0.19074063045410375
Ni 4.204343551675173 2.426238124288415 1.5752064708796707 -1.993071862330658 -0.18607844909174406 1.6452676819599212
Ni 7.4245081011004475 0.9458597086932877 2.8380771020062174 0.7557968573059113 -0.017571947445492318 -0.29949675151460037
Ni 5.15025848875216 3.5304744279697005 10.45777611819547 0.33797973808114695 0.03080875785074049 1.2247758441164711
Ni 1.9067599472139838 7.249774699806878 1.796512127200631 -2.2633308000260635 -0.04447417115297502 -1.1436246292574368
Ni 2.6374866919377555 4.263032914086162 -0.049693579179455154 0.9145758472517539 -0.30220283759185373 -0.893803390591093
Ni 5.82598696804217 6.856060757146082 3.6507922232775365 1.0999873521834604 2.811555814253145 -1.958843280165091
Ni 8.654812395305715 4.538935509586002 6.6706738006369415 -0.8844877696171218 -0.4804533059987468 -1.142945086691909
Ni -0.027351857027015945 1.1351457890915901 4.486584524677555 0.6360636684086207 -0.06639616803704693 -2.8586224287236446
Ni 0.8722862968753714 4.912877690882493 1.2432507478174153 -1.5345354110096605 0.9332245727011929 1.2896537757367788
Ni 7.371737380475887 2.611510942137911 5.81498271259011 1.2194179222386676 -1.5974171381355455 -0.49005663341646577
Ni 9.113760263845851 0.5622332303151466 6.522130619366581 -0.709006893535566 -1.9381762387340429 3.0679199962443295
Ni 3.293314543634831 6.803207193945972 13.201736690593801 0.8077105154560671 0.5614299429531298 0.2024589473322965
P 0.6161600651051434 2.4166099760635253 9.60159994084515 1.7808139266300687 1.0143444201016596 1.2798452742867894
P 3.1650558272241156 8.753514721706756 9.031435914630801 0.6641257167521595 -1.2111240576609916 -0.4458118046654773
P 8.903284893568298 5.375654727359105 4.621641855121639 0.8210092894475022 0.4976712125389301 -1.0893882365113754
P 4.63512494452873 2.526542073816731 12.999925733245588 -0.6727119157592737 -0.3601824994304313 -2.0047757810311473
P 4.273222550878659 1.3842810279585642 4.688193898425267 -0.13509321629312865 -0.7011732564237602 0.26939247593005217
P 7.041664945297773 3.5413912384809043 2.0151493321158593 -0.29341146455246886 0.9166558697092343 0.25477678289940636
P 6.220179556695025 7.882231740468585 11.612909979820852 -0.20245663333945135 -1.1230010394698144 0.7712250189355234
P 7.061841714809205 0.25327552669828884 4.95653020535832 1.7373298873045047 0.5283246757587289 -0.05814395533058374
Ni 2.445862609962855 1.765752678899376 13.363441716172737 -0.6766780994958733 0.22406367008626574 -0.39081693648683663
Ni 7.639024348118657 5.64101790630302 2.570804861932434 0.13479342566452268 -1.825481187630456 0.6916540040794154
Ni 2.549471057782505 6.450159751149003 8.575191475472739 -1.4508259485051467 0.9044580420914616 -1.5703742750851406
Ni 6.916029577112769 4.61826187803925 4.778712298835151 0.11795732794379041 -0.08741853592498493 -1.7525719010652396
Ni 8.698295542738197 0.6666434101714969 10.2994252964532 -1.057144031765689 1.2864332119169521 0.42722170036811585
Ni 7.647455881363396 8.241188620321367 7.669936594948145 0.5362318464209475 -1.3525627565561738 0.9571155203861775
Ni 5.779328188546985 6.735073777922425 0.48399854291302 -0.5094100982424131 0.1764059589989865 -0.002408866551808755
Ni 2.6328843266294912 4.819836273810618 6.756747236632104 0.04677787958548718 0.5734141118981996 -1.1331175590785258
Ni 4.701711965808702 5.452928440884866 8.164697308898011 1.0143302790342725 -0.9947407869381191 -1.3122861684243141
Ni 3.8029068400271093 1.578721757502123 9.34324616426572 0.3893694054070327 1.4160497213662255 -0.27536977655940964
Ni 5.096907870098757 -0.009598693086916448 13.361030076751206 -0.48211706685441486 -0.19481145808936773 0.5745723938723588
Ni 8.290792913613842 2.422188042817142 8.136783963303387 0.5151868528251902 -0.2390498590824528 0.021974704498878284
Ni 8.833301326690828 6.312024358786752 8.051195616611716 0.5949648414857818 0.4336795401783176 1.0121510119947665
Ni 0.04115527105956285 9.181369010224255 1.3694881053847405 0.8014298246536778 -0.4432635843223269 -0.6154722174105143
Ni 3.0927802824231296 4.289652995029164 9.494820463328104 0.10832160462623926 -0.11155682373408528 -0.6506819325424278
Ni 5.294874011468447 3.5393477882840347 6.045840117871843 -1.43143391713178 0.5362105062647088 -0.11024787511467465
Ni 2.8014137394875203 0.15715512723518468 1.6091157779979017 1.4879220820264956 0.3981708057487465 -0.8643310921635888
Ni 0.2224065421026972 3.865084795341763 12.760405755980642 -0.5767244072183552 -1.5558079472351916 -0.41247719506908964
Ni 6.305341724359152 1.9654861285474388 0.8909847866497884 1.3841605859671129 -1.151318655467585 -0.4538920105704506
Ni 2.4534657174521075 2.7676691970473253 11.061350555128636 -0.4982695082445612 -0.1510703084476753 0.8225437238141575
Ni 6.633904583716154 0.8488169952224074 7.164209364941747 -1.0045027514208895 0.9494716306876745 0.11111613665224089
Ni 2.804276410709261 2.379174336646102 5.860545208668867 -1.490052498105937 0.2820343330637788 -1.0402290011779054
Ni 1.0290980876585596 4.310437276761286 8.32734581936514 -0.46376967469547875 -1.118765661232228 0.8896173775342033
Ni 3.4017830892200083 7.97063397330973 3.8216716038619656 0.7134567017768035 -0.1340336646803627 -0.8327929123459916
P 2.0975648081640137 3.529885325210243 2.1930344331725293 1.7915040593540632 -0.5231493022053765 0.8024803774053793
P 3.7459571717026448 3.1981836527130034 7.507705979251007 0.6883514220687436 -0.5780143296743723 3.0543144896457526
P 6.952866909040117 4.250219929067954 11.702148922675041 0.38749738519530036 0.3546039769013893 0.5851853935015148
P 2.996296296100673 5.577256737322323 11.3249050045064 0.01824891890785889 -1.048243901062582 0.4788486805157882
P 8.533825416082056 7.861263364124132 9.785169883530587 -0.8244527679114124 -2.0302690402062455 0.805149182486794
P 4.0394592121412884 7.092999727946156 1.8548461870098218 0.7839746052917079 -0.48034069168028243 0.2745969029491271
P 6.315126353004522 1.0115906900259213 9.498565868215968 1.193577821247112 1.4124617469046514 -1.45344770239871
P 6.823595672261584 5.199559025934289 7.915181914656575 -0.06926397650314522 0.5596103732458878 -1.6528143839589278
Ni 6.065079845806511 3.1191518356394856 8.36745175113442 -0.8839306115620712 -0.3377835629099408 -0.3907539444593851
Ni 1.725748919639941 1.5630276918009411 7.809588006442938 -0.04336036926350596 0.19776488429073683 0.7957392020268038
Ni 1.6428695251687138 7.157543299029257 10.66368318066804 -0.3645099231611915 0.9173986614125297 -0.6809093639684015
Ni 4.330770526693199 0.8912922246523803 7.110550387812691 -1.2322726667141488 0.30154926316825487 -0.3655339935503318
Ni 5.924947026900473 2.5412880522644112 3.905898570895453 1.6132001120014152 -0.28381765021644667 -1.0741320816832534
Ni 5.199697096893537 0.15579742946924668 3.066738258562846 -0.6918967162178407 0.7962757912565641 -0.6808849384883693
Ni 2.3659563434807667 1.6374939624886609 3.4977893500234676 -0.6044614681223074 0.40785795112952333 -0.034236038364734586
Ni 5.170812652218869 8.643729899643414 5.3609345221571525 0.21881347743091994 0.08468236794074449 0.6197322782384488
Ni 5.339544569150462 7.937533762012691 7.763203527920126 -0.6955104017110281 0.02780699490993921 0.8387686703134521
Ni 5.335448464026107 5.865944703648523 11.816419209967817 0.4581245605945594 -1.4819758917453896 0.44796381801147367
Ni 0.8475062415826136 8.449684973516366 8.541793951376787 1.7876042100790248 0.6517322281838129 -1.0280304022291844
Ni 8.664679866526633 7.3604984043931045 5.649263503989307 0.19111832550849664 0.26518460849629166 0.053960770487171586
Ni 0.9022394107746183 4.744578396289876 10.74634718444284 0.09122762525842999 0.025128676746827693 -0.6970412365332577
Ni 8.26666731466792 6.759180967407114 11.771234107844338 -0.8772873952139407 -0.2113382520997973 -1.027472215732869
Ni 5.1325485870459575 4.881701268284309 2.6293810061568403 1.2235725678369895 -0.06836100507290162 -0.2701663779815992
Ni 6.307606088090818 6.458941064157171 5.862108171927554 0.7534527825537669 0.9809416762714978 3.10284431892534
Ni 4.302539617892304 6.745493532980335 9.99758377007598 -0.4941688558126263 2.1637139222626733 0.1330497035005386
Ni 0.6741075262284403 8.753597564282304 12.330404924283364 0.1270430922951425 0.5001844658790869 0.8477801297834432
Ni 3.9228260704992497 6.841342392890252 6.142986844798689 -1.768346390290677 0.5231297618213507 0.5833902492743049
Ni 8.388722042643094 7.685434599887196 2.9567785466177905 0.3780159280674264 1.6435355297601628 1.5136775937240445
Ni 1.6957138836382066 4.090177277838364 4.386204175885121 -2.186867220450685 -0.5414043917608224 1.1162593498706066
Ni 5.071171443294942 0.3080418329205131 10.990285432403722 -1.9315091111265124 -0.26282433579423126 0.06302930844734307
Ni 2.1213590368077413 9.09106139814549 5.48225011026382 -0.07003222212773745 0.42873248058568736 0.2562068304777136
Ni 2.7434515507952373 5.627984007750015 3.0677756317033285 2.890198660868029 -2.1731424146654255 -1.2196956013800866
P 8.987701478052486 6.885893289074253 1.016335728658742 -0.18048295728183758 -0.02570280408274283 -1.0913232487505593
P 0.36948156883972094 2.57412132637357 6.183820870759735 1.4618726932376114 1.2232115849531449 -0.32835687027940225
P 9.008660649666323 1.603013041599143 12.994913757424888 -0.3240104203852484 -0.8704714007333719 -0.2858740185248431
P 6.418780824477255 8.310509446594446 1.6554192548912892 1.6229865019642178 1.6249114869010726 1.1157986081841043
P 1.7211649637929094 7.375078697689687 6.727324315216369 -1.0072636019954782 -0.7912603403198437 -0.5249616728237668
P 2.9989932821713157 8.994227632059605 12.65633431021098 -0.5484993509343908 -0.0669219586335299 -0.7868897220559739
P 4.675809853853788 5.5753697675459355 4.680097417374968 -1.7372069885733954 -2.916463508101829 0.49046029661278767
P 1.4322468792012968 8.950956193431303 3.231689792630231 -1.744672700822821 -0.8916966286607353 0.6464637806960221
