# total energy = -340869.89110162784 ev
CRYSTAL
PRIMVEC
9.26142667028376 0.00000000000000 0.00000000000000
0.00000000000000 9.26142667028376 0.00000000000000
0.00000000000000 0.00000000000000 13.55503409131518
PRIMCOORD
 96 1
Ni 0.8275547794394827 0.7018744411995677 7.910622578035138 -1.4433311827899982 -0.18346055185292273 -1.5508575452084516
Ni 4.734959949830588 8.490320278701263 8.488284617120817 -1.6991114672532543 0.8776982574991141 0.03227428665267345
Ni 6.035384651810737 5.513864455011266 5.2270380712695514 -0.5331359811044432 0.5813346522968569 0.23756941788218439
Ni 6.452630445815633 3.729104184282114 8.644627686755374 -0.07234004432530768 -0.6153012390502887 0.552750412901261
Ni 9.298194526482654 7.769596055815241 4.902625113560213 -2.350429747828101 -0.6624028205237817 -0.016880063584790283
Ni 4.780924410357231 5.55029890750206 12.878556493992233 0.4042136695087168 -0.6534674657073649 0.9277892606182344
Ni 7.937126002715591 5.49385977341998 9.565232019874323 0.04555403448071509 1.1433564631977147 0.32416134414081593
Ni 2.35054082554934 8.693747515345976 12.247772763855028 -1.5272684450346021 1.1945538120071364 -0.7053086187483724
Ni 3.1370582234467004 6.4781271534178595 7.876111723862172 0.6164165836016545 -0.0027891327093629388 -0.7901164565233876
Ni 8.103526055563101 0.77798669779841 1.498075586815376 -0.6901262545809792 0.45579796934391176 0.2230200593130998
Ni 1.0161544719973208 4.409707906865615 3.5198765161185954 -0.24287488925549786 -0.84209542069384 0.0513924955393631
Ni 4.673186233990832 0.8549185906568953 12.397962541614932 -0.21075409746155316 -0.650940328410137 0.9736196886887878
Ni 7.284723324319805 4.5111297902480985 13.373003688371497 -0.3794215501657014 0.693380756962535 -0.03566300061924826
Ni 1.3013878903530613 7.722742498328985 0.5085199321931343 -0.9497863337146157 0.35474744445778905 0.0953961548138228
Ni 3.091714278506454 0.3183226435359921 1.2351020074432717 -0.20025628325402284 -0.14887021547256296 -0.028524589802254103
Ni 7.796407886003561 4.883466926365892 6.72312059906713 0.8590140508260496 1.8105086254810236 0.5444501205656817
Ni 1.9182915203509792 2.225817192683675 2.1718147399565337 -0.9263134474036563 -0.11075283977555118 1.955810406876038
Ni 6.1702217625919955 7.608299049058842 6.8197950751423475 -0.2833350541530733 -0.3772237711834342 -1.2497474264601445
Ni 6.974622975374897 9.26855796116223 12.475145419135975 2.480276885230941 1.0036797412989615 -0.9390825741438666
Ni 4.351435010304335 2.122830128195207 2.242897115734901 0.5895518980003266 -0.0658490372843253 0.5949843818698076
Ni 4.061728322870542 4.396047302538232 8.881461815514866 -0.5905232607746603 0.19507705304592857 2.1814555625168106
Ni 8.507666930840374 7.266413483807781 7.326251561475048 -1.1793107698051368 -0.14282246661658626 1.1778511545404746
Ni 2.0704660218446858 8.084817973704583 9.359981208319736 -1.4891968349738611 -1.2111577391124044 -0.5135655151716833
Ni 0.7226107754972008 5.604672743438372 8.332739882464578 -0.5017698080883358 0.35759468409859707 -1.13396936555586
P 4.424090902472682 2.6525096418844565 10.327932732966058 -1.2924861029792516 0.6160301467965132 0.8928672519300688
P 3.0534275406831335 2.4569546179029818 4.320802841617679 -0.13816028525422658 1.0929960084672916 -0.6358996320269307
P 5.129774568458591 4.0408808514529575 1.146445148429894 -1.8578480339969359 1.8575634128769816 -2.685551190524846
P 6.304225344973617 6.93022369595424 2.8054037562298495 0.5988924586749622 -0.2467945360248782 0.25523546770337974
P 2.244210386035662 5.6559625242960285 9.74129822372962 1.7385953842804898 0.2884793173581741 1.380711708186564
P 8.818758252438183 2.850917185278022 2.201445748420959 0.6138547364117494 0.6219249150143934 0.7256568433874213
P 3.581838238919602 7.878899413287624 13.6428705476086 0.6902105867646694 -1.6686703771545779 0.041854474141940816
P 8.435409280018519 5.376869431817613 4.636512836692143 0.5270416952812471 0.32366717811321677 0.6047003236059909
Ni 0.9845081770911073 0.8016690919174263 10.132808365324394 -0.02464993733819626 -1.5358369034299033 1.112319134275936
Ni 0.6605981148495493 1.8310488811889856 0.10434664192254227 0.5212906517300829 -1.6248752343464983 0.7395989073898102
Ni 3.2659031911772365 4.1159261917002645 11.499345761535741 -0.5615183889018781 0.5053984059798586 -0.8783621163353583
Ni 1.237474784954238 5.4254641375164425 5.785939238364739 -1.9013652405532804 -0.9941059815675977 0.9243699505240403
Ni 0.24456093702412576 2.9399750640658913 5.4561453917644105 0.6303427067644435 0.2580582818641556 -0.008490811079830539
Ni 3.1189891800279055 4.255894132852623 6.7478717618230135 0.21063094162012755 -0.38355074184272653 -0.46595691215478463
Ni 7.397388579670723 6.612315964332734 12.192346829849841 0.42243739160559507 -0.24838064956507547 -1.425180222912584
Ni 7.830749256068601 2.2469980754611143 13.118236659165152 -1.8091472263571229 0.0837202611377913 -0.9817713712616447
Ni 7.915194944378479 0.33523863933528947 6.379229934943608 -1.2751272999858299 -0.7616324901510818 0.4134709264409266
Ni 0.8011347075989925 5.072890885896705 1.12809085306989 0.9718883078199777 -1.9178323849703678 0.3205291467048673
Ni 5.354845759213874 3.1167016076422356 12.47908986075159 0.9092963440203695 0.23279642197357325 -0.10899934741955422
Ni 0.7938978288048119 4.14050601806289 10.458494769199845 0.7375317404481363 -0.0853354281437111 1.1531184276804851
Ni 5.710456758778955 7.6899848322232565 13.197723779639858 -2.1706476732680295 -0.2554545256927213 0.42116958063676496
Ni 4.319936898224723 2.0431911203232342 8.239142978469355 1.6574973912568938 -0.6778615782810132 0.2977769406100162
Ni 2.238181197278289 6.997276424991695 4.65616743635558 0.8832497834449627 0.6202441848778608 -0.08562339169777512
Ni 5.654749277403223 6.398191779892682 8.804008504335275 0.42277523456098803 -0.51309088952811 0.4961619749832552
Ni 6.073393546834178 1.3484266763725694 10.35201985143023 -1.479731575795903 -0.8921334590878378 -0.5729837092290003
Ni 4.293365865129632 7.294642312275484 3.727512145038807 0.806112831951644 -0.23628335208090923 0.29066295527305425
Ni 2.1525870920622436 2.5099948083998753 9.176215980479792 0.3648400528071007 0.7775440191750157 -0.7205462616337333
Ni 8.872085547161618 2.7591920156113146 8.760171393513039 -0.39430232393227577 -0.032449892998589275 -0.5688753434875815
Ni 5.299925499104466 9.062537525051981 2.3827983746152874 0.4546959945289847 -0.09940244775973849 -1.2741487381226444
Ni 3.443750367379759 7.008649456933408 11.15889756970272 0.7620256118244425 -1.6878628909226285 -0.3207759726083508
Ni 5.211645580156257 0.5968341184199942 6.401080418868757 0.6660478734755368 -0.5704753409848498 1.8050972246574655
Ni 3.6223014120086416 0.05014506852215472 10.538821901072852 0.9755320752201523 1.5324954977614962 -2.1287744300730114
P 8.968635920119556 7.8009089393616 9.601844291757038 0.5202629817965169 -0.8457510151685562 -0.4968587439399636
P 5.889109679101126 1.0432719292655075 0.6433505599757298 0.15605979124246672 -0.2581073899345362 0.019690536450391895
P 0.5860538177846907 0.6527999935996133 5.6325098135582445 2.053026131397103 -0.5600050375811452 0.7840306553406239
P 2.850537466784854 0.2806721657243942 7.905621407637316 1.6843983294127958 -1.0025350861715574 1.6002157839266054
P 4.161566502293716 7.646270898375634 5.812289849505259 -0.01638512622624275 0.316859411162764 0.7083916285490703
P 1.0105513088664286 3.7196667905128917 7.289341997796459 0.46798396988714247 -0.5873736594020852 0.5980578785888088
P 6.959239745688267 1.3783410844928707 8.307487676526247 0.10113948505550323 1.4240633356993218 -0.7941692864365225
P 5.264306052159983 4.898581574679308 7.181565849580745 0.47889676014490423 0.2045363986866155 -0.8330196836448169
Ni 3.092955309679247 4.10732232633068 1.7643101145153932 0.01598377702276602 2.3307494957903536 0.32380473213234556
Ni 0.6433783442557177 7.114053753780823 2.6398566807779686 -1.9628315753888774 0.4486464459007951 0.3717185250944888
Ni 8.183174324861737 1.4987488925337493 10.857554825809997 1.1650838275724773 0.2575188644209178 0.42154778991179015
Ni 6.64713892858423 2.8635127255392017 1.6357133530194152 2.3239566412382358 -0.9997318123948074 0.8396703561921153
Ni 7.0088532083199855 8.65938762242761 8.894691763502436 0.8414583013304735 -1.1839642094167482 0.7456237734276513
Ni 8.107777050401248 5.046782924134745 2.480516613475384 -1.0817464036954014 0.5013219219176398 -0.5768185095940582
Ni 5.645117393674086 5.0153125963351215 10.839879393024365 1.0128364680975654 -0.4989876173575084 -0.5380239053243637
Ni 4.586841953215115 6.63288559295044 1.51291794918491 -1.0274375058401917 -1.4541303302880313 -0.16682859972319655
Ni 3.352479007619521 4.8395399797050285 4.365100245345047 0.39140597622108725 -1.0474548295023831 -0.20104946857927955
Ni 1.6356883471674262 9.03356778245127 3.7307388260880687 0.7396431303641843 1.7105719024843704 -0.23832403666002178
Ni 7.151608838897796 3.4829817707226685 4.130937112035059 0.8313461525971358 -1.4432715331966564 0.6992451861631119
Ni 4.318380978545401 0.685266850908136 4.35422918272845 -0.7530864003532837 -0.4592702441632284 -0.9505386384996082
Ni 2.2902026308422925 1.8617968177089241 11.690051502516662 -0.21730475409587738 0.02054979912689364 -0.9213447905444714
Ni 7.4640060216550355 2.7107177084590988 6.622569289790934 -1.1290523878702168 -1.4480920945137512 -0.3128438622454677
Ni 8.798179362393814 1.18149872220529 3.933331608190477 -1.163993422721776 0.6469582038339374 -1.673835466295285
Ni 7.595749815930976 7.7650209110439015 1.210433271384685 -0.5496010686390018 0.15190848807825452 0.6118665023371269
Ni 2.7399930781396784 1.823917582658759 6.552842786875976 -1.1157826673445042 0.8165114015771486 -2.2603550052271912
Ni 0.8273871476168891 6.428050619453008 11.48881274099233 -0.7238568140642049 1.157142975458846 -0.9088170903911058
Ni 1.2931266977699936 7.757889612513674 6.7566691910098475 2.536664005771418 0.9155369256134427 1.173267134714218
Ni 3.3437084365700085 2.4864522618234646 13.570080364753643 -0.31168738004352126 0.8318642298841351 1.0697262393060738
Ni 7.174132628541317 8.653932642123321 3.844939625979651 -0.12676772714656878 -0.3927583764839236 0.13399972611863373
Ni 2.328748688612167 5.783899872213627 13.09538316273244 1.1856603661722482 -0.46928083432169504 0.021482852464124295
Ni 5.60100521847997 4.824240102858361 3.0715845676552234 -0.6154768453962045 0.3716732736788502 -0.674390074792645
Ni 4.963355992757756 2.9515425859675184 5.444962219069281 0.17919483459803331 0.498752875638883 -0.06260507642573089
P 1.3628281948329621 3.5788375366809095 12.896625537411026 1.684372361270867 2.421979692151945 -1.199578261804921
P 6.486953293027347 1.3029715943123714 4.763753725324711 0.4277968561452955 0.6864439206333856 -0.09180560924908705
P 0.31372434519799536 0.0932922030580247 12.194216711893025 -1.4750390554162403 0.9215540783417999 -0.004725430500127346
P 0.9326441877803682 0.3084703378522842 1.7382429030307491 -0.1889244031809714 -1.591225664612853 0.8151654290722155
P 7.993148372597853 3.647020159771207 10.645392211537093 -1.4178713479559968 0.16575285016051455 0.8570515277830402
P 8.688579639268227 6.265883038590321 0.26931858277867365 -0.28965533994414633 0.08042282133344214 -1.0347522943340501
P 2.3181165708034657 5.9734534917177164 2.637105110916501 2.2408729852431795 -0.04782380435149828 0.2527530676011583
P 5.4447834735346925 8.059404618942322 10.768959092212594 0.7429079171583851 0.028958077795246902 -0.02879789806829879
