# total energy = -340888.7719838652 ev
CRYSTAL
PRIMVEC
9.10189319482241 0.00000000000000 0.00000000000000

0.00000000000000 9.10189319482241 0.00000000000000

0.00000000000000 0.00000000000000 13.32154072408940

PRIMCOORD
 96 1
Ni 6.661921211273977 2.0345643379715392 11.586409380377827 -0.5826232892012934 1.167666500697989 -0.04196323180566321
Ni 4.731528038272484 0.7465081348287679 6.351230825524478 -0.30006239421008324 0.1439414107123779 -0.2713830239975197
Ni 3.0140918549437004 2.014339931806101 4.996363997459939 -0.01999238396152686 -1.404557147345594 -0.5148960610576487
Ni 3.618939948063355 4.92023758508978 5.071363595481187 1.0304500674142703 1.433859495854137 -1.1112603539941184
Ni 3.801141641411575 2.9672535137522758 2.4023663715006407 0.4008869191283289 -0.010753896082394382 0.44390893121580965
Ni 5.289728929952953 5.012230417274337 2.3790136447235635 -0.6947776373100616 -0.22318332436384142 0.9719106764174809
Ni 5.498763003758288 3.1961479180045003 0.6938336598689907 0.3487554885404123 0.15646319732847247 -1.113706501541766
Ni 5.455774763290528 8.3555741482885 12.363295082973089 0.5801529732839298 -1.2007159749537901 1.2363653487262836
Ni 2.373828296302119 5.488605291210751 11.54410014112516 -1.6375083497294767 -0.4850021017116938 0.722797005341123
Ni 0.6445132324663532 0.22553580574860319 0.3882175794467784 -0.19741958513617613 0.05925518611689149 0.03759569886558687
Ni 8.033248812763446 0.31221040187444454 7.0267259914501174 1.4489824675385046 -2.054605045848448 -0.28412695392674936
Ni 8.95345929329089 2.590844730236658 1.5540508333045113 0.19783507540703993 0.30237612994492435 -0.7357083140861523
Ni 1.0276856326433286 0.0828290463486597 5.019795910705801 -0.7128056984563659 1.7607847758933355 -1.329547012387291
Ni 2.1036659093522805 7.136539419868389 0.47388004507505155 -0.6217981596285421 -1.6886794732866532 -2.23297584188329
Ni 8.422263718033848 3.9972874347802496 3.7350000056226427 -0.9783245503636249 0.2473835757591288 -0.2753561497126548
Ni 7.903419411528607 4.2711815978452226 12.988834509367223 0.44884596350611083 -0.4260580190773178 -0.9741156544885999
Ni 8.176230449330895 7.1961022074231265 9.053158698247849 0.020840848004751205 0.7492428582374773 0.4002444004483236
Ni 6.718580494973282 0.8280965931664692 0.36615550109196027 1.3142618040934462 0.44757455299285503 0.5466371009146714
Ni 1.853691520996026 6.859605224553525 9.209007680898141 -0.31534220318728917 0.3168000186797383 -0.03771576938321892
Ni 0.4265866092354396 5.339934971540963 1.5457653801396156 0.15980383166593123 -1.2722759465799636 -0.6815565106340972
Ni 6.65487634612004 2.0370855623224964 7.072738790949732 -1.6435951793535049 2.6360001190695956 1.428243178108624
Ni 3.603821703850577 4.727596020512147 0.39159347154703095 0.27355663461007085 -0.4500782932513152 -0.8365451802995721
Ni 6.225785806130275 5.8134245454078695 4.714705919696893 -0.6648278850255066 1.154473913267115 -1.486467608968156
Ni 5.600267314089958 3.594210104880864 9.142307188881235 0.1055026471202054 -0.15727155216238076 1.2071961833614953
P 0.36279235164185697 6.118638322161084 12.605095061258606 0.6104775924094001 -2.197905737653034 -0.40215318743526224
P 4.090627347123441 6.619242435166984 12.68383826785584 0.12376005066849652 -0.631769411908641 0.343604283356776
P 2.66084738902081 8.979390586344596 1.3024335532683007 -0.9377191181374367 1.2056517216925107 1.4571279794637744
P 6.462080049362022 8.414854777161361 5.843174082559865 -0.018488031501858484 0.23661425305776673 -0.6013221511623773
P 4.752653531841333 1.6328067825518957 12.70130298007467 0.47431248320833147 -1.1595312731853642 -0.3313465490353455
P 3.963883487603311 6.398020926683195 8.281508404485331 0.808936160333052 0.17241097890698048 -0.028139438548693475
P 4.796105968850245 1.4125227690433726 3.7132992724184852 0.07922622992217969 0.4564489726643494 0.4394899762125077
P 0.3836830163722414 6.209875697229651 3.585079996048932 1.5039459682585776 -0.7739262199167704 1.079441666821625
Ni 1.014251238628843 7.837285057254046 2.4080677972531297 -0.45204595850064727 0.6939255737224113 0.8656819497645285
Ni 2.174014440069055 7.052428826990434 4.911625373967486 -0.3618264627917575 -1.6341085800193083 -0.38558756976709724
Ni 6.060149557976067 6.108671749365786 9.352374327537957 -1.1473316457953788 -0.7000964784198137 -0.3841945460743125
Ni 8.705314385420348 2.7332984570122094 10.389029875697055 1.0665311294075437 -0.8088801102841359 -0.4223551163044339
Ni 2.287624268042503 5.747308394919236 7.022809446907819 -0.14065322687940937 -0.7732189094371007 0.09522389090201665
Ni 0.34763041834285285 0.008542126546473388 9.28820416176497 0.9962376831986197 1.1835386918435553 -0.11254592712023198
Ni 1.3126112899803588 1.2576631621582386 11.385587944593677 -0.25235274683894604 0.723418955195838 0.1389439574977865
Ni 4.346263112903144 7.291317109716849 1.4872829872796738 0.8160655722889817 0.39797334502595977 -0.5809762405161736
Ni 5.7912341303622625 8.147450263779538 7.892439798046444 0.6536906374617645 0.3543576652185381 1.6921872293295952
Ni 6.737557941802687 1.5267333219524275 4.837304777161334 0.4752681622533814 -1.971490536615456 -0.5115333152330029
Ni 0.7025814891964447 7.768556663484818 7.07152641880696 0.5743865031137978 -0.044689372487574645 -0.04193932054626326
Ni 5.435286402229141 5.044778786512684 6.842023097915461 -0.7432778989032941 -0.0024348346937377425 2.095906732810713
Ni 0.7757834633573528 7.760201125744102 11.374397167194754 0.31077258153873577 0.030895918247908077 -0.3809367012586472
Ni 4.642293079655942 0.32883409918342593 10.570882056355465 -0.353911578820055 1.7283163709519849 -2.074769950832098
Ni 8.378046722015982 7.7202074080614125 4.904711576072226 -0.6505261236908539 0.03851872490048851 -1.0826614593105033
Ni 7.409295846312894 6.589961645502621 6.734984836661837 -0.3668732811870456 -0.32546489344358787 0.9951701611660538
Ni 2.7127827902719313 5.859006825370297 2.2822332168400776 -0.48742073845551537 -1.0182753797249495 2.363721322730684
Ni 3.4236588345262353 4.5352639202952805 9.437711855587423 -0.12276631929665953 0.4497707893132254 -0.5784894695385779
Ni 1.8046141141355203 3.9031920653210683 3.619809178841393 -0.5737331858005152 0.24534289118001615 -0.0005787553216054549
Ni 1.6679947007497287 1.4685722259141056 2.8932523933891505 -0.3924680989370144 -0.15841826417231428 -0.6790738534215596
Ni 1.2093867218785423 3.542502250953836 7.970877181040097 -0.42887440548019046 1.24170450155101 0.022465528092367758
Ni 5.176665215557329 3.224318276727286 5.317865611671774 1.0211403599775706 -0.32715153711739137 -1.5428020218938268
Ni 4.443653367615201 7.237743367732254 6.174853433483758 -0.39412903157920504 -0.12833610007495316 -0.9674379853581079
Ni 8.260714219820363 7.235586219099847 0.5390787247529398 0.33885931247262285 1.9663930674878907 0.21381448155443178
P 0.07353146268619559 5.774213590520062 7.826138879130645 1.8989743717236007 0.16627529832288784 0.20472306077612484
P 8.593015230033679 2.1577857649147 8.094741201626498 0.2745719632484626 -0.7705009962853052 0.39148130954371285
P 1.6367114946333419 3.618384732592567 10.292728207383462 1.066053675550493 -0.45736145717628973 0.5564821120295513
P 4.386866657414404 6.645501396367384 3.6319583855693973 -1.3036565177737742 -1.1195238795544913 0.9932942842995798
P 7.240737890517326 4.1428722127353295 10.79632229222795 -2.4817866370072483 2.0708706157776917 -0.6464123586327964
P 6.41529631952838 8.118715587693 10.179135673006643 0.07331320687185439 -0.08099617733840889 0.5508866202196447
P 2.761723668737981 8.774133798119214 6.063978724345915 0.16170233424022473 0.8232530911763563 0.5013784861871882
P 7.2467269360874695 4.331053849760728 1.7227553295767957 0.28561767953966294 -0.41434253041260255 0.45912112017987383
Ni 2.702625077724394 1.8918284525141118 0.08076837778166814 0.05243996296727098 0.24422189020169552 1.8563686212379318
Ni 1.4388727491734103 1.2444563154678467 7.222139992624508 0.06771334418657371 -0.4158301707017225 -0.5045543128120085
Ni 7.144430761067955 1.018010320422869 9.40017200824776 -1.0054293770002167 -0.25900599048940554 -0.24723779420988387
Ni 2.6145642633001738 1.9125625646855198 9.246414640600534 0.491940737813056 -0.7621225424136229 0.46836860692007076
Ni 6.69511581491275 2.3657822229221694 2.5875889831235273 -0.4556275052043185 -0.38962805838505804 0.3598091752514126
Ni 3.81686061055996 6.87999346479231 10.587067952612891 1.6193283363863404 2.008930683739785 -1.2402160899309416
Ni 7.40624671217004 6.474540540829388 11.449291183257621 0.4398522446479328 -0.9065252090331356 0.3072298584927999
Ni 7.567559561166468 4.2810480498179215 8.195265238085971 1.1247596740321337 -0.09241084693325374 -0.589508703467217
Ni 3.0055269736648174 8.9157501507421 12.459330065822845 1.4037066264198406 -0.8636775177399899 -0.6069374404666257
Ni 0.15664630847391686 5.156459013177819 9.982256267065091 -0.3495553587338883 0.37136396996854754 0.5889746853406179
Ni 8.91125381561801 2.609130433200819 5.798786881143577 0.17294139748915377 0.6438006320415622 0.3624718096852403
Ni 3.533746229922715 2.966206796061445 11.420596555500124 0.3029399728681944 0.3953415638300675 -0.3987385053267584
Ni 1.1812254650487197 3.585026294880446 12.516000271793704 -0.7777445652215961 0.10434385092541384 0.3977612290151537
Ni 3.371404867021383 8.680448013843401 8.168674967981692 -0.43995611721564876 0.1328015920454745 0.9756912265058356
Ni 5.807453703623653 8.282067260713305 3.6325445474762628 0.0875784585416169 0.5757838976819567 0.8209905203944248
Ni 3.1153868217372027 8.618992032552203 3.488019229862163 1.5972407604586814 0.9093814475350082 -0.19436048659487817
Ni 3.846177807796178 3.151803495485141 7.1800173421775995 -1.1815180618691006 0.621728225622555 0.5118001957411443
Ni 5.103367671520302 4.921839518251399 11.541303129417402 0.6961313231244786 -0.3479900711292975 -0.10909139291272826
Ni 8.010521386032979 9.092436096954291 2.4855467509177007 0.621947797832529 0.6287838469177558 0.5948375718792981
Ni 4.70815437714159 0.5585130866091252 1.5917244784707425 -0.10983701282950115 1.2314427146136857 0.26389905691564874
Ni 6.313236793725923 5.93132136496724 0.40453363277358523 -1.4765930301669217 0.5336262904773004 -0.470714481444428
Ni 7.829839708809704 8.925416361069596 11.683204371290053 0.4156653629890842 0.5530394048965895 -0.18442085888366305
Ni 0.19411152029127834 5.390250235844537 5.606743310933661 0.728591500535713 -0.7928716506710216 0.25895019755080567
Ni 7.601336685954921 6.311043237521661 2.709867453955644 -1.5269416578228026 0.5274268465348078 -0.05796114989581631
P 8.718575843468523 1.6955825383228356 3.8056306950212933 0.1966963338169064 -0.04217380515457252 -0.8948835110291491
P 1.9966276480986558 3.57195597658451 1.3499117575350765 -0.7961549494079836 0.33355898330563194 0.7767318076863655
P 4.697514264266974 1.797632962232329 8.540559200505033 0.8266564604309505 -2.161091654148478 0.0491126983662509
P 8.671264203842982 1.8070261157709122 12.62182616090456 -0.780217966462753 0.2633285291241594 0.4874670183124185
P 6.416789029974435 8.009702215666241 1.5288067331695683 0.06950591731062224 0.02845414157563487 -1.292965356608515
P 2.106496598064005 3.7326134892875493 5.855056603824034 -1.719994995570483 -0.10195709586079216 0.9633920974235085
P 7.2587687404785015 4.439830572570428 5.867165762222998 0.3780017870000393 -1.9085823271270097 0.1197450159718325
P 2.4739855264751536 8.888672019174964 10.373936206595278 -0.638867456406003 -0.9533899919054741 -2.144476157078984
