# total energy = -340895.44207637425 ev
CRYSTAL
PRIMVEC
9.02508528101286 0.00000000000000 0.00000000000000
0.00000000000000 9.02508528101286 0.00000000000000
0.00000000000000 0.00000000000000 13.20912457836929
PRIMCOORD
 96 1
Ni 6.364959252527438 1.924319600461463 11.244372364967933 -0.13895295635885102 0.5420101436656214 0.8666219450802946
Ni 4.668802826169907 0.211089518284549 5.803191031146398 -0.887761298162071 -0.375603719081508 0.3769149816937638
Ni 2.5897300930649516 1.4995449494438746 4.646031634184557 0.48431433161604975 0.010603743657775286 0.7986172949055471
Ni 3.1996453379501903 4.088553035708133 4.880203709887255 0.11674556702387635 0.6175195868578461 0.26486167793923415
Ni 5.382750225949969 4.566873516082102 2.4801448033643 -0.631517443798835 0.028518162044350884 0.7602271251631231
Ni 7.361554264608712 6.1207494772781095 2.756598499824069 0.05695764833196642 0.6055030220129444 -1.0903436584461093
Ni 4.882688315790139 4.5589404663594895 11.446815851814188 0.40379252281089806 0.021361753505227725 0.08873776895704072
Ni 5.683799986583837 7.852094710084405 12.481089691298116 -1.4086254038776966 0.4001335859020722 0.22560607487272114
Ni 1.869627585308984 6.538989966749428 0.35907293466304513 0.43260584749816466 -0.34524901804905056 -0.7177897819345187
Ni 2.6735280073703596 1.4920812041417129 0.2717543346957594 0.13947129075616624 0.7383094991544252 1.3195279375883922
Ni 0.3488592459587447 0.3009974151408193 4.81055171382442 0.6589444296615362 -1.3854515368643945 -0.09593017294042187
Ni 8.405377546540302 2.2493129116233077 1.2397280946890699 1.3062199076255763 0.5653945840278326 0.9778743502000835
Ni 6.838794265652103 0.6711242739224711 4.736131765351511 -0.10423123660694951 -0.3074741132931221 0.08484486166053774
Ni 0.8725000932121995 7.10719126872464 2.345543783036645 -0.5717197549149121 0.8720590569354659 1.1369073651382613
Ni 7.701141138229559 4.048382382334588 3.829166677508242 0.40473894588456744 -1.7486805364306337 -0.34226730971290736
Ni 7.486317039768427 3.9564799416914043 12.440604062457767 0.20825961317447358 -0.5378416141102285 -0.23498520209477597
Ni 7.785372256615382 -0.11644886684973745 7.04351478144604 0.5555757981651981 0.06895827233726834 -0.06813294822249556
Ni 6.849389715452269 0.6321304916340551 0.3846274628650657 -0.28206364363981745 0.04997324659433329 0.33628460976691116
Ni 2.1132778052877765 6.573276264697327 9.407088879312985 -1.537081574470282 -0.5378920077321897 -0.7741607045250796
Ni 0.18512434871463437 4.941125741221212 1.3777640623710208 -0.586953284035215 -0.8754158892228406 -0.1926216495269005
Ni 6.212615817581258 1.929842952486763 6.815128687742394 0.4214770845748548 0.3670771696677355 0.47035632677406086
Ni 3.412772720429695 4.381398994069131 0.5086041531205264 0.1422838205042969 -0.17008335921506837 -0.7141920372809313
Ni 6.126561632023686 5.484210231617324 4.898827875311126 -0.6620096988504212 1.8799538647570395 -0.9029174370772192
Ni 5.568026196092748 2.9166547724186493 8.964808270904099 -0.6379066351546303 -0.8973707962273773 0.20067537306931243
P 0.1048471200711051 5.5942079677028715 12.334587291369541 0.2035724921114494 0.05997252389889026 0.289488732459295
P 3.857971138821881 6.147355427883639 12.51222442956099 0.6966792252081485 1.2169787166695556 0.6152894119757468
P 2.382450965671059 8.45590899750379 1.3939983852845983 -0.09579390447287374 0.7680188532933999 -0.5066878142152434
P 6.404064945869962 7.712729347380678 5.868641850137701 -0.47830437797654407 -0.16796528443080105 -1.3408812064531876
P 4.824413341889222 1.0903024697261896 12.786564451111731 -0.36969429557560846 -0.39668830766594904 -1.2220427614560243
P 4.115664391074148 6.216072425139576 8.316213316688746 -1.520598489213594 -0.727757948890824 -1.2847612235311678
P 4.551684298012527 1.1450125350486864 3.772222001137601 0.6505520918327828 -0.902205241501543 -0.611266921079915
P 0.39366247546723526 5.458082610517253 3.684724704487144 -0.4289201711164613 -0.0007924139943083127 0.25375296962058236
Ni 1.2989895103814335 1.070681934917363 2.56385156431112 0.24584477051709921 0.5877788652603038 -0.5029489159981015
Ni 2.041781081849172 6.360410609683074 4.810710555320573 -0.12265910429483393 0.20208073805727136 0.24477570582263647
Ni 6.015282333866908 5.679287444079508 9.088497963456284 0.13669578489355813 -0.3570449822427141 0.7536612990201472
Ni 8.703791982351644 2.4332621942698145 10.329059976000154 -0.4094373798015013 0.5657463109402967 -0.5267768716556347
Ni 2.451059661906892 5.209125640553369 7.072481694289835 -0.5978089958027962 0.29554316618349097 0.47821001849052486
Ni 0.4291256445002636 9.069488426902545 9.07419320371756 0.5985813551924466 -0.19577690732643055 0.7937923627130781
Ni 1.4971262266615537 1.269522607828159 11.421560053925953 -0.43022294908828485 0.12741153137815475 0.11991265189794831
Ni 4.017543666859997 6.8157171232849585 1.880860206110762 0.3713552282177992 -0.48392378104585043 -1.740529368078409
Ni 5.6534125253596805 7.800507324174905 8.043894011671444 -0.5414442438598224 1.3977699492204314 -0.26315832209488227
Ni 5.208123856117408 2.9931874932920857 4.709964433877403 0.7637595637964136 -0.06128687183493961 0.12255497461680184
Ni 0.8431071963559958 7.619969523661672 6.862734206146074 -0.820321005131226 -1.4854006011562224 0.18897711079577775
Ni 5.03226104963866 4.490024917233362 7.0474641586458295 0.228041166676775 -0.09517658260384898 -0.10695814861980933
Ni 8.03235273296237 7.220618537113478 9.334478460384315 0.18877553630793295 -0.14918466138918826 -0.24610959414271164
Ni 4.531747885228397 0.42505081861885363 10.2086319491701 0.48050832760639817 0.05095797910510579 -0.1500146134896513
Ni 8.408942455118723 7.079484257748054 4.838911238447134 -0.3711233147126512 0.11136167700414369 9.075994159339209e-05
Ni 7.4162643299312085 6.217426187890874 7.076418436370613 -0.4567618759190779 0.07020602870144038 0.08770418548620379
Ni 2.4006274868785 5.0700400554849105 2.583519932070493 0.09095560254396594 0.5481188276665205 0.7504391925384236
Ni 2.238067655702517 5.211093109085257 11.45651150063899 0.18181221761622238 -0.5752699341600157 -0.5928498520253079
Ni 1.1699307947575963 3.3135960612695303 3.805270959930813 -1.363818017755019 -0.19174876000364396 0.11184530150878158
Ni 3.780599085042639 2.7395194289536806 2.3921727872423877 0.023016258389515203 -0.4887206882138616 0.9858828223268571
Ni 1.05406675341642 3.170358937097089 8.252334667505952 -0.2395946758423293 0.42244484780476277 0.0708554893599812
Ni 3.3700208927436726 2.6974444826433084 7.084541915386907 1.0372159253831943 -0.04001639249193753 -0.12244544562213105
Ni 4.280670020287478 6.62935814294114 5.959771743504144 -0.22036950906413016 0.9684661695123062 0.13264938273832638
Ni 0.8001207164597485 7.434133998248355 11.40578781536482 0.11789253614412598 -0.19226966550412047 -0.18558016929908686
P 0.3710158296550048 5.873489223295853 8.131563687445567 0.019881055194643178 -0.6466069911421057 -0.2947091003179699
P 8.334855532282635 1.7574909040763842 8.184438952985804 0.24976081774205375 0.17586911265891003 -0.8658071624884832
P 1.939905922271419 3.2008637244263594 10.244771999578777 -0.4657823342501333 0.05432381025354514 1.4182469861278606
P 4.134806596377516 5.882956537469937 3.806974895980448 -0.23169007628327193 0.045665363247598775 0.8834685843239882
P 6.7071634008007965 4.0871180471917565 10.357551266863993 1.1476545763524364 -0.5746096748681975 0.006518517844808129
P 6.166542758612049 7.876489514862813 10.384577786430926 0.7662111106606998 -0.06513195661264268 -1.0772914532478415
P 2.4161145327533604 8.446324357224594 5.641960594992192 0.11748758739622348 0.09227020759033142 0.12148822391518432
P 7.096974872494837 3.95549620742546 1.3770510806553367 -0.1340228660470853 1.161762219398412 1.2089190795898728
Ni 5.371243242563927 2.972772751002497 0.5223953855222597 -0.17169569800751075 -0.09657243451011109 -1.144506774752074
Ni 1.3296206489008253 0.8877290216558122 6.983928462693364 0.4345969097862644 1.3616490351281583 -0.3534099565932881
Ni 6.999458828976267 0.6296576183416821 9.321850561440197 -1.2281241917634138 -0.19065321294662005 -0.24426765583796642
Ni 2.5962642546112216 1.3354598789014283 8.999059371020465 0.13971605977712068 0.6329757735119164 0.884593956177683
Ni 6.236866220999527 1.9267834486688273 2.573243067771132 1.0803145563448815 0.2015760305067109 0.3207839430281508
Ni 4.134996123162697 7.0734284257072435 10.377074330754727 0.5861477574147841 -0.4544052027614432 1.0486349658534135
Ni 8.049942623644249 7.230519055367979 0.28672604821662534 0.17286734971810871 -0.772725771850766 0.11597346474454219
Ni 7.743784664895478 3.9904232864089737 8.232150967392585 -0.49840166294705135 -0.33085161167679794 -0.2968310317569791
Ni 3.1782739366496835 8.37940335188538 12.415784176175451 0.26550702483271693 -0.10749808028367937 0.12727397735902599
Ni 0.14052959866984388 4.880161291987714 10.101677471749472 -0.05726720915258524 0.3005966694469984 0.5077355387534676
Ni 8.579462411272345 2.1949548246161488 5.960603856341943 -0.4477694426124805 1.6613507035647128 -0.025840100991555495
Ni 3.821356368941747 2.450355705276216 11.369673937702666 -0.6161864698687194 0.37364016759723395 -0.2686733383758405
Ni 0.8559183045257885 3.515496237998262 12.592046793920083 0.9148648392470825 -0.9754004347382944 0.15422248092341181
Ni 2.9697042220995526 8.185815278449624 7.881012887469153 1.3982574303798112 0.4653514173603018 -0.6073513880755927
Ni 5.5192095112809065 7.913555538993379 3.5516958539679973 0.4284763987108233 -0.2717725461264545 1.1410003042607124
Ni 2.9836840787779666 8.280632821550606 3.476086399290947 0.3024247237946727 0.5600441183491968 0.7648885351945344
Ni 3.6004042377597347 4.258883465076573 9.369760225208667 -0.004268545468366843 0.36638451447608517 -0.5946128574630017
Ni 7.137984858774187 6.128312498515366 11.342252119412354 0.32750017870606174 -0.33055233526882427 0.20285438299850228
Ni 0.4991765493204803 9.018911850514014 0.3204690360470031 0.5314771053447814 0.4476565711837 -0.011916034711295608
Ni 4.623542024851477 0.1873445196267647 1.5991755703799742 -0.6301462744829213 0.37628403297798424 -0.14696451380941786
Ni 5.887857158629639 5.700586644699946 0.27557916572242946 -0.09985830435023448 -0.31278215576959684 0.9549781623282005
Ni 7.932787995146834 8.747906597873973 11.45077876664149 -0.27944008997404135 0.6811582467544139 0.036168222390440936
Ni 0.007812113583496042 4.798989677419826 6.1034610244355205 0.5623308575008444 -0.17364510842439773 -0.6595373260505286
Ni 8.14354178026906 8.713602249756057 2.5592415508886965 -0.8302079252276348 0.35640426333492164 0.04431527697760755
P 8.349476169996663 1.7413450269958917 3.581680796400769 0.027668412449545897 0.4074869409433498 -0.7920910637512552
P 1.8702142158345467 3.206657829001919 1.6272977352669586 -1.4637123175495113 -0.9583578774337108 -1.3484729027575162
P 4.5574423022480515 1.0314679405547356 7.9450503781481 0.04353083340309922 -0.46223061234313295 0.8319295359044319
P 8.391776743432253 1.6887287813954042 12.367293296932424 0.4672874580407501 -0.32562378761895533 -0.2660076186182193
P 6.337432743251025 7.729849933642107 1.5101990622965975 -0.058288194217931875 -0.6120755330241394 0.30649375165772375
P 1.5579643247049304 3.229897422899218 6.149772345648958 0.605056421393829 -0.524473934554071 -1.5725656263095047
P 6.920624711425622 3.912581928209282 5.956059726040082 0.35326648903688834 -0.932585396455297 1.2537280083744473
P 2.3038424752456312 8.647033222732182 10.363046641125766 0.8436259984057535 -1.0718358294499089 -1.1349479274190455
