# total energy = -381172.68861951114 ev
CRYSTAL
PRIMVEC
9.15998451125654 0.00000000000000 0.00000000000000
0.00000000000000 9.15998451125654 0.00000000000000
0.00000000000000 0.00000000000000 13.40656323764870
PRIMCOORD
 96 1
Ni 0.817313352540867 8.75423377894142 5.73610500647246 -0.6045293452457654 0.4719732935521936 -0.005086670494288013
Ni 0.1097714216536482 2.49388820641204 4.309057289007688 1.1151411771057633 -0.36520154991157744 -0.5489660061581643
Ni 3.800385948520678 4.885083827153504 4.334596241653138 -2.939575925749576 1.6955762004064865 1.3003961018549475
Ni 2.101630192303479 5.979115729941028 2.159556101969306 0.2104828460780375 -0.07630160007621697 -0.037689029910341544
Ni 7.504573740345933 7.939993601183578 0.671565175960829 -1.769143946491308 0.6344405309829009 -0.12580793433646073
Ni 6.581018308160059 7.949061985789221 11.408985052274684 1.0543042483240488 -0.45179604727337025 1.225355113658709
Ni 6.930654914622096 3.284294104630606 2.819480769690891 0.6891209532449164 -0.642328675481726 -1.0342568427548704
Ni 6.601344313654931 2.0313089916797153 8.941037921825453 -0.8767472064397546 0.6165114573083059 0.0015753149069198675
Ni 1.693497925142816 4.836242790065331 10.35532303295584 -0.3918212093816349 1.1562826843410794 -0.413411791068217
Ni 9.157373854576756 0.9896080800558702 8.639417037852633 -0.6753552669193919 0.7214859998391833 -1.3906744758262308
Ni 5.333950545163962 0.7637649994437641 11.245492153817825 -0.7844137497116555 0.5588007328603989 -0.29844825564542793
Ni 4.025877285729899 5.18859991190906 6.782299806467545 0.3942976959465855 -0.4839741746678117 0.09107644439254636
Ni 0.3033631130152387 2.7010595747209707 11.825513361182349 0.4988775741422054 0.09848764925495297 -0.8963161297106177
Ni 4.045424692546509 4.840364783067896 11.290404473575332 -0.836070811766315 -0.4297202984202535 -0.16723226291951845
Ni 2.0723182420630146 8.707746857856934 7.911681921245069 -0.11113182038152473 -1.8588836743503017 -0.23884057128512412
Ni 5.438795727180322 6.44279414280737 1.3136287900030759 -1.902660048105304 0.6307052323101846 3.157059885735795
Ni 1.0171521532974563 0.5816196246510749 10.676893447062632 1.5644417116507896 1.8362569380897213 1.149287483970169
Ni 4.347667539463494 3.49924229973771 8.570493650855962 -1.1827578478134728 0.10519642873369625 0.7581172779089718
Ni 7.076170427597099 6.7673140719071085 9.560944449481246 -0.9823357284055471 -1.5456587746163315 -0.3057306482394541
Ni 5.141480951897514 7.200288216896564 5.269730810182439 0.9043958213949587 -0.02704491993293407 -0.2863689558833907
Ni 4.207254137827221 7.424277316655962 11.272359304208546 0.5282912514176321 -0.4780727215817121 -1.7425731379813152
Ni 0.03381683059304548 6.63031734447074 0.4028213081764686 1.761010004530264 -2.265040069407686 -0.28786816613673644
Ni 4.550057395889449 1.260203180697605 7.762949421731175 -0.7801475182361338 -1.172685036958503 1.5409881086135395
Ni 6.399421616435934 4.9247465598226325 11.180443440243565 -0.755448472827557 1.913071987467247 0.5673558215192616
P 5.002359108068711 2.162452489052442 2.643881119786275 -0.6459523882772423 3.016420542813457 0.20318708374757263
Ni 7.72471564663627 1.1920437364040757 10.762896541065043 0.8748078233251966 -0.36872498968380374 0.5048710727214788
P 3.0759502583120573 7.538905362065077 0.8903147646147429 0.5108586577634815 -0.9525708384382886 1.4853226967304354
Ni 1.6706529239241543 3.9932311011495822 5.493299466655575 -0.49510550869428277 1.018268437746414 -1.30018141474098
P 6.085939468598619 5.063886723620335 5.822939827062944 -1.0375704805091357 1.0119707776631606 0.6741057107830067
P 0.7290367503979291 2.9550567835390424 9.58876240625789 0.2807652365433681 -0.30977267951931164 -1.0227480707843224
P 8.922988172466443 9.145026195537959 3.3975444883784194 0.6967265335063162 0.26844168198100865 0.4700922744793969
Ni 1.086154316160399 8.723474551157835 1.165911216766257 0.5538706425486333 0.11318407492486313 0.9491551278885201
Ni 1.9494187306954187 3.5877552294794612 1.2196858214792785 0.9604343003467651 0.1779843592296999 -1.8635746520680678
Ni 4.991925885779996 3.1707194574332576 4.759249456768082 2.0105250248100988 -1.1830478682500656 -2.2437747322710067
Ni 2.749341852757685 8.682337060992232 12.62412935346358 -0.9999773527467101 3.1039483506227965 -0.7899249093378719
Ni 8.318832238072677 3.228903678660579 7.535815699310043 0.14054112678157732 0.19688093902388673 0.2337212477806878
Ni 3.452938578342226 2.8441843317544873 6.267299832723932 -0.168151175189362 -0.2747804797148429 2.536565532520341
Ni 7.442624765509602 8.00203417586441 5.579757811885159 1.7068759416900217 1.0134368206857256 -1.135942687232147
Ni 6.9862651802189255 8.885148276702894 8.618167705925186 -0.7514565780593445 0.5884460665306576 -1.3150472761092191
Ni 2.1609777315559686 6.593558326872307 11.979193168297767 -1.1662133131912302 -0.26670284491303103 -0.6653449338712413
Ni 8.040643510321772 5.886297607507708 4.703679495102832 0.19597256827700443 1.1428859513191996 -0.5341507955222027
Ni 9.029317271963727 6.980127990637329 2.7808164753268287 0.12816794992820507 1.0120867344157345 -0.25714631157284745
Ni 5.601504530968249 1.37669986293455 0.9022630483315122 -0.5252668627690115 1.010912254491659 -3.589434848170076
Ni 8.300777908721441 2.1406792060144473 0.2880256350519158 -0.19725426320290546 -0.6549908443304268 1.0807920102019322
Ni 6.475266287683135 4.5042116737164735 8.572036192237366 0.1550254364406814 0.8655865618372448 -0.6625545156102977
Ni 3.8290108999273818 2.0813866266686585 12.705091708023076 -0.16095131500681312 0.40156106237721806 0.27193503984624784
Ni 5.878236821191581 5.196202699002681 3.5894864665405386 1.3974984407265996 1.149585731936878 0.03921086587150666
Ni 6.673158591744069 7.696228094996318 3.1300298905072683 1.2296056614049469 -1.0526985943998257 1.0825462738888776
Ni 2.229210455725099 3.3727154345278563 3.398671166465787 0.528087105826626 0.8434519347217344 -0.5000289141378292
Ni 1.9777963625219679 8.294851398782198 3.665541817430093 -0.28990345139921037 0.07165793065661853 -1.269786861609523
Ni 6.574294879573652 2.781145318768589 12.092116540600712 -0.5593265234568818 -0.804691269013769 0.21282949193334316
Ni 0.1931758280675539 8.417879149932096 12.461239181983542 -0.7234984022835217 0.6303000264519661 -1.1435328408745788
Ni 5.897655988225888 2.954388104674182 6.781978291013346 0.8419496391445951 0.0680244476690893 0.412495964122167
Ni 8.991294176511175 5.648229611648438 8.952258902776881 0.3358611490762474 -0.9467164365400403 -0.06272720382589196
Ni 4.339863232711971 7.46144853355465 7.356637243480756 -0.7762301854595985 1.2976892444467458 0.7090470027448821
Ni 2.5833079746143564 2.7867512292520775 10.723909815248335 1.1572278218631682 -1.116944034642457 -0.03592165359727362
P 7.119332274326183 0.6142108493246908 12.823806938493847 -0.4073905245748016 -1.190644449650401 -0.5419396954390021
Ni 3.233254671274398 0.3485612242875894 10.02196921485238 0.9954918061715307 -1.1631593568562548 0.28962834336095283
P 1.7148498488961041 1.6806556269437127 13.189751981270922 -0.06996820165902144 -0.6399581183670204 0.5967157627386175
Ni 6.781090688520127 6.667094682038072 7.256355565717458 -1.039810168472932 -1.2232406384188677 -0.18931675352338365
P 4.995278440088748 8.325674746456935 9.227576891401112 -0.20479402322337634 -0.20401549318613896 0.9851300033212326
P 4.967807646722764 2.935115497391077 10.565028968962125 -0.10270965775610054 -0.31759114712246594 0.31971513544400426
P 7.874087513064785 0.9236195520770254 6.670582804116687 1.3760590399059012 0.3961907992042403 0.3333764349811807
Ni 2.4850579814021003 1.5922251370620126 4.710730851132553 -0.5394709221835354 -2.2668987198829798 -0.3983960343856751
Ni 4.726020697176735 5.92494358190287 9.21034879264728 -0.30559155155842854 0.6567304527293528 -0.07207187826558555
Ni 7.31364302446711 0.726429818823418 2.1184781517026305 1.618365715362755 -0.21732095204579346 0.6765266615196737
Ni 5.888083804475486 0.3761483494560912 6.267622264176577 -0.4411120851969629 -0.07208190556791458 -0.347749158763085
Ni 2.4976163200832495 6.801050294636993 5.596073576187758 -0.2152116190122745 -0.9404676274168512 0.38741048190844896
Ni 7.581050450520194 3.7896046468228577 5.1508287160288875 0.32245387453140595 -1.715191660644569 0.36218256057959564
Ni 1.1046758047185923 4.723510861437396 12.815628904376757 0.47167298870295543 -0.18599874489374416 -0.23119359626282765
Ni 3.0715626257604374 1.096001299444305 2.214857676090167 -0.2719689784079768 0.6921576831887112 -0.5395935638043288
Ni 5.007168099905037 8.927485724831465 2.352677886128604 -0.69577059735095 -1.8170317713115223 -2.414178193829655
Ni 5.586985955614768 4.196866715460756 0.36528094390443916 0.9972908070534825 -0.41418543600944796 -0.9877581849726988
Ni 0.9392190055956223 1.961061070931553 6.49113596074301 -0.7024978887724548 -0.40178551968319837 -0.07800701280309791
Ni 8.024641017487369 4.370393460884304 13.149505757592319 -0.21180259333072554 0.6804961876903828 -0.6708180411706705
Ni 2.328632926946973 1.6282879958422336 8.349915729305799 -0.2886402684160706 3.168363483674072 0.4164523776667538
Ni 1.5990859654151712 4.162434333912661 7.711375045283078 1.1172309697552565 -2.7278694916770827 2.5107328877279533
Ni 8.650267955432275 8.351689102295346 10.066076371976719 0.7700518245630287 -3.056878136607871 0.000662573284663375
Ni 0.40582853107145117 5.566769869933299 6.6051860111333225 -1.4394927828805146 1.2668666026389344 -1.4037019984341503
Ni 4.9808331446108705 8.344718354128787 13.231138623013567 0.664024929508237 0.6619675327585761 1.1447255756310994
Ni 4.284436166804143 6.887813667348767 3.231758845813689 -2.046049957189586 0.5322664340152963 -0.7060264707510034
Ni 2.2680945897159646 6.250306229572022 8.177359942233966 0.06602130119613146 1.1577232734423482 0.8503599746954774
Ni 7.5025585437669005 5.4684282768765415 1.6836765898153705 0.4976311033296139 -0.0462618591810171 1.4015805812157733
Ni 7.932418294043308 3.725713755283096 10.089967443419587 1.301613004981184 -0.8930400300625071 0.2310267316676602
Ni 4.1798566243368365 4.377254289237463 2.0903918073815957 -0.1456293399377621 -1.2368075784700248 1.5056035584666587
Ni 8.938725025751792 7.514713843132244 7.641070332631325 0.4098523558517328 1.7570132246660448 0.10698026010699639
Ni 8.677857828596112 5.95328457379162 11.375254325535469 0.23634171612267035 0.7308083056813737 -0.07536751829772181
Ni 4.8115383120032895 0.8625728357090336 4.150712301811811 -0.53254179916387 -1.3523146451011097 3.7018637900964695
P 1.08747335392122 5.852717104513476 4.186132129683632 0.45671559606217477 -0.33174352736344803 0.8306694382450855
Ni 7.2527382878580955 1.443466989591657 4.387713159482638 -0.7320383214337327 -1.1170443076657472 1.2814534993141737
P 9.021421365367702 3.7981051123925917 1.7715968685631978 -1.1360797270306435 0.6492889088496431 -0.29280956930241187
Ni 0.7535259688253919 1.856921207717854 2.066595083778564 -0.7197787873400894 -1.7657117808813076 0.6653369634514412
P 1.6572610266580423 7.604271011101312 9.9752606221442 0.09798268459407641 -0.12186489052831269 -0.16935445146884381
P 6.191471649448741 6.286717167761349 12.978250688312407 1.9101776966385873 -0.3813575908461497 -4.113391990988729
P 3.350071952967098 8.722366193039367 5.350827816513354 0.33017798264854104 0.5874266241272077 0.43062506962270997
Ni 3.446389189460373 5.1738156970065265 0.11427263801244948 -0.7269735053163158 1.1500017364283743 -0.2830802578297899
