# total energy = -340868.67664382415 ev
CRYSTAL
PRIMVEC
9.25524790004959 0.00000000000000 0.00000000000000
0.00000000000000 9.25524790004959 0.00000000000000
0.00000000000000 0.00000000000000 13.54599083651343
PRIMCOORD
 96 1
Ni 2.0170239601060045 3.1792980026333506 3.798417636121327 0.09605204323026684 1.4249099999703332 -1.8259216176019843
Ni 4.348078484497348 3.9377007886408224 2.6150129369090456 -0.0005952103818376846 -2.0915967925814494 -0.5811798718865475
Ni 6.698670837394626 1.4389411706788824 10.546516125404128 -1.3467924297313 -0.02837469448795113 -0.3830830581776886
Ni 9.359924844309047 4.105942686594813 1.5941600091867807 -0.9436979614286909 -1.202341169262039 0.5035708658528165
Ni 2.1132970496932755 8.566453923669181 4.044995027534046 -0.5860518552668681 -0.18643531821053053 2.0720834051388706
Ni 2.056719718733173 5.308819502052303 9.227597010653696 2.6687670290879715 1.1281638146176765 0.3311274910460039
Ni 0.014526111719594436 4.448229522992239 4.000443040286762 -0.16358926685029246 0.7769261830853588 0.7276188522097985
Ni 7.769577071769161 2.468337617820298 5.072770880752492 -0.6662314502412526 0.7688719453223145 1.3131058361121322
Ni 8.675119790314456 2.7402660590011862 11.206557837877888 1.2266740895804489 1.0071198773287622 -2.2218514498353543
Ni 5.833286639875978 8.328492242609931 10.198356834157336 0.02232745985260671 -1.8895780181103654 -0.006382249377259976
Ni 6.53156733494335 8.28846329505514 4.38249412414648 -0.7643827992027095 0.013114425894770961 1.8425535697317106
Ni 7.640438596571008 0.9441741236536645 2.7546450122777473 -0.4233786724729418 -1.5391060610994782 -0.12946532858338994
Ni 5.598703124332912 1.225950148695431 5.139890864697487 -0.7584885452054615 0.5512434893384313 -0.31360259478836316
Ni 7.222517873603001 3.1566319003069494 2.741925524965712 -0.7190501367041809 1.8669505105188362 0.7979863461897675
Ni 3.926853637997073 2.92969321960325 9.486108118824138 1.307550967732174 0.6534217000710939 1.374769117449884
Ni 4.273490440949587 6.306840658509153 8.474724235319979 0.10355015137952489 1.0461206840719919 0.4137768877171197
Ni 6.293550122396163 3.615895816044264 9.681766837897564 -0.8857900333683133 0.7924109089845193 -0.08575708906216199
Ni 4.5929445805568 5.711728212781264 0.43108446218353996 0.5501957648002073 -0.33556547221269944 0.32317866851257243
Ni 6.13660888223741 2.0124333571031894 7.454765364553504 2.2793366885360165 -0.12324814402908453 0.36251140467392406
Ni 3.294229672167549 2.998135778485952 5.800867357218191 1.3955204910646224 -0.4402875324131385 0.36177658339042856
Ni 4.631807366864909 8.702700429323306 6.729905448309751 1.2152275383064037 -0.554618319347935 -0.5629556355690369
Ni 8.090280669854964 2.234975795011853 13.25912750341255 -1.53516635972544 -0.8278101144194195 2.783220971864194
Ni 6.122651968269174 3.8156518334026623 12.15320588931916 0.2586699473062255 -0.6820146812174382 1.2450132542092687
Ni 1.3182897578871442 3.464813147862894 13.187956497422528 -1.3589378068445823 -1.6081121559555467 -1.1781141783938742
P 7.6466766337159635 0.383696666952259 12.094727530422004 1.7174015238116938 0.14223471243391633 -0.0764592087000038
P 4.852387692199789 6.568560561157571 6.1893934125713965 -0.45563033341779596 -0.32703763724734647 -0.08092727177368644
P 2.4009686677043836 3.153901602150033 8.053985289339154 -0.35788881830024816 0.7476775706328865 -1.3331972075453684
P -0.031948190535118215 2.337783089679744 3.4546073859048207 0.656894746221359 0.11531294834240785 -0.19578924862160477
P 7.916226476163538 5.568873460062601 2.790298078583081 -0.11932181239148483 0.5757075359180666 0.029078919643827337
P 5.142021422784682 0.1945305043435003 3.1867077541737823 0.53100633635595 -1.0034833090174395 -0.48629973747719485
P 8.932406429175881 8.41029937958954 6.803826188477466 4.6121214695888435 -3.6495050739890957 1.7515717419354995
P 1.0364304356134717 6.6899709042844515 11.929019719367552 -1.472183074024684 -0.10972979782767554 1.0097719702396286
Ni 4.020488981907323 3.5234914201166236 -0.024255228406206527 0.3066472465164526 -1.647226605458505 -0.28513559769692187
Ni 6.944092248333451 4.791626989148411 0.999177136930745 -0.9675434005877207 -0.19264324679345535 -0.8071939808309647
Ni 8.842528715949387 5.740780436220452 5.961658780540596 0.6972266130711864 2.044177165646905 0.7296659645468143
Ni 1.8228303467893239 0.010672226456746954 7.682811898441552 0.10933641904399881 -1.4185488336389958 -0.0614352244873458
Ni 3.14456305692858 1.1229299833237805 12.97604371182986 0.7938597256159038 0.02062101868446126 0.3499122278526748
Ni 4.132995776468259 5.159078844829417 4.6743019124841165 -1.766697027612712 -0.6043072019326302 1.1201784824193546
Ni 7.612089771979026 5.278925051046064 11.094139893697651 0.8567494231615889 0.8630519683408491 -0.8587026902332179
Ni 8.15312380370399 9.095937405903191 0.6160459656306474 -0.806990863681223 -0.11862607187604088 -0.28409970023323977
Ni 2.2981058415485554 4.6252268855443415 1.3694185243558001 0.9310147095340675 1.9561063408499024 0.29614968941923836
Ni 9.287271147591103 1.4240494766637009 7.582788582368917 -0.9547146242541685 0.4662484752532744 0.6490030021781081
Ni 5.630800324360663 9.165610912768502 12.319956766822033 -1.3589264939906724 -0.04614076022212053 1.1216573809577264
Ni 5.053615293988527 4.15422731535628 7.417473193829222 -0.27450408612500465 0.09014673348942538 0.40527219268021825
Ni 4.000747537945618 1.5008402692329745 7.639369615428215 -1.7672176760028724 -0.35695345097017234 -0.005335810390616617
Ni 3.347252987899665 1.3253977883431165 3.77964336557453 0.7956399574447781 -0.1962934419515329 0.07025796498529835
Ni 8.849590470165412 7.44374606629715 4.245462773462841 0.06506253682728795 -1.454792132241746 0.23227577358341286
Ni 0.30287336283393956 6.996421420466351 9.79291125995444 1.3650349208812556 -0.48637147125539465 1.4247292514180947
Ni 2.726892225656291 7.548719088994595 6.148959085154662 -0.017829314871937035 -0.6763302292381513 -1.0439982384123503
Ni 0.401011384891104 4.252147839085691 8.302513687028071 -0.1812350049565137 -2.4652480159222767 -0.9336737444234694
Ni 4.4663235328118045 5.296380448754351 10.907638316985084 0.6644494186401654 -1.1772168633905853 -0.49311547484744755
Ni 2.8454241866584224 6.957077361262786 10.917716356520902 0.9858941351807666 0.40551953280433384 -0.18740770942612886
Ni 1.4032714449271673 8.889897075159888 11.396567153578497 0.33498286023635215 -1.0512747174691055 0.2561078430060041
Ni 1.8714296539824367 1.5389256147099615 9.471261775524104 0.16317840456511898 0.02432829233271939 0.17849575164847967
Ni 0.8806831224453703 7.8809639813233625 0.3075167207502954 1.0456946522781667 0.8848999174538759 -0.9505751481644985
Ni 7.313608024316126 7.68129126119687 2.4231747842057043 0.2840590768032914 -0.5781269439928367 -1.6141516772814073
P 1.6265820684189636 1.6785965621202192 11.696800919685817 -1.5055194833932846 1.8453511870815058 -0.6266074080917273
P 3.2841321966109525 6.654782451428193 1.718241416883445 -0.41387176142377113 1.2091337667038402 1.1136049429668948
P 0.3950463775618408 8.614951423134409 2.3636404015129413 -1.8687299710167622 0.1264100866968339 0.6035371565358251
P 2.8755592741123883 8.121859575995298 9.23812207866741 -0.4346416469812708 0.5884355250076962 -1.6607930312890302
P 6.039234418139383 2.8232393572274774 0.9793412894395472 -0.5948278016872852 -0.6569651944479782 -0.6283056217297566
P 6.03458828364863 -0.15304385523035466 8.288954748723384 -0.08598668857446481 1.4567027190008977 -1.0913325047219398
P 6.169798201527926 5.802003901671307 9.513038113899324 -2.0818052604123243 0.9573314930517255 0.37336865910340217
P 2.7926785283659927 0.5405037060151636 5.796329509128916 0.17078835570189296 0.8426487220941488 -0.09480711507957221
Ni 5.185021304944118 8.43765789264664 1.04143474820142 -0.6122179721392746 -0.24489937588469435 1.585823005540043
Ni 2.9219188112920307 5.2314363736116976 6.782233694917852 -0.729549236463292 -0.8971458247007645 0.34250333698311336
Ni 7.928693295205458 5.635446458851415 8.547628749258442 0.6160265472520875 0.10641281763930059 -0.48917808746625435
Ni 4.2226791294869725 7.355626850188671 3.779127848261512 -0.45569563943809266 0.8615303894900002 -0.7180669468553051
Ni 1.8710316783188863 3.703533759257287 10.697187860574763 -0.4419919166987549 -1.498973968965283 0.7413408297815813
Ni 4.3833409793375235 1.3565416978279432 1.4589306552867065 1.1959828311441791 0.4014435629627473 0.1135802819220173
Ni 7.899992771189872 8.205341912861016 8.90881942967452 -0.18841815296851422 0.12754317186001257 -0.7414243906343231
Ni 0.8816012430459333 1.3443617914736987 0.7021466121526065 0.8307730537024854 -0.5044486404720796 0.7707678767934467
Ni 9.265984077215144 0.3780454125298414 4.450995916616315 0.28740228224391146 1.3147639405408456 0.6600343202916052
Ni 5.685360011259043 5.5956674029923406 3.120616953805224 2.695487218691635 1.434487102135807 -1.1680717065562076
Ni 6.816175465869918 7.031359981626892 7.031629309343388 -0.5028471003129147 1.0416587916458964 -0.5201418828376203
Ni 8.172411740514207 7.556863707225396 11.783454104512753 0.5389829268035233 0.49784553333326514 0.2037828083500426
Ni 2.4124544304594115 8.857568493932401 1.9175430015655568 2.1352893483733935 0.4245171569527592 -1.9847026644303563
Ni 8.99969208205989 0.591234496820269 10.082565352084908 -0.5571200027238663 0.1998017122151075 0.10544659707128937
Ni 1.02869304829421 2.49343785036795 5.726743927119505 -1.0651915846605138 -0.5784557880871651 0.31208384415099155
Ni 3.1534018187585975 8.021005138653202 13.20352104796655 0.6823414684292377 -0.9335816989302953 -0.06468407044194666
Ni 8.798779158702796 6.208716519323973 0.7666853074333176 -0.16542837694156026 -0.28162089967544407 -0.2263300975229392
Ni 2.551727402206119 5.129369498782971 12.385275679508263 0.3943614593049853 1.3902373882888124 0.4587519097659131
Ni 1.4214117309866798 6.500738103890169 2.964391144316063 0.2688679708851498 -0.41982746478657373 -1.0145987022043108
Ni 6.656105951890698 6.969303543856977 13.675625694764562 -0.01839187224362639 0.09134255356973947 -1.5680386849734285
Ni 6.4107493276878 5.029912603887295 5.571384408842166 0.534055664705235 -0.15760399580113502 -0.5043985039604345
Ni 1.125067945609366 6.675523462172769 7.655286790920639 -1.3121486144051853 1.2277945763381373 -0.9739251357443486
Ni 7.5599364495579255 0.26472878376981945 6.233797315850847 -4.128166578194741 2.6711324439963544 -0.8908353091017045
Ni 3.82326890249806 0.22058125085967897 10.664637153395526 -0.5234218391404727 0.7245499834764877 0.10637759352599098
P 8.015933262754931 4.103925042533091 6.786703979696803 -0.8024189280398245 -1.9286153345184847 -0.34766559791034324
P 4.841420223332176 6.9307832017244815 12.257618043988439 0.6030792430628 1.2005815062584548 -0.32927552543892974
P 8.35284280007043 4.298275995065595 12.79348394523604 1.1364417383557524 0.8866909479160279 1.1620434980842567
P 1.6491093420255218 5.8060299345467605 5.0132355725349305 0.02098354423020257 -0.091801495484029 0.43808358278328424
P 7.92578714733674 2.662845909568624 8.801778784576209 0.8738074070851403 -1.0669615320767432 0.7045226325119672
P 2.6904450590734537 2.588461481476632 1.7361086731272661 -1.3756965143601598 -0.8878070637983418 -0.4697012096885652
P 5.41722622175387 3.331880020989027 4.607844604295172 -0.19057145186609115 -0.2043217115726481 -0.5495581312162084
P 4.694095185834563 2.283778717660736 11.537107168774972 -0.31730446911998256 -0.5716590768803058 -0.2238207008375242
