# total energy = -340863.91705686186 ev
CRYSTAL
PRIMVEC
9.29674586729238 0.00000000000000 0.00000000000000
0.00000000000000 9.29674586729238 0.00000000000000
0.00000000000000 0.00000000000000 13.60672730625825
PRIMCOORD
 96 1
Ni 8.489230702913932 1.986175423080731 8.802777409116517 -0.1985801811031806 0.5210098872648704 -0.6070461981303481
Ni 5.293678771062082 0.6592350525799306 2.9721585612772863 -1.1709649689436028 -0.012428455571339885 -0.9063429178190003
Ni 6.917569296688037 8.618836639823195 11.824763740284956 -1.0303359104339096 -0.1549696435020815 0.00740760531798079
Ni 1.6853420171237123 1.644017980859336 9.642108096816777 0.7316089472057982 -0.9610953309695319 -0.6291666841784713
Ni 3.844920347831697 2.272942852239549 11.132888741941112 -1.3080114523083601 -2.862833381481199 -0.21360107999204506
Ni 6.679786422552166 1.3609971403652072 10.613424688419254 0.3951564444024549 1.4352036685868572 -1.2651149100551502
Ni 7.290099208307793 6.412663017831284 10.82402945510512 1.3908171720516822 0.30692261166502627 -1.1773220215098819
Ni 1.3244609283249378 7.5695965820428235 4.850363434894078 0.25734197252342134 0.30686604739547796 -0.20924151747176867
Ni 0.9013362652635644 3.4963574475706722 12.95142802897947 1.9667234542441163 0.6049283804563969 -0.8742792045152362
Ni 4.124510689027389 7.431790915103149 10.27268499997296 -0.8872640468106783 -1.167664700925776 0.5480208686360755
Ni 3.61634125230139 9.232449770432334 0.9345368048152719 1.1849396859561399 -0.10497814207530308 -1.2578602853752658
Ni 4.8895771098014205 0.5116557165008336 6.902189689670679 1.7953537721174564 0.9947549280055061 2.0976512263056453
Ni 1.119030730499534 4.769676975785298 5.080058139952332 0.23553361839907824 -1.3582400094466092 -1.8597408801442745
Ni 6.902973405364063 4.360750303316267 9.721666860627723 -0.45191200402594434 -1.2812812354023677 -1.3725224875075523
Ni 6.700220670405731 4.071798138831885 12.08340014552198 0.6768375078918731 -0.525665640869327 -0.056082444815864704
Ni 8.202788659867434 2.9391941590756607 0.2337638908114418 -1.9336163872775018 -0.34006258875210466 0.9165003179679764
Ni 5.595869501944769 1.9633705049802774 4.801405840434723 0.09740572904468386 -0.08929981210809781 1.1122438009533104
Ni 0.6198707703863151 6.600624629798248 12.147215799544377 -0.14202053954058122 0.3817568831670974 0.6487551478333602
Ni 2.079979590888955 5.2953800755922 10.757138437484015 2.0689227480227013 2.2423110032412867 -0.2698665873529933
Ni 8.301994237140136 3.882032958128073 2.950006274750682 2.0474056998865318 0.036725894666123846 -0.9971514532621407
Ni 6.158610838079516 0.25114694660607184 0.6743831706202399 1.5390821498400784 -0.040697220609046035 1.437858075490569
Ni 5.5855129268269925 8.599778310387432 5.002513051339331 -0.17480441883982153 -0.010975782285213355 -1.2058754076675426
Ni 5.045734553475824 0.023368300912066566 9.495659245059334 1.6920630450469052 1.669400313342067 -1.8607950324404017
Ni 7.017955560711149 6.070077925290843 3.1397389168432626 -0.4325176586597325 0.4090851386684051 -0.7482660961465049
P 4.450631244284542 4.0819315920440715 11.558779186957189 1.118200018536745 2.3103292802627893 -1.2864177852979843
P 3.3494130792478987 0.2064463321704423 10.552316246851342 -2.055940991051053 -0.22595394513044312 0.3709759905015095
P 6.230214376281592 2.3523184701529893 8.122331830386491 -0.13290083662750013 -0.3269900718388627 -0.07716343385588001
P 8.724112992277142 7.541306583763296 6.345946779036224 -2.763939755037079 3.1880079973778774 -0.5938050168497258
P 2.3981142412752208 5.163831118755097 13.482579951655785 -0.3732457603722927 0.09967729868767995 -0.4596679938222793
P 5.061994562345654 7.175117052960706 3.2176103212431877 0.9446577542387988 0.20359871736369453 -0.178722265836989
P 4.47820539311697 2.1968025019571553 1.4117387803946706 0.5073511588308554 -2.096926432324479 -0.1342018148271108
P 3.0120899449809415 4.994862759001434 8.589369673491685 1.1687787599255612 -1.1680987031394012 -0.684921313341272
Ni 4.9871092727822015 4.816328047545623 2.4884116764672637 -1.1208526256682438 -0.747872460252512 0.4768095385985724
Ni 3.3275564292462003 2.108613568772932 3.4892407884569763 2.797474139349098 -0.010633568454446202 -0.27809128925563076
Ni 1.105197172352989 1.0760425766893031 12.082569946098266 1.4832928107846002 1.2401351001813607 0.2290050732519411
Ni 2.9066276576056698 9.125518597178598 8.125897132502889 0.3016929878349707 1.4131721427081145 -0.2815975026366763
Ni 8.085017480700477 6.890450688412855 8.42735435012095 0.8044220745127825 -0.9020224360667755 0.05290019043314115
Ni 7.493112252155978 0.9841256483325233 6.367295826702706 -1.5115091253178163 0.3826349148966765 1.3636534671526968
Ni 2.114972543082231 2.6493588037149878 5.637063383764218 0.8741164536851269 -0.5317835808416067 0.8873573778554331
Ni 9.216329212753497 4.911275715119993 9.735790477251534 0.20188687687891038 0.17258041460530923 -0.33721354933908376
Ni 4.238739807943112 2.8626168617281547 9.059345288353805 0.7016124008437078 0.574272603243753 -1.72001710705767
Ni 2.9604093335987893 2.2211692733967343 13.158658076843295 0.35714962614137846 -0.903432943261057 1.6333645027644321
Ni 3.2138293346180533 7.006241660667705 12.439855053518624 -0.34976104698679117 0.36869696465934565 0.9695424332956206
Ni 6.597380065421135 4.171533630630361 6.6227211358484555 0.8184998927620871 -0.6557464915495287 0.8297618388291516
Ni 0.644272869460946 8.599545891735776 8.220490594052135 -1.5817627194277404 0.7774069793765191 -0.6429056310311185
Ni 8.894011026637429 8.937305973067845 13.082433126171697 0.8871542607056914 -2.1748802232921385 1.4846241280015142
Ni 6.468248262561251 4.021632897058527 4.152773726743323 -1.1054370624441219 -0.015541804389340977 2.032910077373518
Ni 1.3360725641616544 0.7390569143045502 4.325170726446212 1.0109891304761813 -2.559028489509548 1.0740690896558018
Ni 1.5239783956522213 7.566166082744385 1.4929439979339447 -1.6523019630988836 -0.10924565910240541 0.368877456101268
Ni 2.8004402240372324 3.4954370697101163 1.5971716774316216 -0.1775678405175716 -0.5055390453227809 -1.1222513057879833
Ni 4.1167757963002884 3.5626711372610647 6.701585432728253 1.6171261865286988 -1.7895716182180406 1.8749330145036807
Ni 3.4888084897648968 0.6403589393670647 5.249788832883427 -0.28236034894462986 -0.26467398740846027 0.8938617546328541
Ni 0.15521289427407547 6.031821815228321 3.119519423823827 0.5421849786805889 0.033103981642820406 0.670147240355891
Ni 5.4015210254303065 5.96483875982116 5.232494096176426 0.2558849283619206 0.18097866597133347 -0.2883008827987809
Ni 0.8561392045879982 6.22750902317632 6.665269553569754 1.350765812556751 -1.0917891326433842 3.0717242004817678
Ni 3.1730166193873197 6.175893489016631 3.793855181039129 -0.389176058449304 -1.0389174814553332 0.6024521510017624
P 1.966596475865258 5.228722406297357 2.2160867423223287 -0.7052764799588563 2.3405703385355174 1.1056584344263087
P 6.915821508427587 4.641130867927587 1.250874394186936 1.3374881216112384 -2.143341786364225 1.0028366765723762
P 3.01753783817575 7.86772463489457 6.211838428007089 0.21587290674535725 0.312994528890719 0.2608906091066281
P 0.13406279697341053 8.129400146420641 3.1316832863768775 -0.6399964278041237 1.4589976856826616 -1.7850050818932808
P 7.918085108335318 5.838495980781144 12.700682701803458 0.3443894982622327 0.20558926543116207 2.0642456542620065
P 6.036581749214228 7.226676806643997 9.306661045905987 -0.16447706877188448 0.5933406756187974 -1.0971064310912395
P 5.350974617068234 7.9489596020212545 13.271417380205948 -1.4748858176678277 0.34721925440154394 -1.164247447714111
P 0.6339711451449606 2.4866843410481594 1.513149545834281 -0.5880508879747679 0.0692601198484033 -1.15704707331093
Ni 7.292693000460271 9.137873972700612 8.864007638057897 0.2988159233974918 -0.16682757128193204 -0.7734811619595517
Ni 8.535193815465357 2.9694736610133603 11.225332795799847 1.1531364254026142 -0.5939631396941448 -0.6831742487431783
Ni 5.656344835105571 1.6757012914530354 12.655997891836142 -0.5403414977139468 0.9799361178251188 0.029650732986897323
Ni 6.1779852568815325 7.750883130334237 7.003736187602856 2.2883885143256397 0.11649591290691548 0.2885759908370385
Ni 4.935066088303466 3.834154715887007 13.568573923093775 -0.6018065469979637 0.396370262204898 2.3838551173660814
Ni 1.3617594735426377 3.740638747206836 7.707667206245383 1.029041102881886 0.5660723268211476 1.1535974241994325
Ni 4.278074340549315 6.847713546746412 7.759358973722815 1.3060561283542023 -0.09279419841460147 0.3796984579761719
Ni 9.087913259340713 0.21140986489520053 10.436917597280488 -1.0090271216538043 -0.8848094146225988 -0.0374925976288193
Ni 1.2624888190474728 2.638202708435516 3.490724549129146 -3.0750825754310394 3.912933104805597 -0.7938820942134069
Ni 5.339102672341663 5.949499128811888 12.071249298413422 -0.8226627658905252 1.0090623457671137 -1.1393625115469732
Ni 3.422215897692517 8.573673047433468 3.4894592619895324 -0.905256626733357 -0.338349719826056 -1.1000434022323764
Ni 5.7171641478708235 6.185673665878301 0.6671735440458814 1.2799910558360343 0.4119835432621228 1.0105322454444208
Ni 3.6112001517267664 6.68364457216965 1.3794363065129605 0.31421143201695567 -0.27485452748588796 0.43151981352283747
Ni 7.009932468855996 8.508549341239553 2.917649879741788 -0.7112046725178331 -0.9295481522908701 0.7577434395093208
Ni 2.299996383292268 6.976064422936733 8.721830641117885 -2.021319287212125 -0.768545158110515 1.1672741503555768
Ni 6.4726177332123775 2.51587612369611 2.2331769506158725 0.02367574635038503 0.12738916278065157 -0.7452298804233423
Ni 8.13719081962414 5.670522372856567 5.186830338848335 -0.29456460432030557 -0.005705020804577272 0.8746047061754549
Ni 8.558919111426366 0.07605760924240443 4.605904567408048 -1.4215415977187325 -0.2600377741880296 0.3917006246433706
Ni 3.16949315262822 5.504733500257552 6.236847604599844 -1.2112721532030815 1.2387814143669438 -0.42420759613214043
Ni 9.090683689668447 2.7965077004512184 6.274429700572564 -0.8764106490359422 0.29585941187232917 -0.43545617246276624
Ni 8.529206710998707 0.6983353071852655 2.008707016846837 0.36019072696054744 0.42318403996363246 -0.2817414844137084
Ni 1.7707140362498688 0.6444039535804797 2.025946902752047 -0.6966895096207937 0.294251443955261 -0.1618134058967923
Ni 0.03309455664655258 4.965559415400688 1.0247171010068807 -0.291514247529756 0.8258252227789068 -1.0500639849904563
Ni 7.931267894257227 7.424297737773771 1.1387454102075736 0.908605488600932 -0.7241218948001336 -1.0049164419195404
P 3.891534232607756 4.037362991402583 4.70971017463432 0.36240444678241457 0.029230871840659336 -1.508901255381324
P 1.115711792153891 1.4506363659357617 7.504776879445273 0.14068125190386738 -0.2763799629914788 -0.2443674146406243
P 7.915547096659237 1.2941628328951058 12.4927042658813 -0.931261535437551 0.8125956114625101 -0.9927718361372064
P 1.821000135722087 8.572650405366183 13.228093613862724 -0.05571143462969115 0.7928868201796732 -0.4435368925883716
P 1.494107950541436 3.401251735313177 10.701242681435435 -1.8166319647699423 -1.5622976687245933 0.9633183067627796
P 8.699560285916238 4.762537074806437 7.491455572006977 -1.0448644430673877 -0.26407286348935166 0.24676034035283306
P 0.6616810264699549 7.4775680927332475 10.10790761334595 -1.0805431274159196 -0.7863729303205554 0.039446893141712715
P 8.056894823850143 2.349157576490473 4.410471160627658 -0.9782042227356764 -1.313527497030583 0.4120853589473097
