# total energy = -340874.92079436465 ev
CRYSTAL
PRIMVEC
9.25248843786694 0.00000000000000 0.00000000000000

0.00000000000000 9.25248843786694 0.00000000000000

0.00000000000000 0.00000000000000 13.54195208467908

PRIMCOORD
 96 1
Ni 9.058167570490523 0.4634710192025173 0.7530461464792246 1.0226056316691872 -0.4423392727358446 -0.29910131584839456
Ni 3.9473428339593335 5.965264276379165 11.108761399702685 -0.7334871380651173 1.2338042728673269 0.49684048910751855
Ni 2.7383664462668724 1.564790078926543 6.392966100945168 0.5757435313623246 -0.17049936370656443 -0.17841810433300886
Ni 1.2499649109961586 6.179894248179586 11.781011117085473 0.35022384555582264 -0.2809084469894517 0.403874283891427
Ni 4.725134760478229 7.967049379150771 13.027316668946956 -0.24562648385870603 -1.504206678119132 1.0349474410639916
Ni 3.727827548320458 1.6539007940366803 10.953164153947919 1.2200758675376409 -0.5369381284593527 1.5803051610456074
Ni 7.089145528896886 0.5468007796038172 6.3178895601345895 -0.07433907703320745 0.4240260762489536 0.7276000831567211
Ni 8.82681835227706 8.059703797291453 5.7034910260376614 0.5585474791990123 1.1242343976562832 -0.23124373277447274
Ni 7.044937139654207 9.233770546513293 3.992126727976163 0.8750153113503124 -0.7871877129123669 0.3252653758382721
Ni 8.769110582560318 2.492055954423142 12.520997376286331 -0.5355546178482647 -1.0063290059963508 -2.1238245422669038
Ni 1.0249351423123614 5.95670572467354 9.39533842298767 -0.1290102433238423 -0.6022845150756466 -1.0566035858811869
Ni 2.8516076509427077 8.371688451304403 11.61002975898374 -0.09382238256879971 -0.1302443728412596 -1.170974996245932
Ni 5.796091779746027 5.919334924307032 3.1911878514010925 -0.569264094285568 0.49371274211181426 0.7229433011110001
Ni 7.735441091264054 2.272771980992527 8.071747761351142 -0.413461670469546 -0.5456361704539828 -0.614547905824032
Ni 8.345716716560954 6.720628171185156 3.545377730933188 -0.8983344456922272 0.38424005460026733 -0.04328760704404158
Ni 6.708516663960656 7.418386073646043 7.108644222804382 0.576318172918872 0.6694982939179825 0.6914413738479769
Ni 1.9249154297225939 3.8898941339158446 10.55528772551498 1.6674722430814186 0.8150798113369446 2.18454911384047
Ni 0.40970203376803066 3.085066436495504 0.9491877960978291 0.06576933308632543 1.1358061616542825 1.530030066940139
Ni 2.0844838434687705 8.364712075103277 0.4227184343512454 -0.6250248940959559 0.25613483958919764 -0.2495348177741767
Ni 6.94008794189405 8.242847551303504 1.8990417713554475 0.4239818532745795 -1.9885531485246977 0.9030606475233027
Ni 7.264137840689849 5.0361571557048155 1.5742109625445622 1.9292735369277743 0.42352805356661255 -0.5070246287293719
Ni 3.8419940018293346 7.437418442141687 1.8493836664861598 -0.6758412054168748 1.31004236669546 -0.05176479127711729
Ni 8.21788433778807 4.764948217763964 12.73258975616788 2.3318923511455454 0.6133973371593565 0.17588093973345192
Ni 1.4250034852307738 7.504656274838745 2.7243563284369716 0.6546748557519048 -0.424412770164411 0.03584889137780923
P 4.80774097629209 1.237113204705225 7.387432799185503 0.512335242309008 1.7955085525277656 1.0521110973274719
P 1.2512325018974242 2.4362171873491434 4.882577877654911 0.3141013888016526 0.9286107280782652 -1.0568136450094638
P 2.1609371545429132 4.494923598329404 7.450443169964399 -0.6676211314999276 0.6461125680041906 0.17627766095123837
P 7.023665668982605 6.675494533109438 0.135079852882092 -0.8083466063781691 1.0868546714562441 0.06503554024409444
P 5.517055236677653 0.062055513983198016 11.519312811899447 0.08702232892783078 1.980177522866493 -0.4801434880678119
P 2.309467349710916 7.071343741349185 5.569574210938701 0.5388847106627622 0.8423831271375879 0.10088237473937463
P 4.576789615076834 3.889496276917637 10.96271087140723 0.011011263508839101 -1.001380917962456 -0.17827772210040263
P 7.78731979333264 6.2064581421761815 5.786760645264814 0.5167176876474198 -1.8873717544876656 -1.1352338340905805
Ni 5.452389595736447 7.421633697050015 5.177169704104364 -0.11693171489275345 0.2115567958685066 -1.245363438459836
Ni 3.6464611659428705 4.444904646415231 12.905317984066393 -0.8259262671331453 -1.3808950278419636 -1.005070193888585
Ni 6.026154902081566 7.303794005673967 11.04365163932162 -0.2467425997410202 0.801174256999446 0.71873209124313
Ni 4.895824665197553 5.606526798832676 0.9222991397608371 1.2157253038784288 -0.1353348999902895 0.21100992222610107
Ni 3.365870204834987 1.912489337894859 3.6432320475155593 0.3067084387716911 0.1262265099311181 -0.3555714830209811
Ni 0.26306674821009496 1.2575149414737696 6.394672259793294 -1.0365350972660858 -0.229374797886534 1.0375648240821806
Ni 2.9817346468215336 2.811905223516937 0.9222464005773537 -0.3969503030780841 0.2483120011106691 1.2810747758185164
Ni 8.122546698031568 3.986767686735192 4.156864506952537 0.6049494635023194 0.3955791337621703 -0.30696477775687137
Ni 1.875904999036435 8.46147459806266 7.267816630050018 -0.3853769964181879 -0.36379978446804445 -0.7111051708254914
Ni 4.7829813175199245 3.7450834390566645 4.741105480585341 0.20756952908598442 -0.02617871527789685 -0.2653895254182461
Ni 8.263896962255176 1.9551248041213685 2.734810715001497 -0.5136935561091153 -0.47052113448669936 -0.3034786189804838
Ni 6.1156912316549015 5.194319191224771 12.392632979434447 -2.039838429062235 -0.03480296661179813 0.8864646908378346
Ni 1.87397122897538 3.792113837240117 3.0200584534860737 -0.5667117601773596 -1.0967906996230337 -0.04707612755219634
Ni 5.468461167966362 2.312733478091549 9.543852888925512 1.0410322138054908 1.2520850734543858 -0.7176175180227125
Ni 2.5631798322189705 4.254756758737063 5.354988651082266 -0.10954133596595327 -1.0025150315668994 0.5380568154448282
Ni 2.0471037906139316 1.5800566846717126 12.726793997477714 -1.3564844602080832 -0.27725413806631605 0.41206838966644516
Ni 2.520895960549016 5.531516875938077 1.425439277431136 -1.5829770514508157 -1.1485115250360929 1.7769086780383914
Ni 5.396143719175911 3.2342072958933143 0.6296531116072681 0.26579293150425193 -0.48153548331933194 -0.6945575508794555
Ni 6.259114053264521 2.728188709103426 12.013309640601637 0.39461239897352685 -0.7216304958368475 -0.5890523326560887
Ni 5.602603743780583 1.0038024589657148 1.876251042099992 -0.42410578044695346 0.1644809254266264 0.19954228790613376
Ni 1.3308131540272436 1.3273434709033416 2.502945207939196 0.5640519539570091 -0.20550493324747188 -0.7232829438386059
Ni 3.713856290941546 4.985703336839114 8.94150664612777 -1.4487207292366855 0.824713734882283 1.3101426397187501
Ni 3.3386401316786034 6.21783870282258 3.948874120778016 1.2069989797490244 -0.348487065370374 -0.4105023307309059
Ni 4.101350502218937 3.560977426258252 7.185793321000972 2.0211668207946607 -1.7379212410316003 -1.7721752771184642
P 3.3060158578255923 0.5611939504505963 1.5940501480226181 -0.03175800913788724 0.21275672971387874 0.47371290195111965
P 2.8101565032224904 7.190154943999925 9.6189969729009 0.5442940546037918 0.6999036456827172 -0.5580839092990324
P 8.424825491785922 2.764523230776929 9.95631401471367 -0.6457230458752556 -0.8359399426154055 2.4610604602034907
P 8.406801644518293 9.108380824659635 8.235971101976347 -1.187629316973161 0.3110011526097741 -0.8824550554578092
P 7.447901511420036 1.8629607678621973 0.6418913779218958 -1.1738068092677718 0.800142473300822 0.03688067507643326
P 5.676799447702106 4.797572491616974 8.13960643601517 1.550598378009794 0.2625775098907478 -2.0017825027307783
P 0.25284737484916187 5.123038021127326 2.2416401335072105 -0.42381627423099266 0.438468991147161 -0.2888071330112381
P 8.441553990687297 5.776430242043915 10.76476868755953 0.031120889774520603 0.2820217346582885 -0.9134548462734333
Ni 8.220854386542129 5.496718267327421 8.034819229926827 -1.3135583502685186 -1.0376226739033096 0.40305435909329296
Ni 0.7824413019049236 3.423106097646877 8.717576998306457 -1.010986302262704 -0.5567394794559961 -0.9134916130486396
Ni 6.285761219656089 5.136833481227961 10.159104502446503 0.8707542220811133 -0.590282605518764 -1.5361636906417029
Ni 4.973018175338128 0.9698180693281346 5.218526476443612 0.1245303531756178 0.3246699083461183 -0.5579126738284907
Ni 4.46337261312272 8.50596056195525 7.029247695192338 -0.6490546813516499 -1.0409895334930135 -0.854866090095947
Ni 7.559042401244869 7.4014262625364085 9.365897930369155 1.3071557891762842 0.10145418808244464 0.2752772168456033
Ni 1.6263931462303842 0.2541010870179319 4.579996527532152 0.5060159849591995 -1.3882787219005446 0.8970162411014356
Ni 8.970213416421688 7.254237678176315 0.9516119480403954 0.5144273489513463 -1.0814142171669632 -0.012953217726558336
Ni 3.279859073315536 0.27502003788414614 8.92742343364006 0.6530162371025593 -2.278057307602961 0.8350619108858264
Ni 3.171651222291441 2.4898816196654967 8.957608751569175 -1.2943450105648613 1.7430562482653205 -0.8695023519518833
Ni 7.927254426841696 0.6616611697374736 11.231355944831726 -0.23857806165235684 0.37527230388401817 -1.1584742926757596
Ni 6.145521254032129 3.425844834192677 2.741825026404778 0.34566527965086274 -0.881033235409618 1.3879038550596292
Ni 8.430404742249157 7.695387069281728 12.001892995250751 0.29795100429403526 -0.6337360487167085 0.22517875752731542
Ni 4.183161004036384 5.876384873477288 6.545881975581783 0.030050282418161153 0.3471416070860731 -0.5741805577505789
Ni 9.347603910442276 3.846823800737806 6.454798629959603 0.2730814947458652 -0.12146739797957788 -0.9169659447504854
Ni 5.060611482362079 7.06142507385899 8.7334616702721 -0.47499639664923354 -0.722041358122021 1.2213153963716967
Ni 0.7529943325445744 8.402277177724724 9.747767553990489 0.18141009708179723 0.23107403996582784 -0.026987584332437396
Ni 6.1116478942545145 9.431061355182536 8.903549238001114 0.6926461927893555 -0.5936592353004808 -0.002114218129525391
Ni 4.2387314489488 1.1495661601229263 13.208995754056303 1.6502936744196028 -0.6260345663073927 0.6240175358773641
Ni 0.7843639689799818 6.21165804061787 6.776825934806375 0.10217589673981758 -0.46486342198028974 0.1421822619294261
Ni 6.892465384457451 -0.21663683651928614 13.424543572699102 -0.635670289624944 0.9438607122588003 -2.3531062662189988
Ni 1.040294272940835 5.572126047220228 4.261706302722031 -1.0435143567973963 0.750177968457237 0.8894194025907843
Ni 6.83154700129006 4.184317565077684 6.122180926969849 -0.675163976844192 0.367044002436955 1.0241156405558105
Ni 1.3579321973236629 1.4694709441467033 10.430945385340321 -1.1579999241425025 0.5442020091106177 -0.9246198617513173
P 2.9211215957690455 6.440832924073689 13.196591868200562 1.2063757443427288 2.218558380906379 -1.4115343499943755
P 0.009841871837052549 8.947683607337149 3.2997676524560697 -2.1249175182207667 0.12267504513443388 -0.21949559109960906
P 1.4641322583800593 1.2413230868955596 8.208901096868077 -0.13583446533452734 0.08516676377633074 0.46872779003170245
P 5.181411970003855 8.246909393680552 3.1672997770296507 0.804889243957188 0.06930742814657095 1.2360609301119874
P 4.056096581794923 3.9299574083865014 2.560308785090046 0.23365157088501695 0.9180782039780576 0.19338989515149274
P 6.783887433900141 2.046252561687534 4.395162343902137 -0.38121952260638864 1.8459307137340597 1.0518614432105111
P 0.8923599380213103 -0.04452574959241137 11.897674817194726 -1.762875596984093 -0.6565435335295273 0.9927630943864579
P 1.4269650127568196 3.697331346783441 12.66033059805391 -0.09866017027707524 0.29623170761008333 0.08349374694928201
