# total energy = -340866.1886423703 ev
CRYSTAL
PRIMVEC
9.22394529578363 0.00000000000000 0.00000000000000

0.00000000000000 9.22394529578363 0.00000000000000

0.00000000000000 0.00000000000000 13.50017631105860

PRIMCOORD
 96 1
Ni 3.7848244728787273 4.590840462393313 5.251771175569561 1.0494487200039604 -0.6368486262037613 1.4144016442398415
Ni 6.691842991989043 7.718468075048373 6.308537343839251 0.2405416131366309 -0.6064571583960975 -2.2787147386813014
Ni 4.371827111340656 9.233906901608565 9.388886703792343 -1.0841539846956296 -0.6867848489125721 0.9547598756698074
Ni 5.1365382749618025 3.8274390989679823 11.14014306448082 -0.6036819096438055 0.5010907797434402 0.09481097173431413
Ni 1.8762518847275942 5.3451470160082515 12.060112593425984 -0.3702519678512914 -0.9553684557880836 2.7612658077493415
Ni 2.1468363125042824 3.609587964990487 3.790930724495846 0.2800335005836661 -1.3123486462311336 -1.30321248825782
Ni 5.377144881355357 5.793190922428053 7.031796098446304 -0.8131658821436835 -0.2831468494016672 -1.618122746114013
Ni 1.0415125303554458 2.3422917079223167 0.6605755912921724 -0.4816208439442866 0.8292314202469783 0.4078227270162137
Ni 8.144688127501253 1.0823653829418767 1.182565097921872 -0.8380209935141503 0.5122583663244855 -0.29783684731367416
Ni 4.347355985146978 7.715562532360469 2.95876577318463 0.40875552324312825 0.7145617619155241 1.4284982315422239
Ni 7.4732956158595405 0.9588844306784873 3.8105196165793416 0.7823748649047558 -0.14353594774384312 0.23041738021843544
Ni 1.8836863844306115 6.090644702109071 9.713903476044772 -1.2399175848539161 0.6392572356452539 -0.5125663844832076
Ni 8.845265201252575 5.303768398554486 9.111957124221977 0.9224027994953404 1.8221233269018167 -1.6579735595623641
Ni 8.806662991256138 3.4686184129294295 4.5731166519971 -0.8092570340075804 -0.25158810075877963 -0.41761143097186143
Ni 7.5647325830506205 7.7696148503005205 0.899702676901156 0.24733395346811596 -0.2077687895809841 -2.0968086757996915
Ni 2.53295987586409 6.490539615415038 4.529700465083785 -0.005856201670460882 -1.993689955530631 -0.48370086640176696
Ni 6.4718334548719625 4.705586338702909 5.129755908173182 1.511425307354758 -0.023192378956063284 0.09805570392385692
Ni 2.1427132090709717 9.267020864305627 2.0145095969466085 0.3769278372095702 -0.5151773397434934 -1.8785698399253195
Ni 1.1829617275586337 3.577267261566948 8.10546514600356 -1.9214774379221227 0.25666345839915794 2.239218223248576
Ni 1.718836038658497 0.7083427130813101 12.63688034247046 2.089282542625976 -0.3788255684529153 -0.7293528041817697
Ni 3.641880996578903 6.368968019775129 11.213475272345496 1.8389655952701363 -0.875954278224814 -1.6991081248191446
Ni 4.554498118931914 2.711332525066258 3.415125988453365 0.46023312229713 0.13560666559443743 -0.01706158346797707
Ni 3.621782020334642 7.071961767127184 8.258597391995632 0.4524095124876531 -0.634430503680572 0.5085999436362918
Ni 6.079631311730159 9.230494041943409 2.1798598805399427 -0.7515833334451959 0.4392634620239983 -0.28810727873073605
P 1.9802426411194258 2.162489347238799 10.750473816647268 -1.224049764583724 -1.8265646505026223 1.2264234070222233
P 7.615215234259818 7.500810643916738 11.833875971011748 0.5417507193566476 1.0321516234864094 1.1355061139153606
P 3.517348514580844 8.081079802498763 0.5328331764198574 0.083081856222844 0.5851666244484374 0.3611669748308876
P -0.028542575534760004 2.249895450446977 2.6895723163201195 0.2219491948464242 0.24138210676005528 0.16466758751613578
P 2.320311046889699 5.955809073500254 6.701797473477252 0.3170543007823895 0.13574756204767588 -0.4047610573717545
P -0.2710373234781998 4.000443412156309 12.70980854154234 0.4409930431205954 -1.1354420934466447 -0.16263435913619087
P 8.800215453672504 4.656118321448217 6.493827951822142 -0.40346624981973095 0.000976247870340254 0.48580505722896333
P 1.1431696286519135 1.4073710864602544 6.587073734635754 0.20830794991390578 -0.01091150470618121 0.8998097446861729
Ni 3.22260657474187 1.9609092523135647 1.761813165787862 0.4727106859388504 0.31715046004062153 -0.8350804228285876
Ni 8.526236614120743 5.584203999634925 2.656645599707389 -0.910069217630652 0.9488144567196499 -0.15025501163523156
Ni 5.127111403129938 6.632081052068635 1.0263437527355799 -2.467669480879576 1.2435538960549228 -0.34071744872728416
Ni 0.3806021098582863 3.627159580293524 10.612974312710621 -0.30887202208191317 -0.775765072897722 -0.5201465108233106
Ni 5.592311847325933 0.609073694155948 5.965552326647025 0.12354664910610981 1.211552403447662 -1.0397178658694417
Ni 1.756349823140099 8.038455952464465 7.190410134976223 0.016678746207261598 0.9133388895208593 -0.4286486626226295
Ni 4.113344499457712 1.6398052775475145 10.925206697136272 0.5091180209232908 -0.41193700629490343 0.7413017490135297
Ni 3.2852371615700173 2.8814312955666814 12.838707639122791 -0.3776577733970593 -0.38873614269840795 -0.5357423083790387
Ni 5.185259152668176 4.067833554625595 0.9154147448839347 -0.39115375100096506 -0.5356304653915227 1.1131442012803925
Ni 2.999691494936885 1.47132069742926 4.9681191848533395 -0.032186097814241345 1.0679074409297802 1.2740749474619155
Ni 2.7774958828450953 4.028622564256455 10.439645316656852 1.665713094298467 0.5322435511971608 -1.0103658950698857
Ni -0.11959121463961475 6.834528197827721 7.073295549580107 -1.4877259068552895 -1.7787310759591106 -0.010453077012523931
Ni 9.039217093628931 5.756451949329892 11.544108504733366 -2.3135675846944284 1.2015484981574145 -0.48673245413923916
Ni 2.8163655872477187 6.5986442512951395 1.8180552482806378 -1.8318402970792644 -1.1096564998421083 -0.41150866050823326
Ni 7.78596890485815 8.858363203210745 8.126471758439852 0.6669634433112707 0.6275733715494224 0.46357915595122734
Ni 0.40756923558004965 1.1811538343306045 8.718035637724537 -1.2177731875463929 2.1309290145221684 -1.2940771016154553
Ni 0.6037551674453281 1.1587119760459386 4.574710549700178 -0.24603914591609238 0.7793160234737739 -1.7784950486889046
Ni 8.20606425780383 3.9372132689004986 1.1918646793121723 0.9020039241240144 -1.2593867493221216 -0.7124585995295923
Ni 6.785853439846552 4.003441194294623 2.9949061122496325 -0.889680626671971 -0.7560436832093947 -0.732094628592965
Ni 4.280261008919003 0.6430334926132664 13.33416446784216 -0.635484398866383 0.7491310152499614 -0.6610506773712616
Ni 2.8925092535608794 2.240367115219661 8.757132251175168 0.5021349047372384 -1.1772675141228628 0.4593777162753701
Ni 3.5578508572557177 0.37786352057562406 7.168471904090794 -1.163195866521145 -0.4259569747230793 0.6810525744144851
Ni 9.208356573845094 8.484461367030214 2.488649888676306 -0.4297544940922986 -0.31316653569220904 2.488929675809933
Ni 3.509056187989017 4.423103021823376 7.821434973540657 -0.07539605754281209 0.18301600811633642 0.31610196417144915
P 0.3841579406715781 8.817132168877633 0.46999505082828796 0.3046700681854237 -0.46192645083915285 -0.8352274899294132
P 8.094952615840372 3.3318642037520925 8.581238076005508 -0.19697118474484784 -1.23265910351929 -0.2096276971665938
P 6.438682596394736 2.076190117435537 10.732072968685047 -0.060826387258753306 0.504411359476241 0.5184822357470102
P 3.8806428139642644 4.997727126040331 12.887591780656392 0.32104233889586 -0.4388101765366636 0.15641691747156933
P 2.9687820551046133 8.369595579435085 11.208507255546435 0.10168713002885714 0.6715934858841144 0.5309531145205114
P 4.099812972082618 2.3896843375427914 7.007725291467404 1.4262004366469825 1.5771542741214515 -1.0697635203019125
P 5.509148758836598 1.7254588311979093 1.1671897039330885 0.2530078639244417 2.05508378525708 -0.41875505765800136
P 5.465722425583738 6.420022555576866 4.7852719999118 -1.6778150197683233 1.817912888364895 -0.714065539005396
Ni 6.790151798235642 6.8157482457243175 8.406343776478288 1.3886250494963697 -0.8257221215421392 0.9306629826216036
Ni 2.1150229260579967 9.178175825671058 9.393881470032026 -0.6504952704529184 -1.1494546056756525 0.5658149593947029
Ni 5.028719581377971 7.953254372121079 12.111371900807633 -0.5329364634991273 0.5135601158550446 0.8269277118144662
Ni 6.777099916002676 2.8684163091138806 13.181909419023482 0.1501601379285801 -1.1026006214365913 -1.824241144575768
Ni 8.943158929972329 1.6575244759712071 11.975466294574064 -1.2050079174609247 1.0263856675369096 0.6018116892042861
Ni 6.652936391806256 0.16625515260185328 12.858849967908744 0.9166311871188859 1.1254006500502425 -0.3750319057384379
Ni 0.5068447112669404 6.357687134990028 0.803983954422061 0.5610375926107176 0.20112017391621492 -0.7804264829291334
Ni 6.159741274410935 5.570358858128437 12.608057359006455 -0.08402005176639724 -0.16309844325680298 -1.030316884270516
Ni 2.1517342273210347 8.585186846877544 4.122521402378968 -0.8430022487788256 0.9721307628480871 0.0984393125155208
Ni 6.08891982438641 1.4368692627012585 8.274365726043161 0.11009952246226844 0.06785166953665088 0.7906106225509868
Ni 4.460081817492602 5.253940647443198 3.155072538729945 0.17866981533249876 -0.13063492341145888 -0.7037847259046782
Ni 7.266605455381613 4.568011198416926 10.504392798871901 -0.9665170162057354 -1.677098710427589 -0.09744789513652895
Ni 3.914642275385259 7.977135165832135 5.521990335122629 1.7712573932898852 -0.3331344941737037 0.588814762723986
Ni 0.8737262028767923 7.720312864056566 12.11786555811647 0.47929656668648424 0.1515837577489841 -0.15724352713792275
Ni 8.752675240931374 8.83794138889005 5.906313384410439 0.8719976075699111 0.5596929056573651 0.2479636166323149
Ni 1.5871642231987313 3.8138337800325597 6.009765462411879 0.5252570925769986 0.025407641439827214 -1.2680958470603452
Ni 6.211220111684557 6.716415581578172 10.51451792334337 -1.3366286018244207 -0.7398691303320613 -0.07225288392814008
Ni 6.83758132363628 7.2184564622677785 2.963261523997596 -1.5091740494267363 -1.0277085001133914 1.250024334270615
Ni 2.650786549817368 4.133637178547834 1.195190833893944 -0.5802301063787685 1.8918513875255742 0.8925062690462243
Ni 6.242766003724654 3.3938675623174546 6.906622552267898 -0.6048602462226228 -0.4770962166010557 1.1750851617595635
Ni 8.668036321235487 9.110960938157552 10.468724725792995 0.6996681326331433 -0.9536900396443964 0.3965132155406655
Ni 7.841819892081189 1.7059778592713928 6.40001489638851 0.3756528271518885 0.33786995197616004 0.14325184084452106
Ni 0.28425892629991806 5.822181781691804 4.591936267064179 0.5398283055229541 -0.19808601507558143 2.98819831474297
Ni 6.378920656474329 9.196688283368275 10.356484072956526 0.7868311009038965 0.1895000731787833 0.20312871970581145
P 0.2841574629044675 7.568947925934341 9.13875545174949 -0.028615349743847496 0.3548441179366534 -0.7210283434764743
P 1.4259757836078797 5.3050966466403855 2.8392621860229044 0.32603953500013527 0.3700627346586207 -1.4958742469940367
P 6.828661768781667 5.686082472612376 1.0662253239091972 3.7933598385249376 -1.9467680941681118 2.059893805051214
P 8.306282420673906 7.532338088066753 4.381009548628936 0.3690571762122419 0.36895613185800324 0.19699072512887364
P 4.462341684027638 0.3848958562748552 3.9128500628638 0.466969412579699 -0.1615912625836572 0.13502662472125132
P 6.307186035890749 2.5667379626041016 4.637945304928509 0.9078639824492171 -0.12442673771821795 1.4222566215078862
P 5.235096127724507 5.156904745612252 9.09594620041987 -0.24895400557004219 -0.24878251298918444 1.1478605217156552
P 5.370346833860167 8.359486135670188 7.867700437077126 0.8935714770859449 0.26954262835467124 -1.2495556221643125
