# total energy = -340858.25128646236 ev
CRYSTAL
PRIMVEC
9.45192081823920 0.00000000000000 0.00000000000000
0.00000000000000 9.45192081823920 0.00000000000000
0.00000000000000 0.00000000000000 13.83384153228752
PRIMCOORD
 96 1
Ni 2.5609129093588074 5.516802690642817 3.20466434022608 -1.2814313878269867 1.8105860156861788 -0.37021880062051077
Ni 9.310170474225583 8.26218874084024 5.113195269714195 1.0634607180123363 0.41825600653439576 0.2976774389176744
Ni 2.9736310368742163 -0.03607231104660038 7.616166013372902 1.3049191865362817 0.18852202553623015 -3.375870020732606
Ni 3.7796530463097824 7.377271547381519 10.01249167834287 -1.7072492658690404 -0.27939535277903493 0.7073477606655882
Ni 6.16838976396309 7.622785193601896 3.1275130356149607 -0.9824840810579532 -0.8402601672573142 -0.905254569850828
Ni 0.8615000593485785 5.409485580375785 10.019298006606329 0.2562554243274619 0.153117163674375 0.45435815157359166
Ni 7.834971366614456 9.276965875989887 12.582681648096878 0.7658462711221132 -0.6716341093140626 0.40451448857858724
Ni 8.53094466063351 5.596718682126677 11.45774142928744 -1.214440266518418 -0.7475125058099319 0.7807345010878554
Ni 1.6355982058347962 4.677708409864609 6.715389441781622 0.22116218016875458 0.21217566039942815 -0.8981691237589564
Ni 5.969077107260526 8.877990841510261 6.934572871860475 -0.5859433547134618 -0.3030993812641941 -0.015315290200831689
Ni 7.550411835022129 7.070462193914207 6.207853424240253 -1.0466655008318684 -1.2592584512743732 0.038645223176023764
Ni 7.087636334248469 4.57610971176171 7.894724520365214 -0.48405387886581147 -0.54391893065256 0.3919564494079185
Ni 0.8419941301202825 0.6236453046597659 7.45879247503971 -1.5890654237367408 1.6233289729053009 -0.2800666678144467
Ni 3.401907026244437 6.083880138906058 12.304842432287524 0.938079843910965 -0.10801410068814947 0.07974764964328845
Ni 4.399406049929565 0.47425769432240106 4.207078362796083 -0.18792372983059893 -0.2833373681459185 -0.2591479153839085
Ni 6.99183166367716 5.624592396956471 1.7466743450566635 1.026897831286638 0.9922568441740008 0.8402295711296948
Ni 1.702376027222552 7.192618820045185 6.271973365461804 -0.014940680470232332 0.4583924695439654 0.3773124742424986
Ni 2.074857327328523 0.9722907505582856 5.478284222458898 0.41093401895168585 0.5754812788398734 -0.37835762767756126
Ni 4.930140862207539 5.623032830002617 8.659749767948375 -0.4639715062936396 -0.6941343472991077 0.8997094716628826
Ni 5.794897108317346 8.027913428608548 9.312789601515965 1.2577294162243564 -1.4467175827637277 -0.2555324301185083
Ni 0.6184571452599443 8.171677145991104 13.797417006148773 0.33958153535062807 0.6766886410188346 -2.940030753898808
Ni 1.153710920935722 2.355068975291922 0.6488668104759141 0.20415458986716453 -0.17991242949034822 0.10597135922650781
Ni 8.023905814133188 1.7922070837645525 5.079094629374104 0.5209687496142898 -0.021673371208375578 -0.6770424248138275
Ni 5.672948424446883 8.212065204135461 12.011855567991828 -0.7395235740671844 0.27079681247674653 -0.45839966863281695
P 1.5157762041741336 7.105008964922311 1.4871652395116088 -0.8677005228564542 -0.5127237359966782 1.5261513007110232
P 7.955899243024215 6.244260333287863 9.419296682159086 -0.0011238291917980644 -0.07724159539198311 -0.5614757085894008
P 1.720873436487356 6.239439853612313 8.311592986362063 0.5765035494568006 0.4446434953889891 -0.9507175872796337
P 2.6404413720844384 9.240519268874362 9.49834309691716 -1.2973611716833657 -0.5131327985096389 3.760199292612569
P 8.239759332467539 2.8007648549406468 7.043625354810703 0.14361796593468812 0.9374743491164823 0.9400727059712778
P 8.869181651201218 3.7663258377950286 1.4063343020814871 -0.3409164521119677 0.8622981208939601 -0.8747530588278613
P 0.9511089957486663 6.551873100034432 4.431948068507896 0.31108908433789006 -1.3386242920982105 -0.8391764472748322
P 8.788878130959127 0.04331437286504321 3.5223311152684964 -0.9263036772116434 0.501808117525439 -0.8046452462671819
Ni 8.73027622117794 7.579769501438318 1.9798579604206594 -0.6889219498602329 -1.8733345596683093 2.450254884947554
Ni 6.887813273815553 2.179820909283375 0.9076216527305593 0.39564186867930573 0.5463954172175106 0.216248287806905
Ni 8.191554535712045 0.11160166602571131 1.0105483457244684 -1.5616597780302781 0.9711475729992114 -0.363153152022981
Ni 3.7421194682870254 7.2119101906683145 7.381488994501578 0.48867389413632617 -0.41759317613941627 1.2030999018049344
Ni 0.14315406848241433 7.660347127387451 10.984831578890008 0.07198908874379215 0.7934295800570207 0.5127838998106523
Ni 3.5394419277325104 6.910535691737162 0.9458783027046487 -0.5074666013627971 0.3859601226151676 0.17576678275309085
Ni 0.5115039339488117 3.5385723510067244 8.417422364274326 -1.2066847909427154 -0.8915796434668968 0.4101973978959774
Ni 3.4410379789047782 5.368634378105738 5.629530080451582 0.7179142233275249 0.6330004561022646 -1.13924784034598
Ni 7.552122632710904 4.637868563134335 13.521736609080392 -0.1616334286755023 -1.0225498387305871 0.15523832378243588
Ni 8.965052485219054 0.2607369100741797 9.61926530217436 2.634342271751199 0.5930753377725528 0.19341252085931207
Ni 2.1890176283506486 4.67670650624577 0.5526632688412564 1.5411678287245134 0.5132217586790193 0.765189868485037
Ni 1.2766709603459578 3.527967295720516 2.9744977780237223 -0.736533381090609 0.08952169831091679 -0.20621198661682552
Ni 3.819710287221503 2.641802448698711 11.098697925171132 1.356851870849831 -1.2577713252058855 0.28745447563808557
Ni 7.014969966119796 8.907102757982205 4.656499244484286 0.03859508666437869 1.6569795710802109 0.9458962546315903
Ni 6.195063084834462 3.7557869459553475 2.894219777968148 0.034945405726933366 -0.6787732914620052 -1.352796984054167
Ni 6.671921947797473 1.5252848366321776 11.18836829905728 -1.5071302795238304 -0.5659280879337996 1.7088243236656444
Ni 4.807643966922994 5.488153918296562 3.5418096339260887 1.233364614226747 0.7769274686369393 0.10482439010625817
Ni 4.830527067500454 1.7549192556860391 8.26862549899524 -2.166292481623127 0.4618485464133659 2.2704039048227607
Ni 1.6166754601280322 2.536252847646047 11.629599091257518 0.29399561919071304 -1.4101431260738035 2.4227821334485826
Ni 2.57824773234892 0.30602200845363864 0.4571582241635066 -1.1072820860726607 -0.093163151718246 0.8356622634739866
Ni 1.6415340121803745 1.7509305450525454 9.520878366804308 0.6739568439099682 -0.601399541367532 -0.593609870119784
Ni 9.099543868166878 5.460686636066864 7.284485820356036 -0.37147684139732795 1.6357625706829637 0.4909174387548642
Ni 4.771944061561132 3.9216398025570394 6.9085375556520425 -0.3171283485534344 -1.1109813893011191 0.8358545819904508
Ni 4.14610402086085 3.220827125020569 4.383723422718445 -0.8733332956621991 -0.22307250981759003 1.4102364571185584
P 5.592049433186047 5.8973559312251 6.636951730731597 -0.08475461593957662 0.9536936391888219 -0.5820679309184557
P -0.018331055456392617 3.489167160292811 10.853727764404372 -1.3839124745120488 0.5807656671672644 -1.0990671543620363
P 8.293115426131216 9.094855715384384 6.868156113852338 -1.7453375881003297 0.910764958146096 0.1276303322571802
P 3.8402965710123786 7.634023527590578 3.0736446478367445 1.5635271702563203 -0.5781074036088107 -0.3298172568750126
P 5.9458253817667 2.0817005180836166 4.070261807298876 1.2073514779924368 -1.7143241704379508 0.6030576457962453
P 1.346756954060071 6.282115276622322 12.757568650725807 -1.0264856834498837 -0.12001215359029009 -0.7753912344980711
P 4.205084007479336 1.1127273917726208 6.210039653551928 -0.5761798475687948 0.16290458207844202 0.9090140368932603
P 3.408211457506381 3.2761775740009935 13.068443275386164 -0.07388630576650503 0.2693315407851297 1.4033950087166929
Ni 5.718364904527302 7.610582763678104 0.8047639587594569 1.0341596550553738 0.4816393558870479 -0.7401228982140803
Ni 2.2342261661705547 8.735125056616287 3.8936734589021076 -0.8219767955670941 -1.439035897848754 0.19952866105937894
Ni 2.605128995480807 2.775254120343966 7.254231166643358 0.843616742434373 -1.6137120186408276 0.31598240787444937
Ni 8.586323465376733 1.9208099199714608 12.975839025242584 0.7893183861021245 1.1263313893946278 -0.16924749357733432
Ni 5.937384816374023 0.5809642104971967 2.4052066898781006 1.3131629146023125 -0.4694003906186948 -0.009830098716544361
Ni 7.922222048741897 2.387233862225048 9.679165905891667 2.025957300204769 2.394187095419709 -1.5561936127093845
Ni 6.20068697778927 1.8128595310019546 6.648267570471925 2.2780827615242574 0.9291835698625998 -1.7599951901125044
Ni 5.979701066388599 3.6299251668188495 10.118154702446725 -0.25847917145165805 0.09933996995291923 0.12081613754882418
Ni 5.637418653661805 2.986315514765564 13.069037801212815 -0.7173861187381968 0.18328186018321338 -1.0094032740463001
Ni 4.525541934773105 7.5449675285650395 5.181838900294017 0.6063435156363687 0.05313776036524397 -0.06908271373027458
Ni 4.282627566809151 1.7319227320573896 1.217395128602287 -0.1269119660339169 1.1386726845688002 -0.7968622598876535
Ni 2.1908418490906114 1.4019089127009141 2.7972856028454123 1.417999646003745 0.6273463431402808 0.046463433668861916
Ni 5.791116339944367 5.970532703084123 10.778775921794235 0.4809729259476426 0.09036450592718631 -0.12337798473872945
Ni 6.841952553451308 0.545943898250378 8.92145833549441 -1.050354005427049 0.5542100281659229 -1.4596340337150797
Ni 0.49224564504894575 4.141500935366748 12.9724363337069 -1.3779400589786979 0.8751739484153638 -0.14037323374514535
Ni 4.953799020301461 5.010642872789211 0.6974109311928818 -0.03422909638619912 -0.5835254893005885 -0.7046509305597154
Ni 3.1014399117227986 8.847291002321665 12.253892797693249 -0.9821117853201988 -0.9873604353136479 -2.4054451848320313
Ni 0.7493038674962161 9.252334170039925 1.9934564390661746 2.2442287890892896 1.0373323963564007 0.6612013440165129
Ni 8.484620796143577 4.171680918904059 3.8429308213762523 0.5288674356360763 0.3966309720654524 -0.5644540744914344
Ni 8.698593382212369 2.0169076000916752 2.5465478799256713 0.21159896196035172 -0.7387614990901792 0.7977947990042519
Ni 4.516883975198981 0.3363002919686475 10.259107418543971 0.47009561691350654 0.3920708634985957 0.49591412063850726
Ni 0.17802031441803418 8.032110081502555 8.101720643593767 0.1441483845168614 -2.5734930016743096 0.9418884190237778
Ni 6.541069554408642 4.036830362960802 5.284887523067955 0.2769708024979423 0.34926379563539844 0.6416784434922368
Ni 8.04130680056983 7.109470271602427 13.77464638343041 -1.1945044468264396 -0.8908875024958786 -1.5666006669753212
P 7.433208015459756 8.800040849580348 10.647866816879807 -1.1087134192025487 -0.9124413174072543 -0.4997291235092232
P 1.4977608428768847 3.040427762103837 5.129256918954708 -0.148434413486725 0.31122303881259306 0.23758613005273277
P 7.069072761537137 5.950541890311992 4.159420832262579 0.17247217116221908 -0.7472520530596937 -0.697619991854863
P 0.9557876966102288 0.4063418616543782 12.17916213003293 -0.4455282119867875 0.13357523698670545 0.43983630380833283
P 3.965298225344023 3.6653698703155353 9.374503083668115 0.2170129338870714 0.670280937720278 -2.9800044660782676
P 6.172803811038544 6.251207495173212 12.810510750252643 0.3853975652434782 -0.985109177385626 1.7100373701371387
P 3.454894494991749 3.6524112867171468 2.4467497727604024 0.3239507707919066 -0.2589903067601217 -1.876767753719574
P 4.5822723642096665 9.202995142772538 13.636847773348322 0.7358929192931327 0.675491792497256 1.7634309552669307
