# total energy = -381167.3300298525 ev
CRYSTAL
PRIMVEC
9.30504136134980 0.00000000000000 0.00000000000000
0.00000000000000 9.30504136134980 0.00000000000000
0.00000000000000 0.00000000000000 13.61886860033267
PRIMCOORD
 96 1
Ni 4.142222946014559 6.453772037521169 2.9439224998349443 -0.9130761227777758 -0.9307984797582034 0.6205704578690281
Ni 7.2886575764144865 3.1035849145312215 1.092826870860752 -1.1809537047251983 -0.0397615961686541 -0.8141411015727592
Ni 8.198299818302196 1.150121733073557 1.9539265725217823 0.4827559859899944 0.5990971184866004 2.505759859993394
Ni 8.026361262423382 9.059239473250319 10.903961148832533 -0.6263682954977278 -0.6082353333424428 0.23789491954240316
Ni 0.49249165074252343 0.5748701131870916 9.496873252135305 -0.40330169921740866 -0.08117718300096342 0.3342495816147534
Ni 5.799990520333088 6.982037850615228 4.3774581158402315 2.0539291028273468 -1.1472655684441337 2.9858254436354192
Ni 1.2658857537299226 7.487599362575816 10.629445677037664 0.6372517751794509 0.38835844764401506 0.2385091560876344
Ni 4.33298560074297 1.4335998207912795 3.649571248559128 -1.2584488108888843 -0.8402784220897593 -0.8169099225671479
Ni 0.57680835332074 6.821293259598533 1.4439674979728019 -0.11122078055090524 1.0429764820160554 -0.19346214315032487
Ni 2.2243608531374957 3.146499765690064 6.47731100087254 0.3520655267502517 -0.7116137350307938 -0.3882396626779636
Ni 8.751707853389142 3.851049589019221 7.1373222433101535 -0.2807706358600067 0.1061932454293268 0.3551498221025303
Ni 5.30120307854675 4.869058343612023 11.396677981578101 -0.6481419397293934 0.0029495695466271784 0.33448329489211426
Ni 0.9123732715527408 0.21602770326841242 12.004147376974622 0.5298236289017586 0.09592014563809287 0.14126643498337604
Ni 4.223204721737761 4.864768719504428 5.706660024104053 -2.9201317009820356 1.9170520551609178 1.133061251919294
Ni 2.299620028370088 0.8116629469511831 5.532093724520283 1.683060584437979 0.8935676204312031 -2.03650550803426
Ni 3.6129242733197553 3.6599891729644702 12.911204678348037 -0.07961909448522417 -0.06221786828964124 -0.7586790639497127
Ni 4.513503404836973 6.474001197629435 12.939110497651022 0.577927940608153 -0.8279366126949547 -2.118745070861467
Ni 6.4242378359647585 7.106325289238095 10.672630374398501 0.4376117853531883 -0.951747828316361 -1.0597940677940265
Ni 4.1983788711541115 1.8821028185918445 7.513516694521332 0.2887222866069157 0.516800220058897 -0.7875718357246629
Ni 3.5130532634568206 7.651340176938814 4.986739202806707 -0.835251401188813 0.36197198723068624 0.2872161343750344
Ni 6.881068845861413 6.17839864090478 7.571546655008541 0.9863785310163528 -0.5495416761559762 -0.5321525341452512
Ni 6.539462164217132 8.010914893619463 12.7608659151828 0.06302390913070437 0.5490058582571642 0.1244737889060695
Ni 3.496397239264642 8.52665612092432 12.41205992297009 0.44035798063975773 0.7941734002015807 -0.5622048734459415
Ni 6.116231658989727 3.3976707494998286 7.4598712695644895 0.298566269280531 0.7958538732277971 0.07830346099759417
P 2.3816160536111375 5.741489724748603 4.421801290861364 0.4226618489115753 -0.3647330949155912 -0.07721537013973799
Ni 7.488892763337108 1.7200927419382004 8.984136622714054 0.836634911799901 -1.3149385184454967 -0.4178230327620353
P 4.622977217474394 1.1098402086445394 12.660890688855647 0.1556556138255126 0.5237355137261497 -1.2954798955002527
Ni 3.257062268176917 3.0747485910834214 1.5987866385953198 -0.2577273808872981 0.7083103816891737 0.6284799425240918
P 6.1035209723715615 1.8098026465397616 2.5762133159203287 0.38541427741402656 0.28055260631192974 -0.40486852948389634
P 0.8101983334272453 3.023831404279175 1.7121099468798373 -0.7256786977642921 0.3502421003882678 0.5013877421585687
P 3.4261255662482544 3.325519458110916 10.658643966597795 0.49591849151388134 0.43368596793622083 0.07113368272203234
Ni 7.517952407779663 3.3373461657915073 3.388415024771359 0.05317838379519228 -0.020589394115577444 1.184060111564664
Ni 7.879471878122973 8.239837523326713 1.1461410363420408 -0.3907184632357593 -1.6707794530777804 0.7811949856640418
Ni 1.349100739400679 5.013798263337911 2.451696042773693 1.00187276999721 -0.9660434190034265 1.7374075346199755
Ni 9.327280497205567 1.5817360806457397 6.219560422254792 -0.6338422352772697 1.1900651801081634 -0.695904294715337
Ni 7.055687253677292 0.8537068462304793 4.474302195720085 0.09526888520733916 0.34458258810964526 -1.4399887486803264
Ni 0.6840480255064606 7.253959076854355 4.183621075417354 0.934988349469835 -0.5737103029823797 0.5330171961383917
Ni 2.968587373201541 3.3480190483325294 4.227256136784283 -1.4487060739486664 0.5590763551192889 -0.6141216169198906
Ni 6.275133851799691 4.868500041125134 5.006854841409305 2.550551562386788 -0.4664888733988547 -0.10150303904250907
Ni 1.2042491591774136 4.54616410031996 13.683831115415964 0.8846569482051346 1.0044994089867798 -0.22929612212979864
Ni 8.277522941191698 0.6826401727353563 13.469429002888543 1.2641934266821455 0.7134124788024294 -3.617384282195151
Ni 1.657348847453362 0.9564559054133255 1.8381253316996238 -1.2114498164315264 -1.2256153092986313 2.5517399262679348
Ni 8.00164707233711 2.166250869293833 11.28219805664158 0.6531170243464817 -1.7849300056809712 -3.020339932472521
Ni 0.7696637118708383 2.593650033090006 3.8614535558623917 -0.5661142358026766 -0.24979064253872463 -0.31935492389110803
Ni 7.147937434594196 4.548722986718199 10.034218924674464 2.055321869409815 -1.1709531418690606 0.41064682672857017
Ni 3.4063616582123952 5.695364634290151 1.0264772728147575 -2.913528850953537 -0.6882411217431244 -0.2509872339499871
Ni 2.774270192639939 5.4384524399068805 10.704471295729906 0.16157403619247657 -0.952229910159102 1.1417891187105949
Ni 3.080517716781271 1.219788578395815 11.022309179499048 -0.5321954715680447 0.5400949289207796 1.3982214349355533
Ni 4.830768098052908 6.8889502159679905 7.016645160769167 -0.40867119105943817 1.3027466043649951 -0.8435668630330441
Ni 2.882217978479864 8.020145494736022 1.6278500050544544 -2.4401257669333525 -0.2062778068577544 0.36429112228216615
Ni 8.749930590472548 3.238973267601724 12.903850904091568 0.24226476647532472 1.5691445164430975 1.5327155841921023
Ni 7.628505605225068 8.031069613396143 5.936464771740589 -0.614899889846812 -0.10764540449482107 -1.1857781226970352
Ni 3.8811793132283134 7.446182623090125 10.188221082657837 0.7764145335562629 -0.466405569656429 0.32888651753062714
Ni 1.9774608833524294 6.997084102636879 13.077191729716619 -0.7362117360851321 -0.4938338410707109 -0.12477177976246252
Ni 1.8125104136011716 1.079561603772277 7.773841047603637 0.6333876642383544 0.733604123258956 0.029641219905200564
Ni 5.293535724393479 4.62885800366962 0.9508096062625914 1.7031493847680539 -0.4862431732076465 -1.759343415461118
P 3.6621107224146474 5.52902771336312 8.020219935067606 -2.9958123796448017 -1.3241878049579066 0.02137872278609221
Ni 8.958512399574154 7.003923308101264 7.69855581825499 1.2626785326995158 0.44870686682508526 1.2285682212793678
P 7.073618068547867 5.038689249211697 12.835252277527559 -0.3229963772984373 -0.5368789930866432 -0.13054210658733648
Ni 8.89916484521789 6.4759552563335445 12.313963384511316 -0.8187454331139898 0.26870959093041463 0.7063954240546481
P 8.453425444727422 9.281471778156353 7.405641488004704 -0.16722352116877007 0.5727134862867492 2.4371733691732476
P 2.6814617092361464 9.067037097983864 3.5242500198313724 -0.38391866670510655 0.7003646444795357 0.20099727518510543
P 7.36029709052375 2.8308820648104502 5.644381381691622 0.22183658052795988 1.0588201339165313 -0.3016022278933774
Ni 3.7130186041774462 0.8159088373639716 0.9457960499303311 0.9661465202401941 0.4055822677214692 -0.08692591255928256
Ni 2.3567529828616953 3.60653170984488 8.660456103419625 0.46611452077857146 -0.7550527800510352 1.289945595945585
Ni 5.209473979950941 8.525158009251168 3.106449936793105 -0.2896244867062109 2.960337840887276 -1.217731021454548
Ni 5.4459429982726375 5.300477285313795 8.996978510416639 -1.9081946047702876 0.4357266525153335 0.4047592575995416
Ni 6.188848202451046 2.7648162705286246 12.28012001826027 -1.4601719084964206 0.24478084802895905 1.4510378074056367
Ni 4.8888966919794665 8.018814873808937 0.8431791223360486 2.084766142812861 0.1045575095981167 0.3109708135924709
Ni 4.813684041954115 4.173878697021147 3.118135207843685 0.970283425226703 -0.07342813518316386 0.40732753254735005
Ni 8.27486169933753 5.212963370493996 1.0373985999624449 0.08533388548181432 -0.1712886923770792 -0.41105640346216304
Ni 6.116696911062133 0.925019753384914 0.5405875489796927 0.0466953471740099 -0.3740248046301623 0.6421067892789071
Ni 0.810675682053535 8.653902562727696 6.307170179001507 0.30183157029536406 -1.7399611542797648 -0.448526375383163
Ni 8.488672941732995 5.672613807949437 3.445274411044391 -0.5081471723695894 -0.23033613335853878 -0.29157158313025267
Ni 5.002622908558689 2.9087652617314204 5.178970193075633 1.6850753008751624 -2.1885633772061857 1.7427243188471988
Ni 3.6394529464884156 0.34859197625940314 9.104771832568524 1.4827652204159045 0.43085646890722573 0.4339909007711493
Ni 6.051682586463948 8.460376310689186 8.497179610624888 0.13359349181915056 0.3734020834444988 -0.1181794712569255
Ni 1.4929287650646486 5.7176129883926645 8.756306404872815 -0.828202978982464 0.5501587409146848 0.24666855196997522
Ni 2.430504741379689 7.953707498796271 8.428908521519851 -1.5292376529458307 -0.6011447450442485 -0.4441051063870158
Ni 6.693879327049089 1.1468556635252583 6.840376038600388 0.8244530250217285 0.6466265315261315 0.7069263568574535
Ni 5.324288886379596 9.275916668411812 10.705439020040515 0.7795715911280058 0.8346387073054788 1.153670443529213
Ni 1.0839535833358014 2.7416281072398485 11.205591511407295 0.6825731248240697 0.1608124754361037 -0.7901159423027554
Ni 0.10853958647602639 0.19327873793598874 3.8305384861550764 0.3181058819753554 -0.11731583770504958 0.5137046118527089
Ni 6.568205437250449 6.271690986463877 2.2082584789114814 -0.7481041166473439 0.5520724129976299 -0.06202426422159641
Ni 0.11986289141427343 5.013537722177363 10.551000455613224 0.8454751357993504 -0.4401594914757065 0.15717076491845833
Ni 0.8014348453913828 4.483522561291052 5.365725166452329 1.203269080392947 0.14020662626029404 -1.8726534744408845
Ni 1.6479786707150805 2.1784776937566948 13.611023818604957 0.13798853556305268 -0.47349898616810066 -2.635716526390906
Ni 2.0616156782094484 6.464482140227983 6.703629149478456 0.018485460398697195 -0.7919959329342876 -2.2761158676058737
P 0.8118620748381735 8.732883754539547 0.47403603153427365 0.007286763469400354 0.1622612920674883 -0.6677116343312048
Ni 5.402776910994695 9.075914107525394 5.820799384523573 -1.618014502670923 -1.182172407623648 -1.2103167312683478
P 3.7057885869722376 -0.28376561349846996 7.03862646018212 -0.5268761162376603 0.11745519149639128 -0.4102557619377386
Ni 5.580679998441769 2.533623210708026 9.823031703967379 -1.9471933546309885 0.6070742231548061 0.4724615460425218
P 8.864075533916935 3.299167580729771 9.1978436486453 1.0146786635126268 0.17452031194049944 1.6799804028507581
P 7.498979428266896 8.079372083553462 3.3125584658777956 0.62602479611538 0.15315007379483947 0.7945482670424961
P 8.64129423156546 7.0310940291298465 9.919002970959395 -1.19166594893638 -0.2406408577186565 0.0880548839574032
Ni 8.408677500403295 5.784292915410068 5.754094333894259 -0.9214484060018711 0.7794651474571285 0.1793455012432847
