# total energy = -340871.95917605347 ev
CRYSTAL
PRIMVEC
9.22887869899981 0.00000000000000 0.00000000000000

0.00000000000000 9.22887869899981 0.00000000000000

0.00000000000000 0.00000000000000 13.50739684534233

PRIMCOORD
 96 1
Ni 2.960347375716157 5.408021318541431 4.167923063105937 -0.6158699670695652 1.8476111867602762 0.3885451097335244
Ni 4.292019178664023 9.220757146944935 9.093260189637459 1.8964750023405146 -0.35349557432855894 0.17269868535072838
Ni 5.6882746737753145 5.053604695198763 3.685573879387759 -1.6544354645021184 0.4855777717095056 0.4823003865098146
Ni 8.946844031281826 7.925437896645215 5.022508911778438 -0.4900700031529044 0.3914342583558614 0.8592225672924299
Ni 4.248394269710535 9.057581345124198 4.923973098280342 0.1336621402735569 0.0937835589110643 1.1219327461063
Ni 3.5476547495223882 1.3003766757506425 3.086480304772452 -0.12416397097513453 -1.3104825395566722 0.7932395755334015
Ni 8.57719052943647 3.0746378078041605 12.327052776873728 1.1090026683081933 0.11542427710929154 0.4473475245837134
Ni 7.203324293711926 4.591957731866552 5.4510177408649785 -0.2009293980616475 0.7836976974812374 -0.3764488406906226
Ni 5.24775261346712 2.8976002303861876 2.909033888034268 0.6403437838412133 -0.20528561814781418 -2.8617013247592844
Ni 1.2409519267023017 4.097825116002866 3.25779505459532 -0.8948140912437943 -1.215623745303558 -0.32846665638438916
Ni 4.947204954279627 6.834639824115378 13.131944806051635 0.16806092946840087 -1.7489479311594072 0.34682767539008014
Ni 6.5858846314070405 7.201681553328233 4.660254201874696 0.3204841523995448 0.7516188146688217 0.13079278914556183
Ni 3.68432521211858 7.597258975048847 10.980162553180294 0.9005975306947909 -1.1948307198176067 -0.9673847635226693
Ni 7.929369398911808 1.227016320076584 6.926323195282615 0.9056489770757693 0.685265326944252 -0.15326577343709732
Ni 2.5531415670098436 7.523926306010469 5.885105427041085 0.006307430275266556 -1.6663946937465237 0.09018967091221887
Ni 5.879026364733562 6.874434748466434 2.1413813067341327 -0.49644788165479015 -0.34850403465123847 0.4290140163818483
Ni 3.9969073289484154 3.536155566836531 4.681852546368845 0.19597796759364314 -1.9296607450638636 -0.2240392446062335
Ni 4.537959563411537 2.935641667810829 10.81000971916814 0.4860889070179693 0.9287886484170261 -0.43206360184144943
Ni 8.0968550870201 7.794950782684274 2.523100644408935 0.947798870970942 1.08141575982886 -0.37168304387086315
Ni 3.500790504194313 4.681237903056744 6.595202107201296 0.18451007616335965 2.0403567634595507 1.849312228611783
Ni 5.570883338491124 0.7873405479323496 6.64927226090908 0.34811425541198754 1.396965193930949 0.26441353465822204
Ni 7.1298162759809065 1.734318545645501 0.28652253243974346 -2.2174031842560136 1.087084013858231 -0.9388318915856412
Ni 2.3097760393805924 0.5354835291399703 0.7921764802978304 0.6908330508400168 -1.3670221265146134 2.048245679289324
Ni 8.96637233831495 5.3990323908239155 13.343484545966458 0.3462152386170618 -0.2148897168964815 0.051054395473654014
P 3.758313131534724 5.245786862333824 11.602664255375382 0.03688041796611713 -0.16738010135129236 -0.6889103798960071
P 1.2035380530197461 6.890668345853611 3.9069469894083446 0.5282495995464194 -1.5377204936058615 -1.680337786190177
P 7.794295532306508 6.844717759502983 6.794814444465074 -1.0050226284801014 -0.17825715327511235 -0.5710551247477197
P 5.049728566203531 4.307652898944795 0.9259887592039664 -2.3959318460249577 -0.30547148104079647 0.6682829334536426
P 4.4934394532377215 3.96544608193711 8.653311242687847 0.5071513841152234 0.00800924345772169 -0.9776316380616581
P 7.278179727712717 6.700608820787369 0.5571224806997848 1.0868824393703862 -0.6871401753694617 -0.5058825447051288
P 8.66172705704678 3.538665821804872 6.466207302903521 0.32685997401890154 -1.7164049642263792 0.9800060518311057
P 0.6212530349259094 0.3833177794414075 2.194331074584723 -0.6841610381364798 -0.8215728752604561 -0.2617460151283879
Ni 1.909178107723295 8.588274412587122 12.081636592428428 -0.8123881234373944 0.8417660623788794 -0.11129302854973736
Ni 0.22973355110816074 8.016840709904224 7.706928507641821 -1.8950745224485621 -2.082819560609452 0.35507268900769173
Ni 9.017851022923063 5.205687384990286 7.9232635728564595 -0.2647791455277569 -1.4335275664360152 -0.3270808317804561
Ni 6.6706149654671165 2.440420044277053 4.55635548704534 0.7237495990623795 -1.308824949348591 1.353396308201063
Ni 5.811683237880674 0.7000242820997414 11.231724247858752 -0.17087525898874442 0.8833724250657561 -0.9010821836406933
Ni 2.45900700569705 6.354276695063329 12.985227786254942 -1.0161411069907662 -1.8392563870376775 -1.1772927109338434
Ni 8.054328414615261 1.9260761843667975 10.17821545915091 -1.0007913640075734 -1.087401802208966 0.12386700856000603
Ni 0.19672277538661845 5.60946927975081 5.3171187105003765 0.4348115969002318 0.009385812090274158 1.4315275052868506
Ni 3.599788684508267 2.3403328562930095 6.648083581350542 -0.573442908253606 -1.48494782988952 0.022309719240793835
Ni 3.956069541320071 7.510442914434196 3.250514392299275 -1.1951935024736642 -0.047219595108596094 -1.2422997119328476
Ni 9.146141663786706 0.6813911762869443 0.08631400962098366 0.6340152705200242 0.1948058016624129 0.2847738434821289
Ni 5.826855514233443 5.260839163265311 10.471703949127802 -2.620501509213364 0.1984266862444518 0.6549365940537236
Ni 1.7131751848643626 4.057541061088127 11.686897152881068 0.5713505445009515 1.2224268842683204 1.0122021769476761
Ni 6.594190622111111 8.652775044843505 0.657750480967449 -0.4909156389826513 0.9463770509227508 -0.7289457985513381
Ni 6.836993188148198 7.567975743377721 11.31690218252899 -0.7982447420574769 -0.2516102122459667 1.223053462108726
Ni 1.0185451822829867 2.7197597405334886 7.901152102714369 -0.6788841060082567 -0.15049206734670212 -0.6684935068025519
Ni 9.326520095243426 1.0611364568377457 4.3094940602175305 -0.9967413623079157 1.3805361018406483 -0.14570338770880714
Ni 7.056022163014525 9.03044844215757 8.868213985949962 -1.1440542605956878 0.29131241593159507 -0.46238899229786823
Ni 7.143447329614142 3.9665535473643194 9.05576417893572 1.0156145450633347 0.04546584564228299 -0.03905145747550693
Ni 8.10649003623682 5.469485649751549 11.07082428749093 1.6264965720000053 -0.7404306592624861 0.0774403416663505
Ni 1.5909663749718124 3.7533387659908417 5.639972569167578 -0.31430553439265874 -0.8533311415086594 0.4745863056950085
Ni 5.580758238550407 7.814460631960279 6.897916707074695 -0.2572856653641891 -0.5051767768873558 0.5263693518045709
Ni 2.4174585944195797 4.728951205212346 9.323615767160568 1.0404627144552663 -1.3566554385683087 -0.48442951703767534
Ni 1.1014205117524853 0.2315682521659042 6.356864472611575 1.710299879769906 2.5051888179812725 -0.09373290817878695
P 5.576226859177409 7.336949226383293 9.62518137165324 -1.3580895999116738 0.9632761406709347 -1.3805319880755902
P 7.31993117431851 0.15106013004706548 4.7848874381649775 -1.4356096457760246 0.9186569592996631 0.12453061028593393
P 7.63549421892325 0.14837360349822684 12.206674976487498 0.21496864976353303 0.41316856470915936 -0.3638671473708701
P 8.151526963610001 3.5308489616644865 3.4355930916066435 0.12877241628142339 -1.1057201409021795 -0.6367974612508517
P 1.5700075917618757 6.137924094979424 7.42558337607428 2.200062893205353 0.20824932876182844 -0.1303256197011562
P 6.778315978263223 3.343290462688025 11.278095671071718 -1.1670075269577516 -0.1698481032758107 -0.6443454488014387
P 0.5175896564998355 6.849202994483181 11.809435433738212 0.14906150554776265 0.4352851941025407 0.0901485332616383
P 1.477534228589896 4.04728777700788 0.6945460197864793 -0.2788672481897068 0.18198730974150593 -0.3170028787191637
Ni 8.743550294360432 3.253853400562311 1.3347302533026761 0.860836191636453 -0.6116569574294821 -0.14989891384739346
Ni 3.1624229006676208 2.146378744474415 9.014904241998831 0.48323369695736135 -0.1569208536911814 0.023465173001475718
Ni 3.4533079240027127 6.812047529400307 8.505324329201287 0.6636742310370377 0.3043746484321919 -0.3045152877751143
Ni 1.8760372048140554 8.862648972178235 3.994529046943483 0.8558672776669518 0.946233326256035 -0.9601465939030174
Ni 3.2070076129913563 2.8895065038889993 1.457947779621843 -0.8961217543116243 0.8660753285482052 1.215625545075771
Ni 6.9738389994370324 4.756047192664735 1.5503380828867819 0.7809733565715389 -0.6249559885312334 2.041237623402607
Ni 0.6045921404614009 7.613160332807862 0.5342173270015276 -0.018957772049425413 2.232452365279652 -1.1262920515162602
Ni 8.8110595410274 8.275221622950722 10.178579999854033 1.2136244554853421 0.6870195906311974 1.855920735067236
Ni 5.720566519857027 5.56677648753189 7.109861594758306 0.13792528642528504 -0.829484931018681 0.7620538939592166
Ni 4.1533460494202945 2.711361461043818 13.024736615370635 1.282627207907301 -0.7492688263794064 -0.4253031431891643
Ni 0.7039733192355987 6.0253040899107955 1.940512919098327 0.39468181875888153 -1.501059647849718 1.7561177094349691
Ni 3.0595947357512334 5.309761448512283 1.7053490958454167 1.0358205876975644 0.4952384347277213 -0.07997467805243001
Ni 4.387288892039707 8.978129929600488 12.931967928084733 -0.9133296335494786 1.8972681876657713 0.7639130586551424
Ni 7.693294685345017 1.1562861947921481 2.4465674002859212 1.5562776877827584 0.9482680972978765 0.3811806989486532
Ni 2.0247421250525894 8.869893641847897 8.945570446040534 -0.6430688960818601 0.6122825068286228 0.7231371622893611
Ni 7.503945783927901 6.474981197750586 9.095773213269368 -0.9715826036541009 1.0035506719202651 -1.37748034573346
Ni 5.804170930732771 9.315445440971333 2.9802319174617007 -0.7714109096940844 -1.0096670692306482 0.9628758199087225
Ni 1.7547974271703135 1.8211161485030327 12.605048748411816 0.22371322872538246 1.4903468894179042 -1.0894226892937369
Ni 6.232510871341662 3.118216572364848 7.056790928598579 -0.2355187060007428 0.3936016983208253 -1.4694561620118243
Ni 1.089284536445983 6.566024084745754 9.652250595357803 -0.22925215626574064 0.035955849269318725 0.5003356467449704
Ni 6.503323083808586 4.861680936663386 12.94727217740091 -0.2806227974282329 -0.3295570612350905 -2.8536218901852592
Ni 7.984318141858511 5.584468247731559 3.409928503218923 1.0124608299257014 1.2457861278195514 0.46029354322142013
Ni 1.1747070363980634 2.2158352845175604 10.219655892549227 0.47133026065155603 -1.531617466031917 0.5231732134647764
Ni 5.7702732597816055 2.0081670591586898 8.936466157341018 -0.31422685863592337 -0.8826296333624605 0.4845819834551397
P 0.31447680559821917 4.084803168354596 9.892614891679317 -0.8319578180392059 0.7125066791587084 -0.11328666194099844
P 3.384921933872536 0.9713117818125084 11.219392620326776 -0.24250079374553077 0.02291418559401215 -0.5626324479016633
P 2.0937925944390914 2.0036172220285713 4.528746373945011 0.6565394197644694 0.21351931891151615 0.22870065463764483
P 4.623059052614014 6.574293159935584 5.14775033116583 -0.4836574147583412 -0.823440524596814 0.7416665885521162
P 0.05058902071492248 0.6983446262018073 8.819371069058606 0.2718908168718737 0.9267289376745202 -1.0127511074726105
P 3.272892577031752 -0.07752534856822156 7.102027199748656 0.8010654993357236 1.3363064425983116 0.03252702609342785
P 4.966853236734033 1.25735164390356 1.2943391433966398 0.12814249600690833 -0.17982758308602578 -0.99719799022936
P 3.1422947165280903 7.634709764245643 0.9102461381561857 1.0341545128490512 0.9092850311664598 1.3816481039579043
