# total energy = -340888.0495096505 ev
CRYSTAL
PRIMVEC
9.10831559697577 0.00000000000000 0.00000000000000

0.00000000000000 9.10831559697577 0.00000000000000

0.00000000000000 0.00000000000000 13.33094055882693

PRIMCOORD
 96 1
Ni 6.4892923068543285 2.117000250429663 11.346603079146066 -0.8015496380609938 -0.6152179353078631 0.056685368507186244
Ni 4.932080024118142 -0.04024053826566958 5.665956138467476 -0.30394116043919917 0.9439589283995614 0.1379545970013237
Ni 2.7923545262976135 1.307863035212199 4.438229885457408 1.4065176135060744 0.8790231469581249 0.7017995771538494
Ni 3.666689064490556 4.616194531227313 4.799005711721337 -0.12290284487452384 -0.7616234912900173 0.24858916603145573
Ni 3.631540074638311 3.063427106497838 2.6464721005216356 0.06528236614757789 -0.5441253902364113 -0.4672303795505695
Ni 5.20207782307904 4.858047635022768 2.198338419457788 -1.0121309573901085 -1.0180329246968403 1.184425722434199
Ni 5.116395898347226 4.849904800887525 11.785217659589394 0.146624871081812 -0.6332801921262126 -0.4964825915474675
Ni 5.85321308779977 8.171388704611019 12.306444662411543 0.20063346408778351 1.3816308775667239 2.5157329120457064
Ni 1.8401985397248877 6.705760535107362 0.16274647208627377 0.4386312277566381 1.133481627286164 0.007618178666890105
Ni 2.992965177112772 1.8514928510534143 0.13724318844121383 -0.2036573385157718 -1.136540468717146 1.0559502685679039
Ni 7.96434758299107 8.754493960208551 7.106271388121853 -0.27882842453197143 0.4092964833482628 -0.24170246621395147
Ni 8.720756759272373 2.393929477552664 1.2162880302952588 0.6454319969973981 1.3193957828859018 0.077861231253853
Ni 7.310243007388808 0.5643266413507402 4.7437619560199025 -0.3952731724859773 -0.22594160383526896 -0.5277124960960267
Ni 0.7288802032495781 7.776698065256953 2.368081899578396 0.1305557334340913 -1.5326942440358637 -0.31544273332089545
Ni 7.86659714010579 4.043645813395717 3.747140994412015 0.8149258022575836 -0.18966488089142172 -0.008609081825249689
Ni 7.547541953390502 3.8538285165517707 12.488558145931563 1.148765807138744 1.1199537680030582 0.9549701919084005
Ni 8.396382316253973 7.210643576439261 9.193389987603535 -0.18918562726215804 0.16042526730001402 -0.14895146233245962
Ni 6.943287188998745 1.0156955961112748 0.09384479716135058 0.03290035027244656 -0.4335995788700016 0.8722642309677364
Ni 2.34837879129947 6.845263496645839 9.303090540539642 -0.3274217600596426 -0.4015060407695666 -0.2648835323161051
Ni 0.42513700586847303 5.201831898558176 1.1993711557545554 -1.3085413566699013 -1.3161453942694041 -0.13179963314352142
Ni 6.681641715431605 1.8838273713891154 6.702463324864679 -1.3568582986077342 0.5345477738503052 0.165301878666025
Ni 3.348954583535459 4.757901705137971 0.47299938261778046 0.24597255434421508 -0.6103346390736327 -0.1357521900333662
Ni 6.321371400682783 5.6974882161999165 4.557768330059598 -0.7646463372767411 0.5849673639534377 0.45761856749241836
Ni 5.077357657739109 2.8067365566103097 9.320660481307971 1.848694649632442 -0.42013882537940545 -0.5607853673905955
P 0.022536705258204223 5.767822629166758 12.279289130318904 0.4717485791358972 -1.8343499508749954 0.49637949031069994
P 3.897220532010723 6.577752267840335 12.637971865660822 0.5005174237384735 -0.3890354191063816 -0.5540362215922201
P 2.4749297280724925 8.694952901212925 1.048874457301939 0.27271819786917545 -0.04309914518231932 0.020686067594441793
P 6.596979922045593 7.62457097831417 5.587143705351771 -0.3248195465501051 0.6476089500440588 0.845282303062254
P 4.795673889879422 0.977249396016347 12.534243635255454 0.8444490085276811 0.49884235002889565 0.47669923827295313
P 4.0948983052067 6.3162069857446586 8.089095073277763 0.3390171782067258 0.34074393108984546 1.56708557703154
P 5.032863536094067 0.9050313833860072 3.701909099204384 -0.36492258521857796 0.9828496919274881 -0.08037525592495835
P 0.24773525400187726 5.898508741216514 3.521514354835728 -0.021140124412724882 -0.6844883395689115 -0.1452336471612402
Ni 0.7423541344981986 9.310429110408508 4.364949843229564 -1.0863540776707419 -1.1611592957070904 -0.2939593666361389
Ni 2.005159243330488 6.665492671894929 4.7807681314204435 -0.22597322840415277 -0.12601645080284105 0.27414695989590204
Ni 6.20955771853037 5.794819676568171 9.053134679197528 -0.3750666156311154 0.19265173143388759 1.0134283360452934
Ni 8.835894976614231 2.460001198824545 10.175413962650861 0.3947599802949846 0.3308454410292108 0.32817072241052514
Ni 2.533468872353492 5.03740858557224 7.076596495937708 -0.19123273959917386 0.12459745896812734 -0.05342726658120476
Ni 0.5222644399675663 0.17696546354995343 8.940074979472742 -0.2389516429416917 0.6832159006143911 1.2327820022503995
Ni 1.5797553638153008 1.2598348871191987 11.46134235226519 -0.9343298899502297 2.1299028872504997 -1.0914124660302558
Ni 4.156106185954844 7.0759589138465815 1.5702116707426956 0.40016495336063984 -0.04861698967675498 -1.2562602878779978
Ni 5.744049925483326 8.002912191188635 7.820050004127321 -0.13997882652020407 0.04918520347539917 0.25088824647827757
Ni 5.3879056776956515 2.8298170283090887 4.624396569413875 0.00819359155438589 0.10470637647115516 -0.2934150640968947
Ni 0.9379561225717796 7.697610561010505 7.245645922410547 0.8155814335637115 -1.2927974635720831 -0.3439156439496077
Ni 5.111878173815815 4.664869369727027 7.15338232883519 0.13158751713271533 -1.173630688701224 -0.5163199379883688
Ni 0.7936130021300929 7.34081051450053 11.194643585210093 -0.22953703449601112 1.678652428067954 -0.7140421419666283
Ni 4.790299983682784 0.41120037218800654 10.309256106051693 -0.619656944915823 0.42671030794933607 -0.28424548178248465
Ni 8.623060966280619 7.059746112100793 5.240166066371378 0.32681009461757266 1.1118601923616465 -0.8786012289293578
Ni 7.36267047191058 5.878670829866893 6.949792347991353 -0.15097569185134 0.8441337912801075 -0.5062802943641798
Ni 2.32184626799302 5.6895275483764225 2.5886024174363182 0.9880849721844983 0.3477861826486075 -0.2892681318080567
Ni 2.209039779441567 5.463276989182392 11.353961687309223 1.8092842661556192 0.11676999250390857 0.02723081069149504
Ni 1.4921606928101072 3.8025851330563754 3.64306573718276 -1.393100311658904 -0.7693604549229588 -0.20547125179605905
Ni 1.615377986078097 1.2672763809542038 2.072401383155365 -0.4454094270207361 0.1518131001509708 1.4041025763066786
Ni 0.9058392909786204 3.3756692731536595 8.02511917542257 0.5905096339279055 0.5954281542754455 0.42757856948690237
Ni 3.903168262089374 2.567488431072885 6.569501044749599 -0.14367735841771384 0.400581214962452 -0.11936629247617508
Ni 4.113980226362557 6.7819880282593275 6.009614707247776 0.25238642829035884 0.5372590021338812 -0.8041580222181184
Ni 0.5676894314656531 -0.18949941662994166 13.271990783729482 0.25631558814143596 1.0811648201603186 0.7308363307058316
P 0.219429341650537 5.637427983215801 8.00600264266748 0.8636469216123707 -0.5657432256165031 -0.7142640281694473
P 8.514672010789113 1.7957590679733708 7.713949057511401 1.0050570812624626 -0.5131451398048131 0.91089685573827
P 2.1460739937850315 3.367963638166616 10.230723298224525 -0.3260835008641933 0.41934255473035525 -0.6078990330489467
P 4.34261716424052 6.2877708244804165 3.7038819603606408 -1.077668376971286 0.725838363270608 -0.7348040571043281
P 6.938632839733521 3.9759254870024954 10.388135029871188 -0.8714877578130281 1.1764414186771415 -0.9551031179418391
P 6.546674695055713 8.184295187798536 9.96003873226833 1.068748962994469 -0.6155735188750688 0.22832784467925835
P 2.26668630879499 8.58593547194588 5.695457972655458 1.3257669765195683 0.1697928245578431 0.6925718879079943
P 7.044808474537259 3.9427621099483297 1.3786993163679118 -0.028161292925564404 1.0989679097800105 0.12384823950692864
Ni 5.220850061504922 3.112921693400429 0.3817659395353723 0.4736077438318231 -0.433620404805608 -0.06884077292279757
Ni 1.5096850920004985 1.2622212658031293 6.9946908788484805 0.798315190284096 -0.765669893445249 -1.0034794523626975
Ni 7.129023960459481 1.0239477300335693 9.335711061984792 -0.7274329614512376 -0.17913929876974954 -1.7483324090625951
Ni 3.016145840283014 1.6869511299648403 8.910680623408693 -2.1512173324575596 0.5031520331478432 1.1061022068319468
Ni 6.8354538407580785 2.1599459584248266 2.5912948355239895 -2.1128042798970004 -0.583282262941531 0.2828794546728935
Ni 4.860015031189674 7.131801996713675 10.686242001566734 -2.894853900251853 -2.2817620101480576 -1.7911273927409348
Ni 7.970541237590584 7.286807311382114 -0.08475651986812172 1.3192106634582894 0.8572320192249624 1.0063827420524216
Ni 7.602191846915631 3.9311034659963022 8.294778145043614 -0.12247989840449229 -0.9485311211512761 -0.2507697186225423
Ni 2.8439075925229846 8.692193081589906 12.049356989964398 2.2789229980373658 -2.1256417979813005 1.6697199014650146
Ni 0.1538849918511742 4.890582538301395 10.11329160701773 -0.19358864142586016 0.16289506899674527 0.2045595386150671
Ni 9.131177459646088 2.418485496376622 5.554269972733289 -1.312644065984365 0.5011416875860337 0.21785059929701833
Ni 3.9091615337459635 2.6651022492243515 11.554286337014934 -0.17546030725626557 1.196940309961442 -1.5638837822647904
Ni 1.3357162642788396 3.5887036664301974 12.332333227805954 -0.9153374080081268 -0.2963507496864509 0.9053790112438342
Ni 3.346750371163279 8.621184653269589 7.81043799868781 -0.682429914377986 -0.8878322606093226 -0.25986782426906857
Ni 5.952985576745479 7.9614238136874755 3.245403965284046 -1.322175145403252 0.48339259113272876 2.9217345266927808
Ni 2.922302864784781 8.362371865850168 3.139849517603378 0.85485194902856 0.04915332179619922 1.101052303112865
Ni 4.056634271423523 4.726669290988359 9.755275600376818 -1.608944679159171 0.9096647831033817 -1.0069766668826787
Ni 7.159345543050341 6.437884973678357 11.307957406939773 0.4452435908668332 -1.5390883204876655 -1.194823520728755
Ni 8.173510942142912 9.24776389916636 2.216695318692879 -0.2271821611105894 0.2615845498498592 -0.036877075532007454
Ni 4.890272855571419 0.5010593704482578 1.6157231912388639 -0.23687187759452755 0.054883282301440954 -1.0678873863251221
Ni 6.06601977318662 5.859188142825184 0.24008335807680053 -0.17749173586399752 0.42416363026808235 0.2478684858153473
Ni 8.175587638096866 9.172529212413435 11.426615988256208 -0.1926944117463649 0.018748227141780618 -0.8492626278662406
Ni 0.3349145858162797 4.906367249214569 5.804745008063892 0.11708700952369512 -0.6242563913610474 0.08099077802177018
Ni 7.17536707016879 6.089974643181802 2.3610165791771554 2.4639953744620984 -0.13691895664795775 -0.0357290779704933
P 8.811375391052623 1.8887458618063768 3.5186352162785126 -0.16448941006705864 0.20765360415935852 -0.8363541473346887
P 1.817054309816996 3.3122298550865725 1.2662152621882574 0.19441345132000065 0.8997243840612181 0.7431647703641975
P 4.765297657395038 1.1207235831509843 7.900702316991705 2.2102097518313673 -0.3370945072627162 -0.3648156273270685
P 8.864613495661686 2.0083107205237702 12.46742867543163 -0.7911898920932245 -1.8795355462726984 -1.2244531706697297
P 6.621362882873388 8.007776031712371 1.348344943840938 -0.547351867593509 0.33466815720941073 -1.9727007548734736
P 2.035152926560196 3.174448365194136 5.628856147416384 0.5375197119944356 0.43775422446832357 1.2715663221074487
P 6.823002773349937 3.9766177189871468 5.828407501128715 0.8494899133856982 -0.15459503377148212 0.4407547018575441
P 2.3435240590913207 8.915838662525905 10.033585648142887 0.47695094927244314 -0.5079443123301639 -1.670328738693607
