# total energy = -340868.39083735313 ev
CRYSTAL
PRIMVEC
9.28141509489090 0.00000000000000 0.00000000000000

0.00000000000000 9.28141509489090 0.00000000000000

0.00000000000000 0.00000000000000 13.58428917119155

PRIMCOORD
 96 1
Ni 7.449310305445521 0.8794289474118051 3.3449543101741654 0.20716020946270775 0.10512083830075443 -0.2928594487037408
Ni 1.0855264861220548 2.7941886308644786 6.770410047579971 1.1036568306152477 -0.7672104984594915 -0.38467688502736974
Ni 3.1237809686354567 6.1766890502438185 1.0330753521294511 -0.9433655177899366 -0.6977665447350564 1.117929795594494
Ni 1.0149784486295255 1.5144485301481372 12.121831849239463 -0.4543884905908948 0.20916849814198815 1.5293980897830952
Ni 3.9444901141790556 1.4642731991805522 5.774464069109922 -0.35243962226021885 -0.44988880294832834 -0.006415930828672822
Ni 5.318046760478148 0.37498959615585625 11.3453402941995 -2.981814265593497 1.0132457877208418 0.8202315307412132
Ni 6.7578263047524 8.040879870721318 7.3888752980348045 2.8022340226315867 0.509495973088 0.4314424233176828
Ni 2.8950312078091347 0.5813117451157205 10.539737580154764 -0.06844482303595954 -2.4253984880255066 1.1157512998859367
Ni 5.010590598134045 2.7776955559237835 0.35237821226698646 -0.023349987579850108 -0.35119829365395 -0.8291074930746044
Ni 6.502346067938907 0.7213302477875461 9.50434280234851 2.916038761859584 0.8655153422796772 0.015828482391824352
Ni 1.6715921721407714 6.90384152983232 6.0967649270421775 -0.35236428893759314 -0.8601731041311573 0.6515468516458844
Ni 3.8552028992496874 7.510567646249453 4.845339639900163 -1.0677428903274577 0.8987432510948715 -1.2763647719373568
Ni 2.0896549602970658 2.6912113284069585 10.27544185511467 -1.587374409187563 0.7570464134422962 -0.7789758665255359
Ni 8.24203598394005 2.589431328519697 10.319617679249577 -0.5826950229794933 0.14073601640120278 -1.392148746378912
Ni 3.634128868854403 5.323986866253074 4.111896217039403 0.25000712942490494 0.39688191173399395 -2.252840442017701
Ni 5.071021892978653 6.793457657986687 6.71950983807954 -0.9631079905241865 -0.5883702189873996 -0.7117147793850324
Ni 0.9363091727728386 2.4381721038103494 2.380850083082306 -1.716690099566966 -2.2269646026922034 -0.20020203297731973
Ni 6.351838637866699 0.12621889444344875 1.1924762343165576 0.07013506625418889 -0.04685938355569995 0.5731384896393097
Ni 8.581810034265864 8.74024379298149 5.3513540473279955 -1.1269057738408592 -0.5379632272897574 0.3492216295435534
Ni 8.427246625719214 7.912035263897046 2.998242401931543 -1.2795030604560222 0.5111445644350164 -0.09544731976673239
Ni 0.39451490946634615 4.907910300965271 7.4433479242739375 -0.16935727968232123 0.6184418415617995 -0.3439166723908722
Ni 2.361043542889034 0.7352876400755693 8.042252592040242 0.21876771179464902 -0.4377629662190719 0.23995668716743837
Ni 9.197799003125775 1.8272136620285804 4.905449797776313 0.23157874751638827 -0.46157703791953414 -0.21364890251084495
Ni 8.196037289845462 1.3722201224997335 0.45132738049588444 0.8132175613172252 -0.38024687428047416 -0.6932743132916577
P 7.481553942105045 1.481870762538773 11.907865526660489 -0.2801180898776724 -1.113484872449263 0.8199569369235878
P 5.260910368055571 0.5087227244045874 3.1560375992763645 0.5594080274270946 -0.06455782927672753 0.04105049018340672
P 0.5777142685557803 1.820104097929215 8.649673886461349 -0.5159787525988662 0.7736508547681966 1.047418319837493
P 3.20908645641257 8.3610422905746 6.71368203742942 0.22093103799455502 1.1308812135488395 -0.33356104018816096
P 8.529602073353422 7.1710441941360195 12.1726643044084 0.2787705747108425 -0.8821730054410162 -0.9565915295619075
P 7.92316368080976 3.019476423793851 3.5763761904576774 1.1930006085874034 0.31166269745317293 -0.39287433323649756
P 4.400114789946489 1.6632481798100538 9.58128480682283 0.629372115321058 -0.24127694864075866 -0.7579766385660494
P 6.865629943152048 0.7208049196830759 6.380730755471027 -0.0011289713981206362 0.697389878121928 0.21208027247214442
Ni 3.5008570269447565 4.7195532594084515 12.636907702398638 1.1215874469517393 -0.18086528032192076 -0.01857570611965833
Ni 2.739418999336599 8.541064621215975 0.6177348030728225 -1.255695159403147 -0.31736951802996316 -0.051073935857679775
Ni 9.041899070779765 0.34204150007708645 10.622180679461584 -0.7283801558558552 -0.2820903831126948 0.6517430268170905
Ni 7.41353044956686 7.671331040198684 10.365776941828395 -0.8925708037355725 0.44046905229632527 -1.458326884867882
Ni 0.23235280623542623 6.384889757655003 4.185088529743302 3.062292622755223 1.3462748666649331 2.1354310161575807
Ni 0.21969017137803146 6.657373547249224 9.82217465882666 0.15337890197619392 1.0397219796344996 0.01750278477045373
Ni 4.567867089596531 5.059615033607738 8.288916412485605 -1.1638607537986536 0.39347237183181266 0.38282054854492137
Ni 1.419490370486768 0.0635108684322956 5.78425874664786 1.43618505866352 0.8587420281115856 -0.22518904193996053
Ni 1.3433642024149717 8.218247716594524 12.065402700660712 -0.19505648422063826 0.49903672542788896 0.6687938116517901
Ni 3.179460178860122 2.1895786771296626 12.5109811725363 0.7303671043788971 -0.5984384018566791 -0.553490376391079
Ni 0.01963112144460578 4.525079765186511 9.7634632102322 -0.11926833344573008 -2.5813878310413543 0.9448534151893728
Ni 4.972443981360688 0.11049339254585736 8.105120258394097 -2.5804586343588656 -0.7526351717484779 -1.8148365634324164
Ni 6.57284769835507 4.72038858678305 7.0890289680733 0.5448841227793068 -0.6442855420977807 -1.4419499861717553
Ni 4.293471328456006 3.6497680535899524 10.284258271482798 0.2356187219137168 0.5705627584923335 1.1043921661193754
Ni 9.020310498854016 9.077177730233666 8.438804772159083 -0.09569234589800295 -1.0881993584095968 -1.8421239383934596
Ni 6.127608926278485 3.739073831349868 2.8285614241877037 -0.6320082673923245 1.5093074896808072 0.015951381122933816
Ni 8.697150181867451 4.123222328097439 5.3006301847177575 -1.422254821735673 0.5260358797245521 0.30672489383192336
Ni 7.468717744782039 6.409123532933649 5.424845221603695 0.22198724717321122 0.2570236699520541 0.47459273345291175
Ni 7.4649216459352505 5.544884549758165 13.355367208442146 1.053766630653024 0.8728203605815227 2.024124103650772
Ni 5.3940151444902975 7.021715503803524 2.8430562104200527 0.00824244251445032 -0.02227089558305842 0.5884756342170123
Ni 0.7146699041874094 6.562396824757308 1.4860808125067524 -0.3045821364573077 -1.4886900705407717 0.9928484550114127
Ni 9.02328055174148 3.557093122085821 12.536411322243678 0.12626019138253095 0.4347450053283545 0.0952593721256424
Ni 1.6406108079584187 4.578791315373233 5.133434769984113 0.541093802498939 -0.5678193914192414 1.0895597290922332
Ni 3.1596814829126707 0.5022108834488239 3.6548254967723866 0.3141111589936655 -1.1699108166474754 0.2901093967624294
P 5.851876641338602 4.154556386060178 12.263448611621355 -1.0730154515803068 0.6156372822334688 1.2032140587852955
P 7.149140054090977 7.038737619414798 1.5368724294484861 -1.2589689450584125 -0.4940513563981555 -0.7719271872088707
P 4.391278882606285 0.5968209900374433 13.773926552315563 1.3589177522399243 -0.010520954135981881 -1.2389241105923954
P -0.10069314615875544 4.202541303023259 1.1955882928577026 0.4721686973924513 -0.12964376314278317 -1.221746313261528
P 2.044463749331255 7.539507099071676 2.6863608607851197 1.5794011611740992 0.15053371921791495 1.431925769166534
P 1.4318253713850144 8.28809036652628 9.909086759587584 0.15541624412119684 1.9005219187163784 -0.7857396676119307
P -0.5681089318894182 6.8460647197558835 7.536197346385208 0.3788867607081539 1.2301268240157395 -0.7507029877227717
P 0.9550390687944048 0.5944180316231801 0.6606706301272153 0.5179392187593467 0.8732955004457283 0.15102402859077216
Ni 2.2286998425067197 4.907928863795818 9.181294790486751 0.007505050127793526 -0.30786183564984404 -2.3851676655299183
Ni 3.058226332559976 1.6521012000667927 1.4487648824003567 -0.8931048218621717 0.4922022190045588 -0.013177675032538595
Ni 4.196629041494153 2.6692607812855496 3.479969201872142 -0.42168200149680923 0.21518462242908099 0.6857625782956448
Ni 3.4322673680748985 6.0302654428918725 10.619083471184876 0.5635647299079456 1.3771029077893833 0.4681500631513615
Ni 3.42760809760769 2.853756754088667 7.673901064087867 -0.722017446862621 0.5053559827776974 1.1433821742293278
Ni 7.1320344057422425 3.3414858452865244 0.7873294636546195 1.4359911974851591 1.2195778448552999 -0.44721485566059105
Ni 4.462393086430487 4.141135459574953 5.856350283500343 0.1908308761750649 -0.5267205644964026 0.3085056398814299
Ni 7.442571997957089 5.781969021499932 8.944521246156642 -0.7827525599591486 0.12322783231411034 -0.9257179799115025
Ni 1.8964994270439377 3.5981076961786362 0.423555529715047 -0.34010038396857556 0.7161866991134569 0.42468222177571374
Ni 7.330907290803737 5.269180109064101 11.17760191667237 0.5465859359617619 -0.801694134058658 -1.402363482128385
Ni 6.809755823206642 8.5554600963049 12.348961074959062 1.7387007995101023 0.26886951354704663 3.0304081153418005
Ni 1.0766998601971245 5.992545771221087 12.928412824454009 0.002284682269118646 -1.0955604267603583 -1.062556461030512
Ni 6.329897372160563 2.495883943979873 4.937916188402398 -0.379108904021289 -0.4384023995752837 1.1910270298008006
Ni 1.3963239579645534 4.521942646824129 2.935768267585277 1.134751495137523 1.4814215619038165 -1.3082022281629275
Ni 8.129712296302294 2.7046600991380036 7.612567615678693 -0.6816732387176195 -0.1734687307475335 -0.15147448586462944
Ni 6.112266746831683 8.494592574942446 4.75988100877104 -0.04206196216705659 0.31763357032462713 0.5068353955367013
Ni 0.9341187587683344 0.11680568307324442 3.2239729183694528 -0.4736841055957132 -0.008819140953526745 -0.2838880984430659
Ni 4.9530086977783485 7.664880456583724 0.4751100789922477 0.08296255703616036 0.6495398485181846 -1.0375344850648778
Ni 5.336591028194248 5.4803787136085695 0.8170151422648162 0.6736830214232914 -2.066064966858932 0.24818087484944357
Ni 5.37997236318176 6.701580928196062 11.689104424951317 0.38742076632109407 -0.4082821831511355 0.3445370795836905
Ni 8.740447984117504 8.116783284826555 0.5104639179098629 -0.5279909465683938 1.589839325788288 -0.656706798580269
Ni 3.0855322562940923 7.659924180827769 8.78718826329243 1.172071314633904 -0.8012843002147492 -0.2712837794154941
Ni 8.328854342406714 5.331597626777199 2.832053092613528 -3.0441722590054283 -1.8623677762441602 -1.479045348362156
Ni 5.632631049752162 2.4581364280632676 7.345731567278289 1.3551719120442467 -0.5349082425135175 0.5876652225005751
P 1.7687500272219179 4.696609600852796 11.263236894691685 -0.6658375572369436 -0.7591308067751507 0.732342482937713
P 5.818751270228111 5.38838132541939 4.5543236484296985 -0.5348388227281627 -0.15501232381455884 -0.2571889918853248
P 2.113536041795326 2.377406678015903 4.296588027704788 -0.5889934543936952 0.12253980510815024 0.7196605165946702
P 3.5538446267401578 7.867038962651976 11.904972509519794 0.5366995300859854 0.6069577521815998 0.5467468870196585
P 2.6472452642572266 4.953444924296195 6.984049664341323 0.37122718728036713 -0.1530400305795364 0.287759151362698
P 3.8573190619320052 3.936424564306538 1.6601500433918186 -1.19341327064479 1.306349491224905 0.4576237096987409
P 5.466261680977845 7.0669159961846075 8.954043978227071 -0.3892709321559554 0.3193739500545016 0.9582848581039303
P 6.1797797615298355 3.947534418388706 9.269702127248209 2.1630495492057973 -0.8151471742397703 -0.4071249296182408
