# total energy = -340857.3987236012 ev
CRYSTAL
PRIMVEC
9.37182381241756 0.00000000000000 0.00000000000000
0.00000000000000 9.37182381241756 0.00000000000000
0.00000000000000 0.00000000000000 13.71661146794212
PRIMCOORD
 96 1
Ni 2.852689389207588 1.4053236942424399 6.183448621408127 0.7156858482176384 0.3037935791177413 1.1986269536352454
Ni 7.785436285415558 1.8928178430594547 0.6175778720964198 2.048283731616111 0.890760489999711 0.05921867645200123
Ni 9.043060039535419 4.904228436957143 7.14651877095498 -0.20026065412939703 0.6019728973724987 0.9892666511974253
Ni 2.066121605289576 0.5762575017918229 12.234064763671494 -0.3897224178710772 -0.9581503894085951 0.12139129332600385
Ni 7.240502229681582 5.918531534642836 3.289915887717784 0.9175477853958842 -3.370970269438143 1.6345569804106364
Ni 3.8921933205855157 5.3036087001756504 8.01626148942806 -1.494745275595916 -0.33224180715610524 1.7468853922034238
Ni 3.7711749622858424 0.12146914301540285 10.232372571348588 1.4338006175917435 0.13509115941059957 -0.03147184535603612
Ni 6.3610596737702485 6.991539735433087 12.74215536924025 0.6128545772820091 -0.3298247130741803 -1.0315780103711265
Ni 0.9707990924795376 9.168989233407697 0.8684962659327061 -4.946885271835855 2.0690914123900814 2.2958105178213235
Ni 9.149983175122888 4.830715852545881 1.2192217696879912 0.5366082559237597 -2.0669913353279434 1.0353174228089008
Ni 2.7639288477798636 8.629247167954679 0.26453752790901036 5.505528396072466 -1.96903436176548 -0.8914690860309615
Ni 5.439603232607042 3.7245595116405568 3.8081430577051014 0.4834666389037737 0.17192401196823295 -0.09628652783857611
Ni 2.4968225030188482 5.205157693133285 12.165715116887995 2.2887523254229616 1.709213845794579 0.4598299733214404
Ni 2.2825451279577678 3.4199658724321864 8.003656386670137 -1.1481744534116485 0.033234850793729856 0.3528317154923149
Ni 3.0034820311220733 8.177066050507072 8.228485497935788 0.6595964614232382 0.0973944161907742 -0.600913602870049
Ni 4.484023981673131 8.132671722057793 12.132356110741654 0.2503370019604979 1.1283221945724116 -1.6525277059564443
Ni 7.915057977790898 0.4586476757397752 7.2477063504920025 1.3744410446865039 0.44371918380250686 -0.1805528912878245
Ni 2.683443626601393 2.3573416522038526 10.970257480332544 0.5460146368393242 1.3857029907535683 -1.3503449229692486
Ni 5.6928861375405955 5.610395346109191 9.729809467346097 -0.9096879230318333 -0.1223523716876925 0.661015710368268
Ni 5.474785058445885 1.6563761051563757 2.1000269887524863 0.1331954850497835 0.4756553703894712 0.4001215017172141
Ni 0.862242448036526 3.8522131210574115 12.185631179245513 -2.2004773550349523 -1.0482549568061754 -0.8478289807435075
Ni 0.7414518250506205 5.719755155835737 10.987663768326811 -1.1084190278905814 2.9452156405338563 -2.05214835677784
Ni 4.828297922054026 4.466920403581525 11.924453450101348 -1.204692700213351 1.1148401009255766 -0.9293445209204961
Ni 8.468314212892185 9.464698383832044 9.59282152161185 0.36049154603041783 -0.7071996651234982 -1.9643462122611912
P 1.421049614263105 2.981308296456463 5.5910415931683835 0.30632534440065956 1.0350862806347012 0.48146760619587403
P 5.438553588362516 5.700786584845376 2.309246390610258 -2.3531088373221603 -0.25370746109462755 1.1052804822615996
P 4.210094949322697 0.7996845882451415 12.231801468269236 0.24597923921243445 2.5101248218303094 1.247209233419323
P 6.587023712875292 4.707232704636294 13.028723242913609 0.47946883059829043 0.6965984925688841 1.322701193110051
P 4.8435271354232645 7.59997726796088 9.940442140204535 1.6001054836009865 1.0398489921306673 -0.7548275514141065
P 0.41721203200475265 7.3170981440611405 5.475986526232923 0.6379107489196886 -2.057298533520212 0.12079274051005648
P 3.3898167158729007 0.3537385450464913 2.219018221604919 0.7846893719705453 1.112949054550451 -0.031733326547538895
P 0.8682788396249115 2.1177134942727482 13.155738631142496 -0.2973509088161911 -2.1158448664955367 0.7742231823318989
Ni 0.5167361128506739 6.054329258778379 3.3771253923377493 -0.40837397153399346 0.8005209396861633 0.9259360094595794
Ni 6.686777403399703 9.100031355271787 10.747102176763969 -3.6211668891660342 -1.6017039384363576 0.2486354458883589
Ni 6.196884067738058 0.37491043176799616 0.4469600745134511 -1.9745324087655733 -2.2707134656433796 -2.919223330235153
Ni 2.20492768480452 1.0705902702983963 8.975587595441986 -1.0031274683399176 -0.11221296926084545 -1.341611913971625
Ni 9.260036499796708 0.9645949452485004 3.480685917613289 0.08177830692007207 -1.0464099331776364 -1.9457134276513521
Ni 8.95391525333961 7.02600930267743 0.9165043695667111 3.1567714079610987 2.2864722711395333 0.5950885115478396
Ni 3.384643469239166 2.785924517796849 2.090315905125899 -0.011620614958063857 0.18930749755200302 0.24419129407407622
Ni 8.065775645116489 4.192757075640795 5.102881107692566 0.16893381899165746 0.34830657392845177 -0.958495945673472
Ni 8.551798417626445 7.391416705303022 7.901344188299695 -0.6217775908032517 -0.5085233247620855 -0.8782926965500035
Ni 6.07624995420647 7.2527980622603145 4.722834916585283 -1.0332589976179753 1.181551229099881 -1.1337927307686797
Ni 2.1272258952387646 6.656787567841819 1.693494149753424 0.6964043742802071 -0.3866093261633923 -0.9831975621852099
Ni 4.821493978111832 3.1951264521605633 8.43856898193057 0.45149599953444824 -1.0359067196534675 -0.027078087163714654
Ni 1.4633259105761098 6.205496773637337 8.453286493730602 -0.5824201720515518 -0.30229925396040197 -0.22287427776385485
Ni 1.569021337270427 3.8833744345667753 3.499559833185171 -0.8554589864849396 0.15164546422485498 -0.42513730703526137
Ni 6.59215947221458 1.560127476662792 9.119735614415676 0.4500644092942443 -1.3392783807424418 -1.1154520234779628
Ni 7.04191328734672 6.199555037467433 1.0462703880256747 -2.2160297009472543 -0.6399928282596978 -1.216555255978892
Ni 0.15928257692444972 1.3986978149488698 11.03719479329774 -0.029714239234981083 1.6571644333975073 1.2215174850801738
Ni 5.826734522364876 1.1475798012696514 6.705008411871813 0.6471806042573887 1.3421752426742628 -1.650671626584312
Ni 8.27725084491763 8.706330417162054 5.076613760473305 -0.6982067175962684 0.8241488635177483 1.5711643750866038
Ni 2.0272191654768337 1.6169769586922056 3.981273441198404 1.0590353352511308 -0.7002414886381101 -0.8544230890212575
Ni 3.035899168995423 6.716767238957587 10.24482678774636 -0.9677699147762301 -1.2078690410588038 0.7389155081695403
Ni 5.033053524325479 6.902423064708113 7.090308447295894 2.2292765386548314 2.112275918197356 1.9198334745607966
Ni 9.424305824065017 1.9606417305383315 8.59160523841773 0.9715113840965333 0.6792815985569914 0.36767392271147004
Ni 6.326955607646768 8.673669611874796 8.242243334997967 -1.506183599339845 -1.3162636650148234 0.9364657053463097
P 6.82355916901449 3.5961374126875305 9.88257112940143 -0.760151020509549 -0.15796343602308277 -0.7444436370766212
P 0.4253598954528852 4.158240649278393 9.60893918385949 2.7293077667855057 -2.475891354568736 -1.437476523781434
P 6.100298053594448 3.7846797601105013 5.920555848542993 -0.006480465518021097 -1.6308620480575526 -0.3225685457323993
P 6.264876648041948 0.1065313933604931 4.414252629247714 -0.2078256109608485 -0.3716262224909987 0.6298282290218702
P 2.0027493340263227 4.575080619885756 1.190229096162407 0.5428714632246521 -1.706471250052435 0.08169988827365285
P 3.6173458495211217 4.262886431728184 10.001096582620354 -0.549907287025511 0.1766206461129539 0.2292081904016827
P 8.125043057637757 2.883728869009998 2.830148279056394 1.1569961654683363 -0.27082689438373353 0.6783171777611932
P 4.184041279681785 1.0437774829449258 7.882373742944611 -1.5715366708243579 -0.6456032324679397 1.5753151640301837
Ni 7.67280570924848 3.032778351732681 7.7555232988112905 -0.3323667627697437 -0.6569209714736041 -1.6742738393842842
Ni 3.8882946419629905 3.792449001884716 6.085799842466933 0.11790667721151306 -0.09677812276301397 -0.955463329494735
Ni 0.7291231910892465 8.442354261487393 10.862376544371944 1.8943726112855308 -1.4855962621067962 -1.0755788414321088
Ni 3.5219219415053793 5.23474454027586 3.7073669012246384 0.7099214349300353 -1.294104612419281 -0.6795024563185459
Ni 6.570932291733765 4.930675723189752 7.661948451594164 -1.0657047768515067 1.3632652305753423 -0.4760965716919478
Ni 8.097939743752319 5.180659746211939 9.463968318772679 -0.39435554576771437 2.915468748288727 0.5610239657639629
Ni 2.9985243364314105 3.116309415585 13.128854617929576 -0.037627837655102934 -0.28575934732384983 1.891829276038387
Ni 1.4526232880113898 5.1796007301438 5.759700679616477 0.9164427252571636 0.48554049071366695 -0.6794430638355202
Ni 6.715314606297753 3.83487524737551 1.6031010366525171 -1.0054262916764232 0.6581193626570795 -0.6287506796869752
Ni 4.340316438409196 8.717407912671247 5.84431887500777 0.22654607018848724 1.4196299825183163 0.0071921468730650326
Ni 1.0682285707482129 2.2599965203476837 1.5482899262586782 -0.8180005845281655 0.6057629605425503 0.5254314133713338
Ni 5.411469018124302 2.247494507649491 10.864886318735195 -1.2811375107356517 -0.3660032198772664 0.46416125370694256
Ni 8.56426294303019 5.634040457081861 12.741140400743085 -0.5704874251697079 -0.028738505585273088 -0.3101555167800271
Ni 7.7001901778422726 3.1958199671078393 11.887253870638876 0.5931470715507526 -0.0741740122102529 0.010710444438968651
Ni 4.627075497284237 1.417816335117021 4.261572502057804 -1.032040808940158 0.21592689991174427 0.4144322619129314
Ni 1.9189746027600965 8.823225173072519 5.25656214564422 -0.8597902668704419 0.5082196774787376 0.001637792713739115
Ni 7.768482656501741 1.8299610220948523 4.8819066274784655 -2.197163460170371 0.12197107708887382 0.8116671861109699
Ni 8.874376586345933 8.404295285799714 12.746545131420033 -2.707616140744685 1.3303407119331798 -0.08552440422606561
Ni 3.2954049648072377 7.347594058094064 4.258239881581435 0.7635178800992528 0.16990415332472675 -0.45049584040470797
Ni 3.925341460700589 6.5544941131186 13.350322993248021 0.05802234215105491 -2.003869467166794 2.209691931654685
Ni 0.35301035435185146 1.2094150934605632 6.111353993909335 0.7877487276221594 0.3072648254957934 -0.24893677917886162
Ni 4.983120448121602 7.978092863404125 1.8418529290759145 -0.4228616236272073 -0.41481484206333075 0.04387998921240185
Ni 8.079514738531444 7.82490103464501 2.993348278250592 0.7752876190406712 1.2463530560666147 0.2794827702865187
Ni 5.502966132046684 2.6520105302072854 13.094534999863022 0.2127580152654594 -1.3479787367299172 2.607171881983994
P 1.694660004610737 8.19575346678908 3.0326874450436465 -1.2027833990057801 1.5743687409565146 0.5229474706072155
P 3.61626808980576 6.0624077707317845 6.046144845218161 -2.8170793151745355 -1.1004473225390143 -2.949652850369604
P 6.979018979087671 6.620012531988964 6.440484004515859 2.224188325498647 0.44114011022142086 0.38895751468059464
P 7.315551793165187 1.0404317419154994 12.123577523564444 0.9079048629894815 1.7706197597058861 1.7206606541789398
P 0.84314360869796 8.536512973315535 8.58185291876725 1.43976403426403 0.2539149491197433 0.27016226421654116
P 8.019488208297616 7.431237583829724 10.579224700405101 0.727741750940908 -1.6275198710581968 0.35544524185576204
P 7.864431386639746 9.220440545036691 1.514643205127455 1.5279760126245878 -0.22141569094045738 -0.5067078688199016
P 1.2154036887485282 7.238871532373123 12.887661365455294 1.477551280315133 -0.9745612266664506 0.2561404960161524
