# total energy = -381171.2387708559 ev
CRYSTAL
PRIMVEC
9.23757804987821 0.00000000000000 0.00000000000000

0.00000000000000 9.23757804987821 0.00000000000000

0.00000000000000 0.00000000000000 13.52012922469416

PRIMCOORD
 96 1
Ni 6.393087718290399 6.484946196243161 1.5684705784338826 0.21960460587364758 -1.2083984311997125 -0.10263663842632001
Ni 0.8818524734403941 2.7662851777689133 5.924736959310934 1.8919858562209093 -0.2438701632892316 -0.6750462203194052
Ni 4.396043392749999 4.954556610318578 2.665953069302669 1.6397966315430212 -1.383528608810069 1.699720304481847
Ni 0.3383660243840608 1.4516761817979262 10.705009104858094 -1.0617198240618295 0.7489703213023811 0.24699482496114236
Ni 4.9824079086922275 2.1488362110713513 3.707070629064822 -1.5292034572737858 -2.2862197888090945 1.1321153430662567
Ni 2.2032640220224446 5.166226477958319 1.9148428118728167 0.3702735651178462 0.6026069314120719 0.03756973072365788
Ni 5.011192202467449 7.365453678292775 13.332659479773865 0.9870835275031774 1.240909259343224 0.16870010571429656
Ni 8.369957172969091 2.5602409952733023 4.540437825631658 -0.2554167304762504 -0.8601070267799121 -0.9544816823077561
Ni 0.9736684585332824 5.091217342703247 5.821037753578622 0.6874211969449903 -0.8654425800602128 0.7941505173834452
Ni 0.45266442738135704 8.935121446865702 2.996655598784315 -0.12437608698594065 0.37729627629258244 0.7838591627597662
Ni 0.7575137466612338 4.019076300202101 3.4727262018934186 1.2295758366082759 -0.8001257611302736 0.24799986918688904
Ni 0.7751704536965224 7.040069222600088 4.759464500576466 0.8637083709779253 2.64176247547467 -1.3152138835940703
Ni 7.457127404680869 2.9126268921421694 11.088912694901442 0.3220823501246001 -0.2820944968777529 0.24276638870209158
Ni 2.2702272266362393 0.943710992322421 1.341405362910385 -0.4094317233745464 -0.23295043105293428 3.051242278478332
Ni 0.5068188060167423 3.710199396812469 11.770259837754962 -0.5148253557207133 0.6909526071370165 -0.5118791286081957
Ni 4.273275978028337 5.302037353145518 0.48660144229516 0.26958942243220674 -0.6605107457073914 -1.02316664637898
Ni 6.7991716574299215 6.723829969358449 9.105604648194083 0.43610100513561667 -0.5675041741716678 -0.3802036797473646
Ni 7.336318356544685 0.6316674471143854 3.6215426634753975 1.2809806734428133 1.966904459906671 -0.6952838875225187
Ni 8.134574442004254 3.891034228309177 2.230875143362027 -0.4249156779427586 0.548013669547224 -0.8159377884618658
Ni 3.4100704800098507 4.169186946494577 7.0987574046324164 0.41455516064404085 1.0312447954014239 -1.5106766021141917
Ni 3.5261129377776097 8.834856772720563 7.440411083109739 1.9268312460348687 0.21026584497122497 3.11654058546551
Ni 6.16640678602141 4.418093491993085 12.612212439531904 0.025662180652794516 -0.2238811217618144 1.5644987901409702
Ni 1.99895650423471 7.430689455776926 9.06305636285112 1.0243789215195263 1.6623477773706594 0.2520789243522691
Ni 7.396279476857574 3.5527725885591535 8.86827186446418 -0.27190187261546717 1.0412196472259485 0.03034647350234129
P 3.2410689862301063 1.9413232536366327 13.204475149176147 1.079429839747083 0.3535449395092556 -0.4309575132614643
Ni 7.9658316004150445 2.9667129126986276 13.409656541864761 1.141867537357014 1.412853068805799 -0.3784440167437805
P 2.6641360376641625 2.3597116469830213 7.772181476635164 -0.8117168084019828 -0.464917929367309 -0.13186159672970837
Ni 4.295603204618424 8.978926042848407 11.675226404163386 0.3737694940862466 0.6020849974703308 -0.372538707002939
P 3.20948570625017 7.08513012922253 12.057211349207659 -0.6467517442500861 -0.7175892358879383 -1.1069211031888162
P 5.131918112399534 0.7059468136890191 9.752934409203169 1.3653367683923905 -0.3960712429072405 0.40250902811278416
P 8.713687459033276 5.458771343031329 4.356320882588628 -2.0515202362755383 -0.32391914622302276 -0.7580072346936687
Ni 7.702089504273723 7.418865355638196 12.924256908497762 0.12316612583823949 -1.147684144038791 1.7811792803892872
Ni 5.917675754509336 5.105627964747326 7.400769863636822 1.156455719583834 -0.8394523266440381 -0.25711700099680884
Ni 0.18180939600033016 9.028097671784705 9.150301594234131 -0.34337262696194415 -1.0966549453761176 -0.21209467064984763
Ni 7.301501924183063 8.562985607733864 7.666413977136397 1.0125330779245336 -1.912575507446803 -0.19071029143680057
Ni 5.750761953410336 2.545784185338058 6.05577385406712 -1.1387958404102259 1.7542534025327208 -1.3421292199276758
Ni 7.797606063206905 3.5484586395241635 6.554234499298298 0.37055047292831667 0.615741669021817 -0.4038390597781174
Ni 3.0878360384947467 7.785754250333474 5.729898882970241 -1.2420276892183835 -1.7917776247304238 -0.5229150747073833
Ni 1.0279577058108753 1.510621168505144 13.142255440985195 -1.0596709119526007 -0.4406585425993121 -2.4331025415379837
Ni 4.820232985226953 2.8103022380509843 8.679193418152002 0.9391671634378729 -0.13059147176803315 0.36335395517987745
Ni 1.3787270264888996 0.31896988136742627 5.089558273652531 -0.7660193063648678 0.22145580014977342 -0.17157537037956258
Ni 1.5753304040299927 0.5457644358486856 7.367700257319134 -1.4771329618307916 -0.36767315138052165 0.3457303285608433
Ni 6.44827301065663 3.6469681738049613 3.7517814314722195 0.5088457410985108 2.1079623784236663 0.8635880433499771
Ni 0.9507685020927257 7.2093570813050665 12.11764635728392 -1.685083785515595 -0.03846293196188859 0.4541820310070436
Ni 3.04694127965556 1.0704690408409043 9.512898710082178 0.10588754126344989 -0.1504902675744892 -1.1281897827596052
Ni 3.9885738168754696 7.211943603210414 2.039647112594939 -0.6686431450065388 1.090067007745955 -0.12489853514831392
Ni 5.543646211839652 0.7985664680882119 7.414155114496994 -2.8759444649418597 -1.3618511238366353 1.8186641647086226
Ni 9.109185133517341 5.989793527777358 1.425332456191964 -0.24806311832465663 0.6872008534040681 0.3311807128814426
Ni 7.581954799348575 6.642566993639377 5.937270505457989 0.03495954679432044 -0.15738416648084508 -0.7702174036066155
Ni 2.030197993820012 8.989798672429098 11.02017679902466 -0.9242156843343632 -0.4631580092534088 0.6739005367507362
Ni 7.739797298622393 7.448915197631391 3.5548473486303713 1.055654077483724 -1.0522180552189813 0.22428684184066533
Ni 7.53945270189678 5.680149905394356 11.105772198935188 -0.25669739696088695 -0.5454783047198799 0.4003482730160395
Ni 4.92614181967269 5.023108678388513 5.300404149313856 0.3415630845570311 -0.12600976593462168 -0.5556151360435656
Ni 2.5991958626834792 8.19059111641149 0.20902514899152355 0.043538032491950825 -0.17422026420157738 0.5167115169998328
Ni 5.882776183943615 9.014065790448196 5.102212832074443 -1.200527513092068 0.4221463427277375 0.24412650227441182
Ni 5.484433335363668 1.857233578978146 11.980592104066508 -1.7073109723449114 0.9793542771797197 -0.6166197007513962
P 8.667120827158792 8.862865109924181 11.610627095819515 1.336555325384324 -0.027406417037410865 -0.8738593433689982
Ni 4.408236996018065 5.490594800045334 8.99561834671613 0.3227837470669989 -2.7436228978565973 1.551315715791793
P 7.369823052797165 1.335966276846569 6.768041942541244 2.6578506392857837 0.9547789018332007 -0.6629916031477163
Ni 2.125289624154458 5.246113054520616 12.923148399109758 -0.904824681402261 0.10877771832705137 1.622766672643928
P 5.714236569075539 4.163062432125844 10.462389655105227 0.10774490618716283 -0.5054786243984908 -0.4008794629291612
P 8.73439810943252 5.322212224007226 12.978390964461036 0.19105970435641934 -0.35785256574567403 -0.7298521124156914
P 5.987299381654345 3.9717706620689457 1.5052772294971317 -0.9579688695254083 1.9188011766415405 -0.42537050609199006
Ni 4.740762099685158 7.615958324825659 9.267629922891977 -0.7035191309481175 3.4423335516724785 0.35505237729271755
Ni 5.00073526390726 6.114168281111629 11.30029989264724 0.4066911845149318 0.5215490475977921 -0.5917476201000647
Ni 0.4600655750619436 7.316845541628712 7.1512693418579065 -0.07775761579645317 1.313411540278009 -0.3172656454622471
Ni 3.8678940948345524 2.597634711962037 1.811129749773154 -0.18730409396872905 1.3783753467439035 -1.0372964009121426
Ni 3.326562772780067 9.044300384006059 3.92182492407669 1.3386433182616042 0.7969378503205953 -2.1936078816086284
Ni 6.59839289452734 8.168106850991435 11.079935616374241 -0.4885872479597908 0.6256877244909353 -1.243572150887368
Ni 0.26055975043992136 8.709234946324786 0.7224238819839046 -0.12808721728894068 -0.718726177705859 -1.0791213073677284
Ni 3.786104577156178 4.103895743541025 11.829951220783435 1.2946599707021187 -0.4615970925241921 -0.19057428007956856
Ni 7.297086361787507 0.837844650736557 12.696969991096664 0.8413683127198284 -0.8710627544604675 1.0706592926433045
Ni 8.2912068185295 9.039201240821232 5.486914548877154 1.0938817535063547 -0.23936661899192324 0.5672306087953071
Ni 0.9946377611230622 3.4121027472211947 0.872666625645118 0.3602894573219408 1.3481679699225877 -0.0132334679711385
Ni 2.9500852718785375 3.795563857267162 4.528162007917315 0.37043683016858786 -0.4517124864206285 -0.053341134625301684
Ni 9.224701049325798 6.574883257923379 9.854781480499687 -0.23615531114347718 0.2939179718752422 -0.4000988760093948
Ni 2.0836928093695333 5.6083184970515685 10.652361375232575 0.38261331763012174 0.35195959730000675 -0.33715055731163224
Ni 6.683147674818629 2.0562017765469855 1.4512373968318406 -1.3589743165094723 -2.1436845144156242 1.064208137701322
Ni 8.969189635390421 1.7016727615279739 1.722667005578984 0.3257945088688647 -1.29570255303402 0.7510865963144355
Ni 0.14348176015220018 2.278088405712848 7.973793469094398 -0.4810780840669392 0.04962229101281777 1.7464135947733277
Ni 4.782645279395317 0.538349431800749 0.6884776294918683 -0.04280115432592629 -0.4375143405433755 -0.6426001839755577
Ni 7.489680630375311 1.173966867367729 9.103184402696936 -1.2083426382611124 0.16862528661230314 0.9404522007978836
Ni 5.546103407649732 6.928571653323153 3.8098239067860358 -0.7624881532831578 0.039773423243196014 0.8810640886475535
Ni 5.379984038278804 7.297317301243341 6.493177802206929 -0.7727316853880369 -0.6181122261365226 0.9946788233519323
Ni 3.185948356911509 6.211079714358052 4.111336612808015 -1.536578152471302 0.2724155790270921 -0.1398217321170495
Ni 2.7705067510215695 3.7784281496442365 9.460399705466216 -0.5759885574935951 -0.732574653553177 -0.4295318365585312
Ni 7.254103910267575 8.724052021811133 1.6535117236504075 -0.18734214629551604 0.05477503885835083 -1.8882101912285612
Ni 2.3950915716168786 2.4621102017000736 11.245422211636182 -0.13785072443360774 -1.601716536841848 1.5239895171730142
P 5.486659591717912 0.21736298710497517 2.72487403830648 -1.600638987506953 -0.6347151248005263 0.3402309960091689
Ni 3.335440085462348 1.4291180157520047 5.941190933660237 1.2141651584801607 1.0133116079617708 -1.0525808378750388
P 3.318267427526489 6.5587267335931925 7.646809064851688 -0.16625550082854593 0.6961272093594205 -1.8886547349651475
Ni 1.3881585938651837 5.320577172659918 8.144539941402428 1.48549573197319 0.5914267464255363 -0.49596862802552644
P 0.38301770629076487 4.034900271715886 9.399275574053743 -1.2364964749875091 -0.7824018614879493 1.6201017242172548
P 2.235401556696385 1.8914588063328304 3.660440257900527 0.21201573778279612 -0.4382129092722969 -0.051310991569150345
P 1.526703792209464 7.199786950255282 2.3522190472779245 1.0404326325482791 0.2702797636310119 -0.1415376863668917
Ni 8.388413854279388 5.538898096627695 7.812025922829215 -0.7777815891071186 -0.8452815317313054 0.35486468676194366
