# total energy = -381174.3496061919 ev
CRYSTAL
PRIMVEC
9.23104970715592 0.00000000000000 0.00000000000000
0.00000000000000 9.23104970715592 0.00000000000000
0.00000000000000 0.00000000000000 13.51057433522251
PRIMCOORD
 96 1
Ni 3.161237612510771 6.073883054603313 2.2099788563881813 0.582966531473325 0.4316594244244953 1.6069078512348005
Ni 6.245063641615404 2.8110946635269682 10.958643508713344 -0.34396989422631086 0.09223524058733792 0.47933693300611635
Ni 0.24186919686770444 1.48743597431009 6.527891006331074 0.13639496582368768 -0.5257713132092557 0.06837206081649515
Ni 8.682983886972032 7.987202741294219 6.219430862602507 1.145120497076673 0.5544666242614192 0.01828054347674271
Ni 6.407410113993621 5.02175569449346 7.5463721131190775 1.4581744184504177 0.7341368558339744 0.4642538134207488
Ni 4.949504267911081 1.836932749809701 13.356756698128844 0.34049916206889097 0.1868695775344717 -0.399827367515563
Ni 2.8048637049294074 -0.04454443068522682 6.208487453095236 -1.7860404651363304 -0.5607056631925956 1.5801012725649175
Ni 7.885411955434516 3.39921407568871 6.209906265445524 -0.4892557347817251 0.481301512931655 -1.1646246285478716
Ni 4.478259176940025 4.808776914103956 0.39792932434971556 0.7548959427581967 -0.3429360536451578 0.2149460240557137
Ni 4.162935747704368 6.78259690101473 4.62718277984163 -1.9362669375264714 -1.053746833158682 -0.37874355026207035
Ni 2.6328338613380935 4.628660670910473 4.220716580660768 0.052974752424818444 -0.5190802743423254 -0.24862516147571376
Ni 3.8207499636258944 4.5829115882297184 9.788262708576543 -1.0546348921905901 -1.5650958002950208 1.1188749331165828
Ni 1.4325019971040418 8.33519485568064 8.001380710642357 -1.5231845047732155 1.5304874661925318 -0.9912410013149767
Ni 5.071806446368975 7.737484382803543 6.441436686566165 0.44094342082958254 0.23137640169759505 1.7013907502057344
Ni 4.458080102133703 4.825743583588869 6.325232539589084 -0.9547156526954332 0.3754615370766889 -0.8701579832580111
Ni 1.6665460330781878 0.2311741025993584 13.682563830593018 -0.8864425793506476 0.49147716791307616 -0.022345971795367965
Ni 6.8782859629737105 7.979199421140019 10.833413241267083 0.4081952798642841 -0.34449825592595507 -1.6760391588148231
Ni 7.221034841088408 1.0657154653774223 12.770181640594318 -0.33284421662679453 0.271331601934294 -0.3423421288149007
Ni 0.7806606483512482 4.79856737305373 9.766875289354783 -0.6412727234133859 2.1273873199174975 0.016046511939901396
Ni 5.377769591133631 0.596393202074325 10.854124947645374 -0.1857100100087318 0.6664466515758521 -0.845758214257408
Ni 1.2566320368066757 3.9147035882273324 12.03009884084034 0.8540186544939873 0.7769043287084878 -0.12304656954123971
Ni 7.1358230206231035 3.9300455929519926 3.721906651959082 1.5767346700855298 -0.8653937291001483 0.1077176524936532
Ni 0.012267142044886112 4.590444124845436 4.1035394810374894 0.7543387847031461 1.0591479495695952 1.1693762843002442
Ni 2.5176949775049495 6.524773680822339 6.868033035989547 -0.2671329904719141 0.04207533190349528 -0.6493940669689396
P 8.196110628733317 4.26975745569099 1.7533751334639263 -0.7097412005984293 0.4530402040931165 0.6439638970923038
Ni 1.2116306691576277 0.30683086344342647 10.178826578311453 -0.40888279284961193 0.42234740299495 -0.47303541626812073
P 3.8623727670575985 2.226418432930989 10.006498571812433 0.3631878619156584 0.06353941531454219 -0.20746797051111365
Ni 6.771141168244992 0.3461560585863412 6.048075808749683 0.38777892099146116 0.5486297058646681 -0.6903550827623336
P 5.499877917546268 8.280094719578658 8.897280861269287 -0.6617657011604151 0.6452857012275209 -0.33637125594344647
P 2.91554399172163 4.536073241675612 7.721644824496056 -1.2950793176277247 -0.7590485314739895 0.7502628148615595
P 5.621136987379681 6.7136594213012755 0.8732914635200483 -0.8994353920658896 0.3466368995355127 -0.2758472304164604
Ni 3.635058166368818 2.0613580319191684 3.3969773923284303 -1.4302211277706014 -0.8637271400310028 -1.4833072089623034
Ni 8.207040191665927 6.878415197670549 4.139221180834542 -0.21451767826904347 0.4860421129404338 -1.5550399587209154
Ni 4.983197599586778 3.77333929198579 4.111632342374499 -0.9849045175739877 1.0904542158820445 1.468666062010361
Ni 6.23507564575976 5.748331622217883 5.1680512175243605 1.2337880749174106 0.38259223458419916 -0.4515944727855255
Ni 2.6660102542264372 2.3168919517675675 0.7218385529803223 -0.21185581516616417 1.372597820830178 -0.011884153032095661
Ni 5.896951523581918 5.294191666478353 2.5378398974271072 -0.6839694909509639 1.9828499274923337 -1.1888300221494816
Ni 1.786900460033734 5.144537887539611 0.3504928057702433 1.6595591588819292 -1.4685349357491353 -0.10630843085095239
Ni 1.5162830048543514 6.764697895502627 4.491346959309834 -0.12823428438976622 0.6474413141179429 0.034967002993488164
Ni 4.338879556399927 6.174363031395085 8.43338183970851 1.3126862320762103 1.5316565467999685 -1.649298400385869
Ni 3.5638313863113713 2.6242212918987984 5.6688347446677625 -0.2246164572659422 -0.4725906154212184 0.045338318925483206
Ni 7.435841369333197 1.8979130646178264 1.8192802133265678 1.6989805981023451 -0.2820235344305014 0.33344816875938055
Ni -0.0640284074435541 7.447463260998868 9.78552016368864 -0.03487855704473993 -0.5195304745058665 0.7560732508957495
Ni 8.72991454402388 2.16702585868402 4.076383578811854 -0.6544295725103181 0.33306687416056185 0.4431789950283206
Ni 6.714490215780951 3.5768840906920385 13.637844009962082 -0.34933835762707577 -0.33770642981510224 -1.4278752532462442
Ni 0.5414352241388641 6.9908124597207655 13.560698280789442 -0.600937514129449 2.4779351244716423 -3.7566874228045686
Ni 0.8865814058799117 1.3060827704468705 2.2297849967836267 0.2542998432629879 -1.1020537477941859 -0.002063824507564188
Ni 1.0858576159846476 3.9700437316234436 6.337418448395958 1.1605599715601949 0.8724894596046652 -0.32205535354140663
Ni 7.306117426856874 7.680759581941308 8.097873797036668 0.4331012990773444 -0.3149010018848125 0.061964100407622326
Ni 0.7115533173219492 6.270513645842774 1.9752461841008824 -0.25462097404783246 -1.1762737827510257 4.193822525631655
Ni 9.032222193077967 5.888228181545333 7.840402279840672 0.48041191123785004 -0.05443333924821594 0.8211478719078955
Ni 9.175774248115985 3.25235730483154 8.188772867267835 -1.4880493516329791 -0.7079807662638968 0.8000429716084803
Ni 8.308350962937373 5.188496146564178 13.26710012719728 0.6499854206960354 0.2889644845247088 -0.0864865110290188
Ni 0.9989565134106706 3.6511571171749595 2.2988914047079483 1.651333942758659 0.30306415715088453 -0.12051943224401179
Ni 9.111323058592774 2.767219483950368 0.4123796096661914 0.651600330591639 -0.7583790162107907 -1.513142032935549
Ni 5.520370848044911 4.960110744101594 11.706453620233274 0.9457931533948227 0.15505397568577167 0.08171222956882702
P 1.4860513168439653 2.646440428705211 4.586637239918571 0.9075081417716951 -0.11761717099555229 0.09067509518906965
Ni 2.9175286674230754 1.0039043560896224 11.700832834025785 1.8526932292688738 2.9176369595846396 0.15862858041090744
P 0.9282651342401252 1.817695242080344 12.108582149125258 0.30688995865487795 -1.803742510401784 0.3256435851132972
Ni 7.659694326356666 5.6131613603748045 10.967627166353559 0.5217596209467014 0.12078939807594682 -0.5497918444935692
P 8.473522136546483 5.775489370653472 5.897771240801863 -0.2868188989366157 -1.2980543410956484 -0.5491580675643123
P 6.300200701916484 8.128243950793665 4.513450707994069 0.43707905277816983 -0.16584772386716598 0.7681152696619481
P 5.781969567594935 3.034522992260826 6.411834556150378 -0.5744276407643784 -1.0323884220875639 -0.1900883415820855
Ni 3.507485058489876 -0.007983934949674166 9.311285135695732 0.029760776202200363 1.0056052404564488 -0.323263772027211
Ni 2.808491507490654 8.4369302552417 2.995051023426502 -1.048186051241453 -0.08935123417132353 0.4583029951539527
Ni 8.578174547836177 2.9295844184281328 11.25263305881593 -1.2522606798003013 0.9410774930867082 -0.346443552577784
Ni 7.710898959453951 7.064014684429883 1.6061777368700896 -0.30048174113568893 -0.7648360846900439 0.9871094956451065
Ni 6.947906540370453 7.6651129525741 13.009791076477308 0.906622139622316 -0.5109023665172233 0.18347854957505175
Ni 3.489715287674611 5.885329631916246 12.124835258462626 -1.9870814490751778 0.6426737175259706 -0.716022919842083
Ni 5.07070795144585 7.806744949259094 2.817616400192415 0.3106815644868262 -0.6708838614115994 -1.095659414232068
Ni 2.385524806838474 8.218763624879115 11.797190223988416 -0.4241201786246567 -3.424250468918522 -0.5007074282620925
Ni 8.547730545680986 9.158530647137848 0.8664383321677092 0.7348955883768699 -0.018625071300355022 0.42123128711263574
Ni 2.8692964323530705 7.5045757659516195 0.4726962119955543 0.9520795006241668 -0.5172013121520577 0.34902853969614084
Ni 4.534910129404068 7.249604940139444 10.510037567313423 0.8544035486372318 0.15136521398027478 1.1890938173338295
Ni 8.053906306962325 9.24812721624588 3.471866129831288 -0.8588656981736434 -0.6531028832790945 -0.443967552367887
Ni 5.640937589145263 3.0320583019711242 8.653779614801511 -0.8813086005581918 -0.5502225042730846 -0.1538905515052898
Ni 4.233340964331914 0.07053260511442982 4.677874166571472 2.2001112299447847 0.5720054044761309 -1.3980473712515342
Ni 5.538389857204079 2.9580899001307506 1.9850144809719026 -2.6714466328026636 0.12455683553817903 -0.26382423781365527
Ni 6.1670705020734955 -0.05399241012908335 1.3466033865355393 0.7412549549359942 0.5245204715212902 -0.6967471023316064
Ni 1.0221910656922406 0.36372551562150685 4.579341941282049 0.8570157894490982 -0.7019900958981007 0.1650213713111287
Ni 1.537348260438993 2.750806677451905 9.6319994979995 1.5923518077974963 -1.9001354819112375 2.19090282397264
Ni 3.639489070260417 3.3824320271992807 11.964789163688133 0.12708782949014885 -0.09946235446339645 -0.04114227856626463
Ni 3.8956414704436844 0.27860231323403395 1.3393468583080694 -0.2860629946071977 1.0852060801092276 -0.02212794224729092
Ni 9.046401085531082 8.677712957550984 12.047365519442911 -0.050931753852860674 0.2873331195688729 -0.25722010223357633
Ni 6.237078783560753 1.6905652245905618 3.8237897483165266 -0.6006485221341203 -0.9217600237050191 1.0887403185147315
Ni 2.430110777247685 7.1587621793119 9.576943670936434 -0.9552666401028967 -1.7972700153035628 0.7714571895509874
Ni 4.829731397091307 8.713455582276547 12.779746854370307 -0.6363883987378911 -0.8683175876151626 0.2761259379991438
Ni 2.6855246934490196 2.1067471036587313 7.711092811499208 -0.767295344863814 0.2784931526797397 0.9031748045036638
P 3.3878229602673926 4.011112672068698 2.0813986409788776 -0.20803489875817718 -1.6345451533360948 0.5998555939191799
Ni 6.833893844609757 0.8968998733174719 8.378150622699735 -0.4079661945726135 -0.09536992956157768 -0.3076664318095863
P 1.271595568490595 6.155023982118212 11.350598497649218 0.01743130810256998 1.0143909570688787 0.8658974082094443
Ni 4.646975073662415 0.963389278630818 7.239060311982417 1.182066735283719 0.13620367574848802 -0.2681588606332672
P 7.482181239199498 4.084342589927139 9.352979018210696 0.1452657859507563 0.34869146807169626 0.74824449887995
P 0.6754026801963694 8.263155743243068 2.7751664947009456 -0.7572143064787281 0.08436483670032568 0.18858296068115266
P 9.059167627368751 0.8246466005251379 8.576134485836088 0.6469898284028212 -0.1612300225894965 -1.2008987803885574
Ni 7.96598978891319 0.8562657153165808 10.394941146309241 -0.12051711825116662 -0.29984847842706425 0.9856377961955864
