# total energy = -381172.3815013565 ev
CRYSTAL
PRIMVEC
9.20434452563809 0.00000000000000 0.00000000000000
0.00000000000000 9.20434452563809 0.00000000000000
0.00000000000000 0.00000000000000 13.47148860267476
PRIMCOORD
 96 1
Ni 4.757688760166307 6.2108982539935695 11.561460001620524 0.27874897744428767 0.5466265593917102 -0.11802237685377093
Ni 2.883214835630948 6.93929324587689 12.798008434565997 0.9113843368976497 -0.3935898712462834 1.454092020850928
Ni 8.517350466022204 2.359772978657983 8.675396421423414 0.9026965793156647 0.21747701800768354 -0.5111581912817712
Ni 0.34798588429583416 0.5260126303407496 5.1362201815130915 1.3505724655990223 0.754382750567204 0.30609420222645994
Ni 6.113727991037238 2.452561973719343 5.434950858064469 -0.8045053782552078 -0.049919510538262414 -1.1260961334553703
Ni 2.423227728380532 4.912616283712859 7.99982792287961 -0.019670996066366124 0.9483807116163409 1.7766952764760044
Ni 3.1465051048235075 6.53363938313071 4.144584623896524 1.550424828546407 -0.6419741203557847 -0.8538931846597165
Ni 5.581173833190278 7.990917197146161 8.314562192895247 0.9590929558275224 0.1589563960639714 -0.33765346508997973
Ni 3.287754972714751 3.7628648176782726 1.331780260988607 -1.2042682110814227 -0.018589075856097016 0.5494095214534861
Ni 7.566827032732695 0.6874135692455665 9.963432115610253 -0.9131810237867564 -0.6024629496350399 1.0771155897916096
Ni 4.4864367331393975 2.9373731975931583 3.344054265165134 -0.39938128111707993 0.1348175940342388 1.1256114805094677
Ni 4.41423785631554 6.451159253704577 6.476404929297703 -0.1695259440497016 0.21532706154421624 0.2693647080159103
Ni 4.65741663317509 0.49730888258766465 4.406578000974794 -0.52767110133513 0.5936234969665388 -0.41729415684175875
Ni 5.836382688072366 8.5617430186639 1.420393245033268 -1.5109617374547784 -0.30029687881839245 -0.8172102274163862
Ni 4.631929803760856 4.470982639030874 9.907821308114794 -0.48776603761007614 -0.06498437529118485 -1.4846837775948558
Ni 7.310486043499597 6.435060855493853 3.7189932309249283 -0.80563692075649 -3.6569227066094054 -0.2676523533104939
Ni 1.5257949531124413 1.9112820974597087 1.1307776306591795 0.10756492896587282 0.9776002706030905 0.9929240454443545
Ni 1.8486373300370706 5.889749476423299 1.6961544803411568 0.8944222551220145 0.4600886262994657 0.4509144159993653
Ni 3.5626427157469407 2.349445704334122 5.7130159407549455 -0.008008472126773305 -0.5922073333453027 -0.14154899922080139
Ni 2.4475179930335353 4.556104415276034 12.593659104642848 -0.1539795116746703 -0.04245739783326236 0.01808539674680111
Ni 3.0782088699901293 9.153748036455442 10.984866737953649 0.9550990041767808 -0.7226774490441231 -1.7140122956244868
Ni 4.511003128121916 8.668853973482772 12.81436271354874 0.7729692553201397 0.35067378860904763 0.8835590871552655
Ni 8.701943591302987 7.889522140148251 6.914510548802918 0.20459244873553153 0.382725931948586 -0.09866351271118491
Ni 5.481987818828487 2.1217578389603644 10.428117120200152 1.1638527833788537 0.3535086869546815 0.749046168845639
P 1.566524176715905 2.103919819673695 9.44892859740369 -0.23421258559480954 -0.6253532239696521 -1.670166759194446
Ni 8.212502582237637 2.673751572005181 1.2037570358811323 0.46631660948704845 -0.205909110664426 1.0368935090467692
P 6.345143615859449 4.5925628231163325 11.216589787876051 1.555270586674483 0.6152017373579469 0.3539090077168937
Ni 1.3202067184442012 4.04451775378358 10.395394755718192 0.3797030859618622 -1.7583100891005976 -0.5837764289691301
P 3.7399183872955755 7.333561334702734 1.9604378982855384 0.26099011079896983 -0.832955663176101 0.06515355387919747
P 4.362040019692887 1.6713248411111672 12.873664463115382 0.2207618594065424 0.5378323581388479 0.2664938142260184
P 6.910934661035698 8.955799407570451 12.844390966449065 -0.8814003889410499 -0.07425577329078178 -1.3496957194210242
Ni 6.795291279034814 6.192692060934213 1.5174825097596079 -0.34171992184986955 -1.0588237334609572 0.6982769087125715
Ni 1.487781011082542 2.9582302418158584 6.8165192583334955 -0.9298865094668952 -0.26103022000828596 0.5354749136502649
Ni 3.233228436979854 2.505606610019176 10.724907520969472 -0.3810035499408406 -0.041559568609341326 0.6048617888845196
Ni 6.916494085003268 6.819001669995836 10.120469274874303 -0.943524154854988 -0.6963159283314588 0.8951925576291357
Ni 1.9828182614927299 8.530549495773021 3.6643525613204986 -0.2451382313683778 -0.5877215296598072 -0.739118625319282
Ni 5.175455540033878 7.480876865498991 3.9248640389637055 0.6977246357535273 0.6086479953998292 -0.1984994484639162
Ni 4.283701845209479 0.6427623745285582 9.08117086108015 -0.5065376617906244 -0.08525443839413059 -0.7438540831217383
Ni 0.5079481841838779 3.0608586809522693 4.220980681729008 0.48210755377271813 1.0802623629507073 -0.18344126857921308
Ni 8.364972545851508 2.4124678498737637 6.0179558679826854 0.245590488414448 -0.2035663214638623 2.61249175153501
Ni 7.734254055861961 4.276458026231869 4.638758506809761 0.8851230892082756 -0.713615595952171 -1.2546908865083488
Ni 0.8272468885463979 0.6127175538084619 7.6220604621111505 0.6156573368381267 0.1717365785477752 0.6191075001702563
Ni 2.143590543680684 1.6787343382864865 3.5402264555969127 2.213781014122394 0.3560203976329417 0.016509310508932857
Ni 7.616640944177203 4.084823577548454 13.058021036747213 -1.0238803846165527 1.6901002648935797 0.2891210647072311
Ni 6.836839689282505 3.9566991046534907 2.567652174626766 -2.012568537602689 -0.12101205560971416 0.842602956457878
Ni 5.43334285911226 2.9424171782789657 1.189678070813594 -0.47967991816783195 -0.029235499826349647 -2.3644756843982053
Ni 0.40090165977522674 5.758016900556006 9.359936394373161 -1.6959019591770212 1.0264296334009677 -4.048335367698711
Ni 3.5703007302188237 0.19911942148213518 1.7923279128079386 0.00868595780977214 1.406518899057655 0.05881527036599549
Ni 7.925501922084055 2.647528395045572 11.153691900984693 -0.3056959383467768 0.7939170612164005 -2.0157052834594573
Ni 4.714520385318794 5.528837931402867 0.45330843501387996 -0.1325323975444879 1.1056864594507667 0.29518809683691744
Ni 3.118275380802757 8.336687595764854 7.510570080266171 0.9028228204808839 0.4191877743200458 0.6972055300252638
Ni 6.8044311929417605 4.450880351042182 6.673640221498114 -0.5680037395159057 -0.6816259304194519 0.7520579590887693
Ni 3.593983508146894 2.7276153949492414 8.321783001012065 -1.3491005090391863 0.23037315724406132 -0.3721422428954688
Ni 8.805851434299484 0.9608415032690536 13.366626133882049 0.409072797373231 -1.4275029575084899 -1.0874748215387466
Ni 1.5481338967702054 8.244699378659087 1.0178918702157176 -0.8817785982160751 0.5675016030685065 0.08138338547449855
Ni 8.821323937096642 4.805358059384913 2.377879764798714 1.2470451970376328 1.0050509106148755 -0.9723331086668803
P 9.215205443461166 7.280654763567659 2.548900163949402 0.7929410704563763 -0.5447946483892939 -0.4459334178450062
Ni 5.203915372662558 0.6614297052382043 6.762498961536043 -0.972800535221602 -0.10127266819925784 0.6571055766805844
P 8.945739059231787 4.292952211248232 7.672672390207956 0.29292012673834716 0.5093067398953294 -0.41415972497783515
Ni 2.270859012554151 1.391660043378368 12.597794616544551 0.14173411864841398 -0.3330473337765361 0.5687848406563043
P 1.585834891093321 8.439030700227432 12.220849103723616 -2.352589474483581 -0.44784631859700286 0.7887033782259449
P 0.9843125812778292 4.110071094010443 0.7246920841645242 -0.45236426107201444 -0.756320076799233 -0.013467181248499388
P 7.399252740094354 0.5535778007018011 7.865207023765589 -0.09483102633897217 -0.309545393999854 -1.1814116181982233
Ni 8.030992912303105 7.99078833632572 0.8286284606284047 2.6203595843188614 0.11401428413564235 0.8399426360168953
Ni 1.845351379115842 6.139343681271914 10.915542377860044 1.5352473494750205 2.153273957876272 0.36028431511561826
Ni 5.881152618831065 2.6510720676076818 8.073409292219907 0.5161906114993562 -1.1030706190944743 -0.4752180257417364
Ni 6.315450401092269 1.4583179049232906 2.617025197978481 0.5162003816913691 -0.2361501689371546 0.8979626641751052
Ni 6.947880899124806 6.571156290567482 12.813823338971753 -1.2153926031293585 -0.5464018449754138 -1.8258735379728683
Ni 6.6244310354752445 7.0053528250411965 5.820046817778257 -0.0009060567540371493 -0.6184346424729478 0.5325700812986441
Ni 0.5425325875212008 3.033908360791605 12.288624372668641 0.8394793232272316 0.045695702264901945 1.668766793523126
Ni 8.604837758756876 7.646113254680771 11.561918377967519 1.1324020210687402 1.8079529489387054 0.5726054999539751
Ni 7.113384214291785 0.01014963047853995 5.656434995368457 0.286715540589532 1.335593732802003 -0.7718037742571289
Ni 1.1367917492360162 5.549115101933586 4.058124535987648 -1.9028217704941486 0.4268350064526584 0.1282096017994179
Ni 3.9116346348766413 6.756715872001568 9.428775685521252 -0.9488643361209788 0.5804913304599552 -0.5902388967650223
Ni 8.839539334500316 7.68282938416195 4.607706730821367 1.9137525584740398 0.20590165446525827 0.4431039188160111
Ni 0.6648886978325957 0.7263608317892266 10.933055483792316 -1.016578965859133 0.3021987238267957 -0.8001455586246156
Ni 0.564929518548163 6.10651178509258 13.112082753094093 -0.5751619478272417 0.1683072411512521 0.5239463441853751
Ni 8.929143626427935 5.7293821853853 5.862280031243146 -0.046146416649075366 -0.44641395702585057 2.1850728475544234
Ni 6.571644120816292 1.9302890684746583 12.754750777578607 -1.052335297523136 -1.0333759828118139 0.6387970081793837
Ni 4.6308897128530155 3.850784714595851 12.299118245624644 0.8244057167235609 -1.3811850482785566 0.47464595528835035
Ni 5.517746696500681 8.844739789039515 10.715181290329522 0.809086055647355 -0.8878926815336128 0.4504539314231791
Ni 5.557214924932692 4.889117592671132 4.786016050236819 -1.163729113316796 -0.10051470698731077 1.3294058588237363
Ni 7.119284198999089 4.292694489607351 9.130476692718348 0.36889802492655827 -0.03566660016367406 1.7540870521581857
Ni 7.265311121590942 8.51590538396441 3.11551039576988 0.45996932711278204 2.17964653433253 0.3333406966472388
Ni 1.916326078145516 7.190176058929908 5.848067603183008 -1.5878238380201557 0.10386151197235662 1.1392807504664442
Ni 8.614161759550166 5.26528073622511 11.26407684107718 -1.3221712887485102 -0.8625547169894565 0.391273564408281
Ni 7.234310889930724 6.224355005385267 7.953863268228542 1.0403318453043566 1.669674135828744 -0.32464599708671826
Ni 2.758026548573161 4.735478677328983 5.804352490283056 0.5568932314250409 -0.22298149276568052 -1.6632502345802707
P 2.5758357571591595 4.155604985347468 3.5829981232043555 1.4098063115596753 -1.493751544224079 -0.34408327987572357
Ni 4.821023853412733 5.395117217163067 2.845838754662229 -0.7452280806511294 -0.22277091941677118 -2.2544880049234526
P 7.956594197187445 1.754633361525845 4.0419046404319365 -1.1415461494618533 -0.2514477185261734 -0.2453547182545581
Ni 0.12192442656291974 0.9007960426815836 2.626872925963418 -0.9060806652965492 -1.1834877840009617 -0.21822083815224355
P 2.7034631954609956 0.0796194192123572 5.621718969907398 0.3092998536479512 1.4060974952495202 -0.5366897598939725
P 4.670615662925908 4.600358902752973 7.572916626932933 -0.21717054251085824 -0.3512592287988725 0.1761701888390966
P 1.6218514904063952 7.561212382699223 8.790900817825111 0.043570428391783024 -0.5536109611293433 0.2813902717218767
Ni 8.711396452916718 8.067736654817235 9.196715756596841 0.5793860132109183 -0.20358174808283003 0.06702737386314263
