# total energy = -340887.2426891257 ev
CRYSTAL
PRIMVEC
9.12872923390815 0.00000000000000 0.00000000000000
0.00000000000000 9.12872923390815 0.00000000000000
0.00000000000000 0.00000000000000 13.36081797991672
PRIMCOORD
 96 1
Ni 6.765848880145945 1.9228846321480135 11.192557685895983 -0.2510836503185353 0.6873389216438293 0.35188966329401977
Ni 4.881788732977235 0.32864702881116925 5.743722424323896 -0.09292738155835609 -0.5719596388398601 0.008860021493791193
Ni 3.025625982022197 1.941242506423438 4.418315852190206 0.14456027524329942 -2.4237025883803223 0.2673037117218235
Ni 3.7735062445226517 4.107006105738005 4.575091733353164 -0.08880076098449223 2.268294314678926 0.289110780294586
Ni 3.9008885307679377 2.930039059328031 2.2645784406282212 -2.0081814642785867 0.061690535031261505 0.4123144442389802
Ni 5.415280791918096 4.464980089744216 2.717349712259068 1.023095169711096 0.7396176764428875 -0.6414863820860888
Ni 5.519110957014404 4.473205074688103 11.545376676563889 -0.6767786296294795 0.2711202572544363 -0.9105950082271349
Ni 5.557259916038272 8.300351731564009 12.367321057094577 -0.2290274418494443 -0.43477328746312865 0.9743959047331799
Ni 1.6012156038819139 7.030974560196242 0.6918983311259939 0.14989505719265153 -0.7022472062142293 -1.2699092461200001
Ni 2.5569844148031726 1.7794996837422006 13.60411870707917 0.28421154322075565 -0.013294660226377103 -0.3085493486351718
Ni 8.565240064656992 8.715690649407497 6.930309325488442 -1.8640474779394283 0.35723498676633314 -0.9520759010797408
Ni 8.719908122264407 2.3791841575866437 1.0813938168094994 0.32167997247985886 1.2296362575325661 1.3940835015077797
Ni 7.1872857890466095 0.572501857121454 4.542731301469051 -0.14126000722547286 -0.6098008780573498 -0.38872560117544663
Ni 0.6001746865985903 7.992512727926088 2.8032866553925433 0.48747370318063793 -0.2832296389234606 -0.9604816086449329
Ni 7.885578794926426 4.269762217352397 3.809997426336963 1.0329928884407822 -0.8571433161658979 0.3409285362968257
Ni 7.8642905986010705 3.9137509101086008 12.682809935741352 -0.5690028702043813 0.7003888128492519 -1.4985726197618063
Ni 8.288803889217707 7.141660400867311 9.382781659129481 -0.3483297138569033 0.6765593145298219 -0.5919535654632838
Ni 6.645130566163741 1.1208710059214202 13.51900973967756 1.4930079811898351 -0.053652752328449536 -0.15073966458113394
Ni 2.0638413386059087 6.554190166595477 9.002933414387929 0.2785219490351461 0.3513792993165045 0.3214997381482527
Ni 0.07368071140687835 5.037597881725589 1.1539617361357342 0.004426668312785925 -0.5222661282694748 1.5239478653018013
Ni 6.774840678336543 1.5822826196714563 6.700624110529879 -0.14718177202654653 0.36779116501562464 1.2415854594746425
Ni 3.3282889962448197 4.536366751521351 13.527427340806039 -1.2233488818619576 0.421195548778694 -0.47724662613599095
Ni 6.1537128197715765 5.587777257511541 4.747004873155362 -0.3656658911425057 1.8742470441802497 0.7832534108549672
Ni 5.434168132482916 2.9291809587900453 9.21073432700911 0.7411899060260139 -0.34078584007137436 -0.11762745540819743
P 0.548241346592181 5.7832781205063135 12.574440053649932 -0.31396434900315606 -0.5968854555472624 -1.5562460632138746
P 4.189776292737146 6.380844729193173 12.612224776381613 -2.9888493180634073 0.8939499434712862 -1.8336809498324291
P 2.3881211834024767 8.774863071612023 1.4238087948907805 0.6408076108515093 1.8079244096936153 0.05398673862910057
P 6.670015481765335 7.914452965156742 5.712871884237473 -0.3073445296937933 0.40167007715125663 -1.0450408207442519
P 4.838007348081692 1.408553775645797 12.416528558583511 -0.8930734544036039 -0.6239815404331059 -0.2621782175698001
P 4.2927209711080865 6.413753797697851 8.310175156978122 -0.9916397794152924 -0.420967749038604 -1.1771430727298564
P 4.9186779273815056 1.1750500132931971 3.5133876723987933 -0.43971391929785564 -0.7113293710211556 0.3903042585164762
P 0.47825777048194457 5.950799428725265 3.4061534042108357 -0.5355301923682325 -1.7265489946389165 -0.5546879962436061
Ni 0.8156300385931887 -0.021963722280791114 4.781716865662722 0.12752286014503844 1.1730833008381862 0.5302293489806094
Ni 2.30669291958508 6.600728427687528 4.3917676821415785 -1.0444826342479367 -0.9052126608692992 0.1675755051915501
Ni 6.1604498218676795 5.863510520808006 9.358597829924879 -0.26438859495755757 -0.09698509656749747 -0.023286738442082476
Ni 8.83325955184071 2.330528031337011 9.996523462957377 0.2152555848763325 0.6250405778252396 -0.4131791062321207
Ni 2.667524195808202 4.962313252611008 7.071734335750578 1.889383642711372 0.8816032489804752 0.12349445571193571
Ni 0.5109787871665945 -0.04774873057435827 8.898785569517981 1.2793673062091064 0.10509872681356737 0.9408972587551022
Ni 1.148102004908785 0.9556683949008562 11.300926655114491 1.2168067098680657 0.20283124307005065 -0.5506176828289743
Ni 4.325620910883636 7.459394946879454 1.4332679840127072 -1.3334211506307165 -0.2665730042033861 -1.2192891099702874
Ni 5.83709197871299 8.002426527758564 7.778266932540884 -1.1046227940729427 1.3958593624612798 0.8582617460410573
Ni 5.55316111666002 2.623478077767962 5.0054035927115965 -0.7727522542133272 0.6489042718167147 -0.14372106717145572
Ni 1.4082068839389519 7.507129071487207 6.716202286785976 -0.012296300868849792 -0.9319521337466725 0.2066986964452569
Ni 5.483344596292817 4.787434188715282 7.119766056927888 -1.5876101793474529 -0.32996663796868336 0.7798857799343148
Ni 0.7690726071699706 7.440188100795171 11.157579134498102 0.009052854230887634 -0.9632082635474766 0.8755652703165113
Ni 4.9476159987157144 0.5829223014205076 10.30731013323057 -0.9330908753368058 -0.3004326330653084 -0.30862236796495235
Ni 8.626439064727823 7.054161532180119 4.9689151495160235 -0.42251940979644004 0.3090483997587774 0.06331418667761354
Ni 7.318301309484646 6.42776639690858 7.024156312410904 1.5078810416469257 -2.021098429450571 0.4740687426286417
Ni 2.6904646921056363 5.6308922451807755 2.169248948095451 -0.13704468359254462 -1.2670445229776952 1.3434600229239573
Ni 2.6024454858581763 5.345719875966464 11.197353920179578 -0.5877876070110523 0.016823499315241994 0.7737305589661966
Ni 1.161429949434951 3.5121142146855058 3.7566610006636556 -0.0588486947070922 0.5358847474941739 -0.22750894832238883
Ni 1.591447863715477 1.3347845155663818 2.5583564627910373 -0.7861351032781364 0.2570002729132864 -0.2793547293490866
Ni 1.122103384353634 3.443164923585416 8.117177391510113 -0.3620604331794345 0.0621996134571961 -0.632227325381666
Ni 3.780343662639157 2.6917244567252325 6.990980685015704 1.6747980873188704 0.33554053251203503 -0.2526473952612294
Ni 3.7523184642176988 6.944023415256701 6.087923894695431 1.9279062242666025 0.41901088242254936 0.9620222136591754
Ni 0.5259818534876586 0.2621917065087157 0.16283096719323661 0.9075073704407468 -0.07121801490572251 0.43677900503924777
P 0.23028953682680356 5.818067707211258 8.072900316622949 0.31056277952077477 -0.5654220948316585 -1.1444910910227901
P 8.697624894464154 1.7381647982528314 7.775395034357369 0.45001684388576046 -0.1631187549717771 0.05305059996807638
P 1.8685778225684517 3.276958152360826 10.164696562436035 0.23967052338558725 0.7290327018381896 0.7305913045745611
P 4.4267672296164555 6.160194217452109 3.5559284630059067 -1.7214381557749128 0.767521344831691 0.2573466005091116
P 7.192991244751304 3.984215570243857 10.3425424632982 -0.07709735650463496 0.32698981472854655 0.009029457192119934
P 6.296230538910276 7.954345511443965 10.317851076754108 1.1853970852085325 -0.45831713622133974 -0.5272710376832339
P 2.7706697062199463 8.9572915944962 5.763001387368286 -0.7385342135707216 -0.564305464728712 -0.4515659335404352
P 7.02111553273853 4.0661824290797774 1.2334337133011055 0.009211234185622846 -0.0319950648493578 1.8669988472582686
Ni 5.133869459104319 3.245646611453464 0.1996014881188503 1.6055251119546607 -1.006003761446448 0.3926984697802656
Ni 1.6369545784161188 1.2703722028426654 6.945447497000592 -0.3670707419098323 0.45503769413911954 -0.2894270259834241
Ni 7.197044400483919 0.7695719486532454 8.964360882332544 -1.0117275513041026 -0.9867623967183329 0.9506072869540144
Ni 2.91845470206522 1.9094562716014452 9.069590481604099 0.23970986126395488 -1.228910177999819 0.49526337442838575
Ni 6.5529121445176255 2.330226783275803 2.7951766924356622 0.8682628231178272 0.0506173079362354 -1.9129891979454536
Ni 4.121758132008063 7.13213000765819 10.446836367834186 0.24835570986441097 0.39209374631673116 -0.13709559143513808
Ni 8.366671948675375 7.538166750520745 0.1913710259374865 -1.3297861249812906 -1.4778245885811774 0.5304046982162091
Ni 7.842235589029003 4.1242502750598735 8.274888967408643 -0.5240383896785491 -0.04302124075653236 -1.2858763109722178
Ni 2.8700633089602845 8.531326835948288 12.295292645659778 0.9179861584848836 -0.23915013210574293 0.7909433233000571
Ni 0.2845926949147146 4.738805448653032 10.206061572731524 -0.7794510063897415 1.8525633885592288 -0.23252568481068983
Ni 8.841603210263255 2.381685429367582 5.583365342724216 0.21626140043302755 0.9424774587580286 0.1738942483207263
Ni 3.6346491457640835 2.9219692627793115 11.419530755430761 -0.1823500923975634 -0.009341332005583911 0.06410814333381863
Ni 1.0320667289689947 3.5040170319494033 12.13148855594155 0.8148674382158224 -0.31115181925502544 1.4249079430878042
Ni 3.213047919739122 8.873079068294912 8.075264657466974 -0.2253636198446119 -2.1613713901724263 0.1357149090375276
Ni 5.491660868527979 8.107379526537557 3.367874817233358 1.888578373201257 -0.06135140652428788 1.0121682383859472
Ni 3.2140246937557664 8.557535417273371 3.60961178038606 -0.3481173407357811 1.1545091373804246 -0.5903340275819898
Ni 3.701827463413436 4.455878746804087 9.125558719884868 -0.22164914710750214 0.052086950503226426 0.7739570731547057
Ni 7.562220951771735 6.157482984901239 11.450728187224032 -0.03205394311175125 -0.42966553392291806 0.7360983504357194
Ni 7.946503933123433 9.32810057165569 1.9367840351175618 -0.283302401142925 -0.4135683712507393 0.8419997756562402
Ni 4.6718279630444846 1.0167852364095413 1.366357138126791 -0.6031134387348451 -2.2986281897757768 -0.2571342273879894
Ni 5.745010488003788 5.672309289232291 0.21301159120716376 2.947311860941253 0.405281962872231 2.1125178590048326
Ni 8.023331317460563 8.706835782153812 11.5116003787921 -0.8683322429031819 1.4797701423433225 -0.540991729703436
Ni 0.7959284153901948 5.122221200737615 5.926084307485442 -1.971670513836746 -0.1963682610535263 -1.061524420221572
Ni 7.344491633351475 6.277087593929886 2.6840681916059896 0.35045858727444806 0.4956593243152237 -1.1379550896764854
P 8.591786408959793 1.8038368755961447 3.405071649809226 1.4144291550436672 0.026656683355579896 0.3998463936789565
P 1.8345733065684737 3.49442273763639 1.5738376323555958 0.19016418912534347 -0.25371106063905335 -0.5117330899486348
P 4.820133296450026 1.069814023911252 8.076921521803616 2.391303603224327 0.9373643059011791 -0.15437571867182445
P 8.615000767131052 1.8273798680159952 12.388872160818805 -0.5377824787375189 -0.9529683309870232 -0.7959142941520874
P 6.439012991193673 7.7821868088282375 1.2656380439171382 0.8452871881582603 0.6519014067718256 -0.09592168829998964
P 2.10714802958682 3.217320164970798 5.829338036192082 -1.9861386255459343 1.0831445695945086 0.12992941270400205
P 6.935460667335096 3.9520459287985084 5.91234922164019 2.076181229357328 -0.7382192534334642 -0.030982050203811163
P 2.27706106483718 8.508477626942128 10.177843758125475 1.1249445363494304 0.7567610209913934 -0.8660203069405535
