# total energy = -340869.6396610938 ev
CRYSTAL
PRIMVEC
9.23758669058177 0.00000000000000 0.00000000000000
0.00000000000000 9.23758669058177 0.00000000000000
0.00000000000000 0.00000000000000 13.52014187124175
PRIMCOORD
 96 1
Ni 6.285743582923758 7.0260992065994685 1.1465784988178167 -0.0981850304128696 0.061435481597661934 0.1686383992384257
Ni 2.235135715571561 7.5214832685720845 2.0136765832965335 1.5777582262540377 -1.3364807633926468 -0.2795776439931701
Ni 1.510022109951212 2.473225275182992 0.16393483237542705 -0.524324039239768 0.0908249905033726 -0.6471605496527307
Ni 7.9761295731967365 0.7087806285756928 5.341415578596535 -0.2153967384398871 0.9020491755396529 0.14974413343708406
Ni 2.247449418642953 4.911393908838655 2.0212209203546023 -0.04671951554372599 0.6423708415735712 0.3746308136452774
Ni 6.358665092335284 2.7915063249390197 13.185382998873246 -0.9552172749221999 -0.5983219308834729 0.7506466805635394
Ni 9.15252700188286 8.945715910838368 3.3035383656627695 0.08526497991709187 -0.846916239121251 -0.008999889505765146
Ni 2.9622723526792583 0.24638953126157712 0.46482889644430325 1.3443303413440526 2.1200316508833743 -0.6316056326372671
Ni 3.2133499591911963 9.000596413424365 11.214187305535006 0.3605080010906501 0.9979266408652685 -0.8002412036622154
Ni 4.100084381718568 6.059487371875307 0.5898282246369795 -0.6034829062591219 -0.14287131757665072 0.1662688705649846
Ni 6.995799922222751 1.6407709121061045 3.2844073236066165 1.5012481097114403 -0.43969797845825564 -0.3143397300647038
Ni 8.53312833845981 3.1262579917815363 4.68159231201466 -0.2797915597761891 0.183882984102322 1.0185872545384134
Ni 6.225024925543223 4.636705030720959 7.549214503846139 -0.5387427857682592 0.14414658474464853 -0.4084580466073675
Ni 8.247474444928953 7.047983049492285 7.635864914611529 -1.4989924809080442 -0.3108173187337421 0.7950108085012114
Ni 6.2841547180113215 0.12868235401005335 0.12988139276374172 -1.358295288164577 0.7505728899028106 -0.9047835437516806
Ni 5.806469872156323 3.5081583011419686 4.759333070407689 0.5285074811934963 1.4324790705668424 -0.2828228904033452
Ni 8.898160814505642 4.613352411542806 2.851789891985975 -0.46832592660759337 0.19283325131707435 -0.3334003462405807
Ni 5.409891037529245 1.5648656621904093 5.824368620146666 -0.18742133627288368 -1.5096805567495097 1.1903549434344405
Ni 1.0478009842323806 1.427262570703955 4.810304226302154 -0.7328893565801184 0.06093205959868216 0.17374898099211367
Ni 3.875278471782051 4.155962543668189 12.480429502467453 0.7270655508094898 1.7521276144389695 0.19690433606265442
Ni 3.1439294951390546 2.2880116618436115 4.717569940936001 -0.8523590074033772 0.02191119825079452 2.663943382447083
Ni 3.540009500084322 1.9048273279318495 9.406747235390212 1.0939804838677483 -2.065946696113513 2.686421766055257
Ni 2.429928706319068 8.733870335042257 8.530519643975667 -1.626567534447257 0.8898112387125642 3.190829525987072
Ni 1.2822416970972252 1.1564627165870505 10.07688611504022 0.7332837638050597 0.11226516265501957 1.5338317000744166
P 3.7871334194885664 0.32013595716543125 5.210743448411256 -1.5955793135958585 0.3893439514857359 -0.25423607990458796
P 1.1216370147272268 9.130301368282133 1.3034715188516672 -2.8859897649930035 1.1962718231395073 -0.0619890401082868
P 3.607212943328411 6.360946776250238 3.412321110403212 -1.3005598811263215 -0.9922028510076139 -0.17935552854561368
P 4.802833789937688 1.7884152603356962 0.9301787927784989 -0.36629812540986595 -0.3623795070817501 0.7644067104621094
P 7.16358220945882 2.532641432838797 6.56995087037736 1.3529877599087343 0.5625897675891859 0.3255613098121361
P 6.685481672202313 8.62064523485768 3.228839544570122 0.006491521261614628 1.0763159767084496 -0.6062856658152397
P 4.26848558726355 7.907688293334817 12.857735959961868 0.999081323295002 -0.04261886311179112 0.23736450096022993
P 8.125344311165366 3.2829828877374427 1.3927232340318383 -1.229935791050856 -0.39822865556987547 -1.2544085793812398
Ni 2.702954818830725 1.805791160918807 7.1963931936593255 0.6076594062343147 -1.5035947555667462 -0.6210756796402207
Ni 3.2446099525847356 2.1359979351048164 11.924142955138969 -0.3403279265983494 -1.7650165545864955 -0.5108833403538299
Ni 6.4470965098164745 4.710420972588702 1.098646508947723 1.639460588359841 0.36294206445343946 -0.3647004419054429
Ni 1.9542946047115193 7.796255284970083 12.69971225931591 0.6128242382647059 -1.430527860377743 1.9582676101672793
Ni 4.604428902790396 8.105058570771686 3.9801814301084018 0.13811580516953634 -0.027987743462177604 0.49105756387715427
Ni 0.8979737942655271 6.454763706777656 3.571263950925841 0.25975366728870747 -0.13243572406562354 1.166744760214668
Ni 7.269832931684733 3.4258698788164224 11.144423203257617 -0.6475302742873236 0.6995362350409694 -2.0694804202983845
Ni 5.327611852790399 5.476300048317116 9.778118543429734 0.8345631168725369 -1.0552964370339888 0.30142507888556475
Ni 4.732036925467214 8.63675558606286 1.742192224005143 -0.3440557690718978 0.7754840513221934 0.0058963108797769415
Ni 0.4156692313017506 5.559854020020591 9.24012426528502 1.4923580063106623 0.5105465258397014 -0.5581363598035226
Ni 7.474140636733464 5.4993663023075605 5.004426568255226 0.587523040495756 -0.3089620106925582 0.9327232075847421
Ni 5.376173846073447 0.4601204985032019 10.413186001413692 -0.7835765985223409 0.5645582041694664 -0.9338928024128109
Ni 1.824220146385743 8.31244239219159 4.9660425479984776 1.5781135527109271 -0.5699284673424443 -0.03360946052432921
Ni 0.6559065298209823 6.138524163682377 0.7809437321191294 -1.2625350651431158 0.4583153364491268 -0.6064008512368653
Ni 0.17627624820691895 2.2618415787218926 7.230747778597438 -0.04325675380610615 -2.8739240920777216 -0.3784324467795547
Ni 3.5619025805638396 8.205221723362154 6.8881340017143655 1.9680362595182688 -0.9770641955939625 -3.7620800545750503
Ni 8.383848937384279 1.3846218704957465 0.3153933801535391 0.47920374986236186 0.963235003020354 -1.7130643298889205
Ni 0.0876360612663026 9.062238829474923 8.692680859704653 -0.9444793196794057 -1.1628467107118425 -1.117481652313482
Ni 3.9049034123296518 3.758256723463683 8.279938095869532 0.5483851939540297 2.1498353645083683 -0.7435082697465453
Ni 0.06266039810492192 1.8546302818028624 2.4332200584603556 1.2958673607466586 0.3133102603589249 0.5329629458616886
Ni 3.5418108294908643 4.176802539263882 3.779325811209542 -1.2262107767907848 2.4169781251722955 3.523564984950145
Ni 8.527373321945573 4.347346864923315 7.222189154519686 -0.39925529706217694 0.4783354883247955 0.18449722064755325
Ni 7.958578158466321 6.308837549674305 10.853848447291556 -0.17504147455129207 -0.7324478981673257 -0.11970902052757448
Ni 6.180943161809781 2.089662200216521 8.894401116718653 -2.3508190128467192 2.5244669494845944 0.26796731344775143
P 7.828919391542055 6.537948175013123 13.240382666327676 0.13527062241125737 0.632063546110292 -0.8841414420212967
P 7.767858943453611 4.732803645163331 9.28238899571453 -1.909456759312163 -0.5339080833837774 0.33647744250400763
P 4.149468520217935 4.164996903461003 6.249510072850821 -0.4365689459109708 0.3884517786887697 -1.5618001602628844
P 2.976840026905503 6.072955773284225 8.500518733649368 0.2175448951311415 -0.20322693584657256 0.7117811138465935
P 0.29349475712200124 5.39661662544103 5.7126113724887535 1.5130397030297298 1.3612222320033847 -0.709544768316907
P 6.075209744439079 7.0182657330776825 7.248634517725071 -0.7439443288426995 -1.2287775090766966 0.7014365373874759
P 4.694412234837224 0.582068651808796 8.15979773828117 -0.21890346604156496 -0.7891978013638601 -0.5575504053930657
P 8.961817024456847 2.057284458832255 11.390935594422306 0.07098198763551647 -1.0304955759402255 1.9335515954778377
Ni 4.6760017245436885 3.9055962313321677 2.1006918787365816 1.4116137970820593 -1.070868323330317 -2.566741798993405
Ni 8.326769889163629 4.473273646820694 13.004740143433136 0.9986565770527575 -0.5050307382277948 0.02453835146099645
Ni 8.182543448013119 8.476991524082582 0.9824653810190754 1.4841209631128505 -1.6822907961514897 1.3975727456079607
Ni 4.783259343719925 1.6955128508915993 3.379927665121556 0.15833521754020471 -1.0767139834778165 -1.9120815985295199
Ni 5.808391290189968 5.517638248800593 12.346039243635337 1.0170078258664357 0.29696935710705624 -0.15404044681959278
Ni 2.7548792936726536 4.654829175826788 10.205341224417447 1.0340794366367416 0.35281448910113433 -0.27328461189560677
Ni 0.882279134461856 5.818183132092201 11.563060471166148 1.466466740366197 0.42573971650595066 1.5133153252886193
Ni 3.703773437105795 6.643986432744931 11.035099135936541 -0.1387002169180966 0.0448130425496325 0.7346860434692251
Ni 7.906237992222883 6.85619227442235 3.1256677099913923 -0.46827913253005804 0.2046343577170605 -1.0241616633023973
Ni 6.447207360856877 8.18004929960406 5.561361594170068 -0.10178277506645697 0.20726999556769468 -0.6142491436366905
Ni 7.3868454424164 0.791791430181196 11.557734078674802 -0.41316676493694654 -0.14673080053205698 0.32898267678885923
Ni 6.965556063366236 0.34912904678273693 7.719027212638916 0.3982453677404238 -1.5394099654931424 -0.6545925804507436
Ni 8.810893332948678 7.6482691460325825 5.4223876448173 -0.18295661563331073 -1.3760937497985783 -0.7596432276351949
Ni 2.571827275621124 0.35897539044649984 3.085702214891567 0.0693670777399128 0.22650930341328088 0.01277426894653284
Ni 9.036659951902019 8.305338688019123 12.240041631285008 -1.651895471689084 -0.23717166822313349 -0.4206247638768885
Ni 2.5757070620352156 5.9450151974862 5.426254498610012 0.39342300665111596 -0.43601230207655234 -0.23801344739813846
Ni 8.345420576711371 2.0274378162038493 9.233661649629548 0.6822157414846509 0.46759393353757533 1.1572298787456974
Ni 4.555303416718633 7.5746640552052416 8.848203021872191 1.0201990791102236 -0.074952028026858 1.080733903270487
Ni 0.889890905902836 3.5397323724833147 10.710954066143216 -0.8889740875232497 0.9572394475585513 0.9277761479921118
Ni 1.3163930551279328 6.853522611865987 7.313693917096041 0.6298835077398378 0.1619026231764889 -0.6214484895986071
Ni 1.6844924099582383 3.761286651901355 6.480812777513602 0.8820881590366938 1.707457782335421 -0.726604037792039
Ni 6.313474818197815 7.78050519964621 11.365369649470782 -1.9433590684865627 -0.5273327441591047 1.7345901197758382
Ni 5.137289854005798 6.07312204984483 5.3415781601224595 -0.47840310833793737 -0.7170960983016037 -0.0248841648361894
Ni 2.7350184822671832 2.4932431255623655 2.202322883853715 0.3417662017067727 -0.6656241556745569 -1.4099171261059265
P 0.5710574484621356 -0.04258712220534719 6.408899088811071 -0.21719059711551625 1.15613587435057 2.210053171648845
P 1.773385706774441 2.951944730748414 8.914316429885655 -0.8411867928366417 0.5877140734606394 -2.2268964684584294
P 1.3158665126860203 7.961192395502483 10.663674249894157 -0.06895338724126189 -0.05686894527290206 -1.3718789403862823
P 2.0204819134185845 4.598479896955455 13.458990155588348 -0.5440659977533855 0.24378428844364466 -1.154753392180747
P 4.995649937131348 3.0449025657127122 10.765642426925849 0.050755890396628714 0.20819096472006723 0.11881864750282117
P 1.3131876125429571 3.3627124985470287 3.466510641504034 0.2977072637143453 0.011144960873225966 1.2024959496723486
P 6.279101758086301 5.25198373047571 3.261639443666588 -0.3713657697407604 -0.28913289178177304 -0.4546520286649267
P 7.365035500217185 8.634510852494707 9.806956441590476 0.8761756502070007 0.333813008297967 -1.0571905687329084
